MODEL 1
REMARK VINA RESULT:       7.7      0.000      0.000
REMARK  7 active torsions:
REMARK  status: ('A' for Active; 'I' for Inactive)
REMARK    1  A    between atoms: S_2  and  C_1 
REMARK    2  A    between atoms: C_9  and  S_2 
REMARK    3  A    between atoms: C_10  and  N_3 
REMARK    4  A    between atoms: C_8  and  C_10 
REMARK       I    between atoms: N_15  and  C_8 
REMARK    5  A    between atoms: C_20  and  N_15 
REMARK    6  A    between atoms: O_32  and  C_21 
REMARK    7  A    between atoms: C_33  and  C_27 
ROOT
ATOM      1  C   UNL d   1     -41.872-122.083 -53.404  0.00  0.00     0.144 A 
ATOM      2  N   UNL d   1     -41.420-122.579 -52.140  0.00  0.00    -0.299 N 
ATOM      3  C   UNL d   1     -41.842-121.309 -53.104  0.00  0.00     0.209 A 
ATOM      4  C   UNL d   1     -41.660-122.718 -52.922  0.00  0.00     0.095 A 
ATOM      5  C   UNL d   1     -41.603-121.176 -52.327  0.00  0.00     0.058 A 
ATOM      6  C   UNL d   1     -41.391-121.811 -51.845  0.00  0.00     0.068 A 
ATOM      7  C   UNL d   1     -41.152-121.678 -51.069  0.00  0.00     0.020 A 
ATOM      8  C   UNL d   1     -41.575-120.407 -52.033  0.00  0.00     0.029 A 
ATOM      9  O   UNL d   1     -42.055-120.670 -53.588  0.00  0.00    -0.286 OA
ATOM     10  C   UNL d   1     -41.334-120.272 -51.253  0.00  0.00     0.094 A 
ATOM     11  C   UNL d   1     -41.123-120.907 -50.771  0.00  0.00     0.026 A 
ENDROOT
BRANCH   2  12
ATOM     12  C   UNL d   1     -41.208-123.215 -51.658  0.00  0.00     0.144 C 
BRANCH  12  13
ATOM     13  C   UNL d   1     -41.635-123.373 -50.972  0.00  0.00     0.297 C 
ATOM     14  N   UNL d   1     -41.342-123.138 -50.238  0.00  0.00    -0.207 NA
ATOM     15  O   UNL d   1     -42.357-123.767 -51.021  0.00  0.00    -0.264 OA
BRANCH  14  16
ATOM     16  C   UNL d   1     -41.770-123.297 -49.553  0.00  0.00     0.085 A 
ATOM     17  C   UNL d   1     -41.447-123.123 -48.817  0.00  0.00     0.019 A 
ATOM     18  C   UNL d   1     -41.875-123.282 -48.132  0.00  0.00     0.002 A 
ATOM     19  C   UNL d   1     -42.628-123.616 -48.184  0.00  0.00     0.000 A 
ATOM     20  C   UNL d   1     -42.952-123.790 -48.925  0.00  0.00     0.002 A 
ATOM     21  C   UNL d   1     -42.523-123.631 -49.609  0.00  0.00     0.019 A 
BRANCH  19  22
ATOM     22  C   UNL d   1     -43.064-123.778 -47.500  0.00  0.00     0.000 C 
ATOM     23  C   UNL d   1     -42.679-123.808 -46.773  0.00  0.00     0.000 C 
ENDBRANCH  19  22
ENDBRANCH  14  16
ENDBRANCH  12  13
ENDBRANCH   2  12
BRANCH   1  24
ATOM     24  S   UNL d   1     -42.112-122.218 -54.183  0.00  0.00     0.214 S 
ATOM     25  O   UNL d   1     -41.353-122.475 -54.374  0.00  0.00    -0.217 OA
ATOM     26  O   UNL d   1     -42.882-121.958 -53.996  0.00  0.00    -0.217 OA
BRANCH  24  27
ATOM     27  C   UNL d   1     -42.350-122.354 -54.967  0.00  0.00     0.088 A 
ATOM     28  C   UNL d   1     -42.436-123.127 -55.250  0.00  0.00     0.014 A 
ATOM     29  C   UNL d   1     -42.672-123.258 -56.027  0.00  0.00     0.030 A 
ATOM     30  C   UNL d   1     -42.826-122.623 -56.531  0.00  0.00     0.140 A 
ATOM     31  C   UNL d   1     -42.741-121.848 -56.247  0.00  0.00     0.030 A 
ATOM     32  F   UNL d   1     -43.064-122.757 -57.313  0.00  0.00    -0.204 F 
ATOM     33  C   UNL d   1     -42.504-121.717 -55.469  0.00  0.00     0.014 A 
ENDBRANCH  24  27
ENDBRANCH   1  24
BRANCH  10  34
ATOM     34  O   UNL d   1     -41.310-119.494 -50.966  0.00  0.00    -0.328 OA
ATOM     35  C   UNL d   1     -41.139-118.872 -51.489  0.00  0.00     0.181 C 
ENDBRANCH  10  34
TORSDOF 7
ENDMDL
MODEL 2
REMARK VINA RESULT:       8.2      1.623      3.436
REMARK  7 active torsions:
REMARK  status: ('A' for Active; 'I' for Inactive)
REMARK    1  A    between atoms: S_2  and  C_1 
REMARK    2  A    between atoms: C_9  and  S_2 
REMARK    3  A    between atoms: C_10  and  N_3 
REMARK    4  A    between atoms: C_8  and  C_10 
REMARK       I    between atoms: N_15  and  C_8 
REMARK    5  A    between atoms: C_20  and  N_15 
REMARK    6  A    between atoms: O_32  and  C_21 
REMARK    7  A    between atoms: C_33  and  C_27 
ROOT
ATOM      1  C   UNL d   1     -41.537-121.197 -52.677  0.00  0.00     0.144 A 
ATOM      2  N   UNL d   1     -41.371-122.579 -52.339  0.00  0.00    -0.299 N 
ATOM      3  C   UNL d   1     -41.868-121.422 -53.405  0.00  0.00     0.209 A 
ATOM      4  C   UNL d   1     -41.288-121.776 -52.144  0.00  0.00     0.095 A 
ATOM      5  C   UNL d   1     -41.948-122.220 -53.594  0.00  0.00     0.058 A 
ATOM      6  C   UNL d   1     -41.700-122.798 -53.061  0.00  0.00     0.068 A 
ATOM      7  C   UNL d   1     -41.781-123.595 -53.250  0.00  0.00     0.020 A 
ATOM      8  C   UNL d   1     -42.277-122.438 -54.317  0.00  0.00     0.029 A 
ATOM      9  O   UNL d   1     -42.118-120.841 -53.941  0.00  0.00    -0.286 OA
ATOM     10  C   UNL d   1     -42.359-123.239 -54.508  0.00  0.00     0.094 A 
ATOM     11  C   UNL d   1     -42.110-123.817 -53.975  0.00  0.00     0.026 A 
ENDROOT
BRANCH   2  12
ATOM     12  C   UNL d   1     -41.123-123.157 -51.805  0.00  0.00     0.144 C 
BRANCH  12  13
ATOM     13  C   UNL d   1     -41.529-123.268 -51.098  0.00  0.00     0.297 C 
ATOM     14  N   UNL d   1     -41.150-123.133 -50.377  0.00  0.00    -0.207 NA
ATOM     15  O   UNL d   1     -42.315-123.514 -51.111  0.00  0.00    -0.264 OA
BRANCH  14  16
ATOM     16  C   UNL d   1     -41.557-123.244 -49.670  0.00  0.00     0.085 A 
ATOM     17  C   UNL d   1     -41.145-123.440 -48.986  0.00  0.00     0.019 A 
ATOM     18  C   UNL d   1     -41.552-123.551 -48.279  0.00  0.00     0.002 A 
ATOM     19  C   UNL d   1     -42.372-123.467 -48.257  0.00  0.00     0.000 A 
ATOM     20  C   UNL d   1     -42.786-123.270 -48.947  0.00  0.00     0.002 A 
ATOM     21  C   UNL d   1     -42.377-123.159 -49.653  0.00  0.00     0.019 A 
BRANCH  19  22
ATOM     22  C   UNL d   1     -42.788-123.577 -47.551  0.00  0.00     0.000 C 
ATOM     23  C   UNL d   1     -42.373-123.625 -46.841  0.00  0.00     0.000 C 
ENDBRANCH  19  22
ENDBRANCH  14  16
ENDBRANCH  12  13
ENDBRANCH   2  12
BRANCH   1  24
ATOM     24  S   UNL d   1     -41.455-120.397 -52.487  0.00  0.00     0.214 S 
ATOM     25  O   UNL d   1     -41.135-120.251 -53.231  0.00  0.00    -0.217 OA
ATOM     26  O   UNL d   1     -41.779-120.539 -51.731  0.00  0.00    -0.217 OA
BRANCH  24  27
ATOM     27  C   UNL d   1     -41.372-119.593 -52.298  0.00  0.00     0.088 A 
ATOM     28  C   UNL d   1     -41.439-119.016 -52.887  0.00  0.00     0.014 A 
ATOM     29  C   UNL d   1     -41.357-118.220 -52.696  0.00  0.00     0.030 A 
ATOM     30  C   UNL d   1     -41.206-117.988 -51.918  0.00  0.00     0.140 A 
ATOM     31  C   UNL d   1     -41.139-118.568 -51.328  0.00  0.00     0.030 A 
ATOM     32  F   UNL d   1     -41.123-117.188 -51.728  0.00  0.00    -0.204 F 
ATOM     33  C   UNL d   1     -41.222-119.365 -51.519  0.00  0.00     0.014 A 
ENDBRANCH  24  27
ENDBRANCH   1  24
BRANCH  10  34
ATOM     34  O   UNL d   1     -42.691-123.449 -55.238  0.00  0.00    -0.328 OA
ATOM     35  C   UNL d   1     -42.626-122.928 -55.881  0.00  0.00     0.181 C 
ENDBRANCH  10  34
TORSDOF 7
ENDMDL
MODEL 3
REMARK VINA RESULT:       8.9      2.182      5.416
REMARK  7 active torsions:
REMARK  status: ('A' for Active; 'I' for Inactive)
REMARK    1  A    between atoms: S_2  and  C_1 
REMARK    2  A    between atoms: C_9  and  S_2 
REMARK    3  A    between atoms: C_10  and  N_3 
REMARK    4  A    between atoms: C_8  and  C_10 
REMARK       I    between atoms: N_15  and  C_8 
REMARK    5  A    between atoms: C_20  and  N_15 
REMARK    6  A    between atoms: O_32  and  C_21 
REMARK    7  A    between atoms: C_33  and  C_27 
ROOT
ATOM      1  C   UNL d   1     -41.995-122.183 -50.339  0.00  0.00     0.144 A 
ATOM      2  N   UNL d   1     -41.491-122.350 -51.669  0.00  0.00    -0.299 N 
ATOM      3  C   UNL d   1     -41.950-121.359 -50.432  0.00  0.00     0.209 A 
ATOM      4  C   UNL d   1     -41.765-122.679 -50.957  0.00  0.00     0.095 A 
ATOM      5  C   UNL d   1     -41.677-121.037 -51.140  0.00  0.00     0.058 A 
ATOM      6  C   UNL d   1     -41.448-121.533 -51.758  0.00  0.00     0.068 A 
ATOM      7  C   UNL d   1     -41.175-121.211 -52.465  0.00  0.00     0.020 A 
ATOM      8  C   UNL d   1     -41.634-120.220 -51.228  0.00  0.00     0.029 A 
ATOM      9  O   UNL d   1     -42.181-120.861 -49.811  0.00  0.00    -0.286 OA
ATOM     10  C   UNL d   1     -41.361-119.895 -51.938  0.00  0.00     0.094 A 
ATOM     11  C   UNL d   1     -41.131-120.390 -52.557  0.00  0.00     0.026 A 
ENDROOT
BRANCH   2  12
ATOM     12  C   UNL d   1     -41.261-122.846 -52.287  0.00  0.00     0.144 C 
BRANCH  12  13
ATOM     13  C   UNL d   1     -41.699-122.867 -52.984  0.00  0.00     0.297 C 
ATOM     14  N   UNL d   1     -41.367-122.598 -53.690  0.00  0.00    -0.207 NA
ATOM     15  O   UNL d   1     -42.470-123.156 -52.974  0.00  0.00    -0.264 OA
BRANCH  14  16
ATOM     16  C   UNL d   1     -41.806-122.620 -54.386  0.00  0.00     0.085 A 
ATOM     17  C   UNL d   1     -42.337-122.015 -54.555  0.00  0.00     0.019 A 
ATOM     18  C   UNL d   1     -42.776-122.037 -55.251  0.00  0.00     0.002 A 
ATOM     19  C   UNL d   1     -42.683-122.664 -55.779  0.00  0.00     0.000 A 
ATOM     20  C   UNL d   1     -42.148-123.272 -55.608  0.00  0.00     0.002 A 
ATOM     21  C   UNL d   1     -41.710-123.249 -54.911  0.00  0.00     0.019 A 
BRANCH  19  22
ATOM     22  C   UNL d   1     -43.120-122.693 -56.481  0.00  0.00     0.000 C 
ATOM     23  C   UNL d   1     -43.811-122.248 -56.544  0.00  0.00     0.000 C 
ENDBRANCH  19  22
ENDBRANCH  14  16
ENDBRANCH  12  13
ENDBRANCH   2  12
BRANCH   1  24
ATOM     24  S   UNL d   1     -42.268-122.508 -49.630  0.00  0.00     0.214 S 
ATOM     25  O   UNL d   1     -43.011-122.177 -49.763  0.00  0.00    -0.217 OA
ATOM     26  O   UNL d   1     -41.519-122.844 -49.488  0.00  0.00    -0.217 OA
BRANCH  24  27
ATOM     27  C   UNL d   1     -42.546-122.832 -48.917  0.00  0.00     0.088 A 
ATOM     28  C   UNL d   1     -43.126-123.421 -48.925  0.00  0.00     0.014 A 
ATOM     29  C   UNL d   1     -43.398-123.740 -48.217  0.00  0.00     0.030 A 
ATOM     30  C   UNL d   1     -43.098-123.477 -47.495  0.00  0.00     0.140 A 
ATOM     31  C   UNL d   1     -42.516-122.886 -47.488  0.00  0.00     0.030 A 
ATOM     32  F   UNL d   1     -43.373-123.799 -46.784  0.00  0.00    -0.204 F 
ATOM     33  C   UNL d   1     -42.243-122.567 -48.197  0.00  0.00     0.014 A 
ENDBRANCH  24  27
ENDBRANCH   1  24
BRANCH  10  34
ATOM     34  O   UNL d   1     -41.321-119.070 -52.017  0.00  0.00    -0.328 OA
ATOM     35  C   UNL d   1     -41.281-118.735 -52.776  0.00  0.00     0.181 C 
ENDBRANCH  10  34
TORSDOF 7
ENDMDL
MODEL 4
REMARK VINA RESULT:      10.5      1.758      5.051
REMARK  7 active torsions:
REMARK  status: ('A' for Active; 'I' for Inactive)
REMARK    1  A    between atoms: S_2  and  C_1 
REMARK    2  A    between atoms: C_9  and  S_2 
REMARK    3  A    between atoms: C_10  and  N_3 
REMARK    4  A    between atoms: C_8  and  C_10 
REMARK       I    between atoms: N_15  and  C_8 
REMARK    5  A    between atoms: C_20  and  N_15 
REMARK    6  A    between atoms: O_32  and  C_21 
REMARK    7  A    between atoms: C_33  and  C_27 
ROOT
ATOM      1  C   UNL d   1     -41.219-121.130 -51.506  0.00  0.00     0.144 A 
ATOM      2  N   UNL d   1     -41.245-122.491 -51.949  0.00  0.00    -0.299 N 
ATOM      3  C   UNL d   1     -41.232-121.392 -50.718  0.00  0.00     0.209 A 
ATOM      4  C   UNL d   1     -41.225-121.679 -52.122  0.00  0.00     0.095 A 
ATOM      5  C   UNL d   1     -41.251-122.199 -50.551  0.00  0.00     0.058 A 
ATOM      6  C   UNL d   1     -41.258-122.748 -51.167  0.00  0.00     0.068 A 
ATOM      7  C   UNL d   1     -41.277-123.554 -51.000  0.00  0.00     0.020 A 
ATOM      8  C   UNL d   1     -41.264-122.455 -49.769  0.00  0.00     0.029 A 
ATOM      9  O   UNL d   1     -41.226-120.840 -50.099  0.00  0.00    -0.286 OA
ATOM     10  C   UNL d   1     -41.283-123.265 -49.600  0.00  0.00     0.094 A 
ATOM     11  C   UNL d   1     -41.290-123.814 -50.215  0.00  0.00     0.026 A 
ENDROOT
BRANCH   2  12
ATOM     12  C   UNL d   1     -41.251-123.040 -52.564  0.00  0.00     0.144 C 
BRANCH  12  13
ATOM     13  C   UNL d   1     -41.664-122.879 -53.258  0.00  0.00     0.297 C 
ATOM     14  N   UNL d   1     -41.298-122.980 -53.990  0.00  0.00    -0.207 NA
ATOM     15  O   UNL d   1     -42.444-122.616 -53.218  0.00  0.00    -0.264 OA
BRANCH  14  16
ATOM     16  C   UNL d   1     -41.713-122.818 -54.683  0.00  0.00     0.085 A 
ATOM     17  C   UNL d   1     -42.509-123.017 -54.741  0.00  0.00     0.019 A 
ATOM     18  C   UNL d   1     -42.923-122.855 -55.434  0.00  0.00     0.002 A 
ATOM     19  C   UNL d   1     -42.540-122.494 -56.070  0.00  0.00     0.000 A 
ATOM     20  C   UNL d   1     -41.739-122.295 -56.010  0.00  0.00     0.002 A 
ATOM     21  C   UNL d   1     -41.326-122.457 -55.316  0.00  0.00     0.019 A 
BRANCH  19  22
ATOM     22  C   UNL d   1     -42.949-122.329 -56.769  0.00  0.00     0.000 C 
ATOM     23  C   UNL d   1     -43.106-121.545 -56.969  0.00  0.00     0.000 C 
ENDBRANCH  19  22
ENDBRANCH  14  16
ENDBRANCH  12  13
ENDBRANCH   2  12
BRANCH   1  24
ATOM     24  S   UNL d   1     -41.200-120.321 -51.675  0.00  0.00     0.214 S 
ATOM     25  O   UNL d   1     -41.276-120.485 -52.479  0.00  0.00    -0.217 OA
ATOM     26  O   UNL d   1     -41.123-120.148 -50.863  0.00  0.00    -0.217 OA
BRANCH  24  27
ATOM     27  C   UNL d   1     -41.181-119.509 -51.847  0.00  0.00     0.088 A 
ATOM     28  C   UNL d   1     -41.199-119.247 -52.632  0.00  0.00     0.014 A 
ATOM     29  C   UNL d   1     -41.180-118.442 -52.799  0.00  0.00     0.030 A 
ATOM     30  C   UNL d   1     -41.143-117.888 -52.189  0.00  0.00     0.140 A 
ATOM     31  C   UNL d   1     -41.125-118.150 -51.402  0.00  0.00     0.030 A 
ATOM     32  F   UNL d   1     -41.124-117.078 -52.358  0.00  0.00    -0.204 F 
ATOM     33  C   UNL d   1     -41.144-118.957 -51.235  0.00  0.00     0.014 A 
ENDBRANCH  24  27
ENDBRANCH   1  24
BRANCH  10  34
ATOM     34  O   UNL d   1     -41.296-123.513 -48.808  0.00  0.00    -0.328 OA
ATOM     35  C   UNL d   1     -41.726-123.073 -48.250  0.00  0.00     0.181 C 
ENDBRANCH  10  34
TORSDOF 7
ENDMDL
