MODEL 1
REMARK VINA RESULT:      -5.6      0.000      0.000
REMARK  4 active torsions:
REMARK  status: ('A' for Active; 'I' for Inactive)
REMARK    1  A    between atoms: C_6  and  C_1 
REMARK    2  A    between atoms: C_7  and  N_3 
REMARK    3  A    between atoms: C_9  and  C_6 
REMARK    4  A    between atoms: N_8  and  C_9 
ROOT
ATOM      1  C   UNL d   1     -41.364-122.669 -51.885  0.00  0.00     0.058 A 
ATOM      2  C   UNL d   1     -41.647-122.143 -52.455  0.00  0.00     0.067 A 
ATOM      3  N   UNL d   1     -41.596-122.498 -53.201  0.00  0.00    -0.306 N 
ATOM      4  C   UNL d   1     -41.278-123.247 -53.075  0.00  0.00     0.064 A 
ATOM      5  C   UNL d   1     -41.146-123.333 -52.288  0.00  0.00     0.022 A 
ATOM      6  C   UNL d   1     -41.936-121.380 -52.306  0.00  0.00     0.019 C 
ATOM      7  C   UNL d   1     -41.123-123.817 -53.670  0.00  0.00     0.019 C 
ENDROOT
BRANCH   1   8
ATOM      8  C   UNL d   1     -41.316-122.536 -51.063  0.00  0.00     0.214 C 
ATOM      9  O   UNL d   1     -41.222-121.778 -50.764  0.00  0.00    -0.285 OA
BRANCH   8  10
ATOM     10  C   UNL d   1     -41.364-123.178 -50.547  0.00  0.00     0.123 C 
BRANCH  10  11
ATOM     11  N   UNL d   1     -41.687-123.083 -49.799  0.00  0.00    -0.300 N 
ATOM     12  C   UNL d   1     -42.472-122.910 -49.731  0.00  0.00     0.080 A 
ATOM     13  C   UNL d   1     -42.813-122.812 -48.974  0.00  0.00     0.019 A 
ATOM     14  C   UNL d   1     -42.317-122.899 -48.323  0.00  0.00     0.003 A 
ATOM     15  C   UNL d   1     -41.532-123.072 -48.392  0.00  0.00     0.019 A 
ATOM     16  C   UNL d   1     -41.227-123.163 -49.164  0.00  0.00     0.080 A 
ENDBRANCH  10  11
ENDBRANCH   8  10
ENDBRANCH   1   8
BRANCH   3  17
ATOM     17  C   UNL d   1     -41.787-122.252 -53.942  0.00  0.00     0.064 A 
ATOM     18  C   UNL d   1     -42.586-122.195 -54.158  0.00  0.00     0.020 A 
ATOM     19  C   UNL d   1     -42.786-121.938 -54.932  0.00  0.00     0.031 A 
ATOM     20  C   UNL d   1     -42.202-121.751 -55.451  0.00  0.00     0.140 A 
ATOM     21  C   UNL d   1     -41.425-121.806 -55.239  0.00  0.00     0.031 A 
ATOM     22  F   UNL d   1     -42.396-121.502 -56.200  0.00  0.00    -0.204 F 
ATOM     23  C   UNL d   1     -41.197-122.060 -54.472  0.00  0.00     0.020 A 
ENDBRANCH   3  17
TORSDOF 4
ENDMDL
MODEL 2
REMARK VINA RESULT:      -5.5      2.045      4.916
REMARK  4 active torsions:
REMARK  status: ('A' for Active; 'I' for Inactive)
REMARK    1  A    between atoms: C_6  and  C_1 
REMARK    2  A    between atoms: C_7  and  N_3 
REMARK    3  A    between atoms: C_9  and  C_6 
REMARK    4  A    between atoms: N_8  and  C_9 
ROOT
ATOM      1  C   UNL d   1     -41.380-122.563 -52.082  0.00  0.00     0.058 A 
ATOM      2  C   UNL d   1     -41.644-123.040 -51.462  0.00  0.00     0.067 A 
ATOM      3  N   UNL d   1     -41.585-122.619 -50.752  0.00  0.00    -0.306 N 
ATOM      4  C   UNL d   1     -41.281-121.879 -50.951  0.00  0.00     0.064 A 
ATOM      5  C   UNL d   1     -41.165-121.863 -51.745  0.00  0.00     0.022 A 
ATOM      6  C   UNL d   1     -41.923-123.817 -51.536  0.00  0.00     0.019 C 
ATOM      7  C   UNL d   1     -41.123-121.256 -50.412  0.00  0.00     0.019 C 
ENDROOT
BRANCH   1   8
ATOM      8  C   UNL d   1     -41.345-122.769 -52.890  0.00  0.00     0.214 C 
ATOM      9  O   UNL d   1     -41.456-123.544 -53.132  0.00  0.00    -0.285 OA
BRANCH   8  10
ATOM     10  C   UNL d   1     -41.197-122.181 -53.449  0.00  0.00     0.123 C 
BRANCH  10  11
ATOM     11  N   UNL d   1     -41.547-122.218 -54.190  0.00  0.00    -0.300 N 
ATOM     12  C   UNL d   1     -41.164-122.607 -54.785  0.00  0.00     0.080 A 
ATOM     13  C   UNL d   1     -41.509-122.652 -55.544  0.00  0.00     0.019 A 
ATOM     14  C   UNL d   1     -42.240-122.288 -55.648  0.00  0.00     0.003 A 
ATOM     15  C   UNL d   1     -42.623-121.900 -55.053  0.00  0.00     0.019 A 
ATOM     16  C   UNL d   1     -42.247-121.876 -54.308  0.00  0.00     0.080 A 
ENDBRANCH  10  11
ENDBRANCH   8  10
ENDBRANCH   1   8
BRANCH   3  17
ATOM     17  C   UNL d   1     -41.757-122.801 -49.989  0.00  0.00     0.064 A 
ATOM     18  C   UNL d   1     -42.527-122.676 -49.705  0.00  0.00     0.020 A 
ATOM     19  C   UNL d   1     -42.708-122.865 -48.908  0.00  0.00     0.031 A 
ATOM     20  C   UNL d   1     -42.135-123.164 -48.431  0.00  0.00     0.140 A 
ATOM     21  C   UNL d   1     -41.386-123.286 -48.708  0.00  0.00     0.031 A 
ATOM     22  F   UNL d   1     -42.310-123.348 -47.659  0.00  0.00    -0.204 F 
ATOM     23  C   UNL d   1     -41.177-123.105 -49.501  0.00  0.00     0.020 A 
ENDBRANCH   3  17
TORSDOF 4
ENDMDL
