MODEL 1
REMARK VINA RESULT:      -7.9      0.000      0.000
REMARK  5 active torsions:
REMARK  status: ('A' for Active; 'I' for Inactive)
REMARK    1  A    between atoms: C_7  and  C_1 
REMARK    2  A    between atoms: C_13  and  C_2 
REMARK    3  A    between atoms: C_12  and  N_3 
REMARK    4  A    between atoms: C_4  and  C_7 
REMARK    5  A    between atoms: O_17  and  C_13 
ROOT
ATOM      1  N   UNL d   1      50.934  34.048  52.700  0.00  0.00    -0.305 N 
ATOM      2  C   UNL d   1      52.193  33.899  53.115  0.00  0.00     0.018 A 
ATOM      3  C   UNL d   1      50.928  33.543  53.344  0.00  0.00     0.064 A 
ATOM      4  C   UNL d   1      51.714  34.273  52.551  0.00  0.00     0.064 A 
ATOM      5  C   UNL d   1      51.716  33.449  53.604  0.00  0.00     0.019 A 
ATOM      6  C   UNL d   1      50.266  33.188  53.679  0.00  0.00     0.019 C 
ATOM      7  C   UNL d   1      51.973  34.779  51.951  0.00  0.00     0.019 C 
ENDROOT
BRANCH   2   8
ATOM      8  C   UNL d   1      53.016  33.966  53.177  0.00  0.00     0.006 C 
BRANCH   8   9
ATOM      9  C   UNL d   1      53.376  33.972  53.913  0.00  0.00     0.065 A 
ATOM     10  C   UNL d   1      53.882  33.390  54.207  0.00  0.00     0.086 A 
ATOM     11  C   UNL d   1      54.118  33.616  54.970  0.00  0.00     0.090 A 
ATOM     12  C   UNL d   1      54.621  33.195  55.459  0.00  0.00     0.021 C 
ATOM     13  N   UNL d   1      53.758  34.336  55.147  0.00  0.00    -0.208 NA
ATOM     14  C   UNL d   1      53.296  34.560  54.493  0.00  0.00     0.279 A 
ATOM     15  O   UNL d   1      52.842  35.238  54.426  0.00  0.00    -0.265 OA
BRANCH  10  16
ATOM     16  C   UNL d   1      54.115  32.704  53.815  0.00  0.00     0.297 C 
ATOM     17  O   UNL d   1      54.673  32.738  53.201  0.00  0.00    -0.259 OA
BRANCH  16  18
ATOM     18  O   UNL d   1      53.797  31.968  54.025  0.00  0.00    -0.296 OA
ATOM     19  C   UNL d   1      54.036  31.280  53.638  0.00  0.00     0.185 C 
ENDBRANCH  16  18
ENDBRANCH  10  16
ENDBRANCH   8   9
ENDBRANCH   2   8
BRANCH   1  20
ATOM     20  C   UNL d   1      50.267  34.287  52.275  0.00  0.00     0.092 A 
ATOM     21  C   UNL d   1      49.770  34.849  52.581  0.00  0.00     0.156 A 
ATOM     22  F   UNL d   1      49.927  35.187  53.316  0.00  0.00    -0.203 F 
ATOM     23  C   UNL d   1      49.095  35.093  52.156  0.00  0.00     0.031 A 
ATOM     24  C   UNL d   1      48.944  34.747  51.413  0.00  0.00     0.002 A 
ATOM     25  C   UNL d   1      49.455  34.174  51.109  0.00  0.00     0.002 A 
ATOM     26  C   UNL d   1      50.117  33.944  51.541  0.00  0.00     0.020 A 
ENDBRANCH   1  20
TORSDOF 5
ENDMDL
MODEL 2
REMARK VINA RESULT:      -7.6      1.846      4.636
REMARK  5 active torsions:
REMARK  status: ('A' for Active; 'I' for Inactive)
REMARK    1  A    between atoms: C_7  and  C_1 
REMARK    2  A    between atoms: C_13  and  C_2 
REMARK    3  A    between atoms: C_12  and  N_3 
REMARK    4  A    between atoms: C_4  and  C_7 
REMARK    5  A    between atoms: O_17  and  C_13 
ROOT
ATOM      1  N   UNL d   1      52.713  33.516  53.686  0.00  0.00    -0.305 N 
ATOM      2  C   UNL d   1      51.664  34.140  53.146  0.00  0.00     0.018 A 
ATOM      3  C   UNL d   1      52.201  32.945  53.399  0.00  0.00     0.064 A 
ATOM      4  C   UNL d   1      52.388  34.260  53.533  0.00  0.00     0.064 A 
ATOM      5  C   UNL d   1      51.544  33.335  53.061  0.00  0.00     0.019 A 
ATOM      6  C   UNL d   1      52.310  32.131  53.435  0.00  0.00     0.019 C 
ATOM      7  C   UNL d   1      52.720  34.991  53.728  0.00  0.00     0.019 C 
ENDROOT
BRANCH   2   8
ATOM      8  C   UNL d   1      51.146  34.732  52.887  0.00  0.00     0.006 C 
BRANCH   8   9
ATOM      9  C   UNL d   1      50.620  34.582  52.277  0.00  0.00     0.065 A 
ATOM     10  C   UNL d   1      49.800  34.661  52.317  0.00  0.00     0.086 A 
ATOM     11  C   UNL d   1      49.485  34.454  51.578  0.00  0.00     0.090 A 
ATOM     12  C   UNL d   1      48.691  34.455  51.379  0.00  0.00     0.021 C 
ATOM     13  N   UNL d   1      50.110  34.247  51.081  0.00  0.00    -0.208 NA
ATOM     14  C   UNL d   1      50.816  34.326  51.512  0.00  0.00     0.279 A 
ATOM     15  O   UNL d   1      51.573  34.178  51.238  0.00  0.00    -0.265 OA
BRANCH  10  16
ATOM     16  C   UNL d   1      49.365  34.903  52.975  0.00  0.00     0.297 C 
ATOM     17  O   UNL d   1      49.114  34.350  53.541  0.00  0.00    -0.259 OA
BRANCH  16  18
ATOM     18  O   UNL d   1      49.172  35.701  53.083  0.00  0.00    -0.296 OA
ATOM     19  C   UNL d   1      48.603  35.925  53.636  0.00  0.00     0.185 C 
ENDBRANCH  16  18
ENDBRANCH  10  16
ENDBRANCH   8   9
ENDBRANCH   2   8
BRANCH   1  20
ATOM     20  C   UNL d   1      53.432  33.365  54.063  0.00  0.00     0.092 A 
ATOM     21  C   UNL d   1      54.101  33.230  53.625  0.00  0.00     0.156 A 
ATOM     22  F   UNL d   1      54.067  33.242  52.802  0.00  0.00    -0.203 F 
ATOM     23  C   UNL d   1      54.829  33.077  54.002  0.00  0.00     0.031 A 
ATOM     24  C   UNL d   1      54.853  33.067  54.834  0.00  0.00     0.002 A 
ATOM     25  C   UNL d   1      54.167  33.206  55.273  0.00  0.00     0.002 A 
ATOM     26  C   UNL d   1      53.457  33.355  54.886  0.00  0.00     0.020 A 
ENDBRANCH   1  20
TORSDOF 5
ENDMDL
MODEL 3
REMARK VINA RESULT:      -7.4      2.349      3.767
REMARK  5 active torsions:
REMARK  status: ('A' for Active; 'I' for Inactive)
REMARK    1  A    between atoms: C_7  and  C_1 
REMARK    2  A    between atoms: C_13  and  C_2 
REMARK    3  A    between atoms: C_12  and  N_3 
REMARK    4  A    between atoms: C_4  and  C_7 
REMARK    5  A    between atoms: O_17  and  C_13 
ROOT
ATOM      1  N   UNL d   1      52.881  31.500  53.376  0.00  0.00    -0.305 N 
ATOM      2  C   UNL d   1      53.180  32.800  53.360  0.00  0.00     0.018 A 
ATOM      3  C   UNL d   1      52.178  31.919  53.376  0.00  0.00     0.064 A 
ATOM      4  C   UNL d   1      53.507  32.038  53.366  0.00  0.00     0.064 A 
ATOM      5  C   UNL d   1      52.365  32.733  53.366  0.00  0.00     0.019 A 
ATOM      6  C   UNL d   1      51.420  31.601  53.385  0.00  0.00     0.019 C 
ATOM      7  C   UNL d   1      54.313  31.854  53.363  0.00  0.00     0.019 C 
ENDROOT
BRANCH   2   8
ATOM      8  C   UNL d   1      53.604  33.511  53.350  0.00  0.00     0.006 C 
BRANCH   8   9
ATOM      9  C   UNL d   1      53.238  34.213  53.563  0.00  0.00     0.065 A 
ATOM     10  C   UNL d   1      53.352  34.621  54.270  0.00  0.00     0.086 A 
ATOM     11  C   UNL d   1      52.874  35.300  54.256  0.00  0.00     0.090 A 
ATOM     12  C   UNL d   1      52.821  35.859  54.851  0.00  0.00     0.021 C 
ATOM     13  N   UNL d   1      52.465  35.310  53.540  0.00  0.00    -0.208 NA
ATOM     14  C   UNL d   1      52.688  34.636  53.107  0.00  0.00     0.279 A 
ATOM     15  O   UNL d   1      52.418  34.423  52.365  0.00  0.00    -0.265 OA
BRANCH  10  16
ATOM     16  C   UNL d   1      53.853  34.398  54.886  0.00  0.00     0.297 C 
ATOM     17  O   UNL d   1      53.545  34.053  55.576  0.00  0.00    -0.259 OA
BRANCH  16  18
ATOM     18  O   UNL d   1      54.672  34.514  54.828  0.00  0.00    -0.296 OA
ATOM     19  C   UNL d   1      55.173  34.289  55.443  0.00  0.00     0.185 C 
ENDBRANCH  16  18
ENDBRANCH  10  16
ENDBRANCH   8   9
ENDBRANCH   2   8
BRANCH   1  20
ATOM     20  C   UNL d   1      52.944  30.676  53.385  0.00  0.00     0.092 A 
ATOM     21  C   UNL d   1      52.888  30.256  52.694  0.00  0.00     0.156 A 
ATOM     22  F   UNL d   1      52.768  30.648  51.979  0.00  0.00    -0.203 F 
ATOM     23  C   UNL d   1      52.951  29.425  52.698  0.00  0.00     0.031 A 
ATOM     24  C   UNL d   1      53.072  29.037  53.425  0.00  0.00     0.002 A 
ATOM     25  C   UNL d   1      53.129  29.473  54.125  0.00  0.00     0.002 A 
ATOM     26  C   UNL d   1      53.064  30.292  54.104  0.00  0.00     0.020 A 
ENDBRANCH   1  20
TORSDOF 5
ENDMDL
MODEL 4
REMARK VINA RESULT:      -7.0      0.773      1.560
REMARK  5 active torsions:
REMARK  status: ('A' for Active; 'I' for Inactive)
REMARK    1  A    between atoms: C_7  and  C_1 
REMARK    2  A    between atoms: C_13  and  C_2 
REMARK    3  A    between atoms: C_12  and  N_3 
REMARK    4  A    between atoms: C_4  and  C_7 
REMARK    5  A    between atoms: O_17  and  C_13 
ROOT
ATOM      1  N   UNL d   1      50.876  33.954  52.613  0.00  0.00    -0.305 N 
ATOM      2  C   UNL d   1      52.139  33.755  52.995  0.00  0.00     0.018 A 
ATOM      3  C   UNL d   1      50.881  33.341  53.156  0.00  0.00     0.064 A 
ATOM      4  C   UNL d   1      51.652  34.217  52.508  0.00  0.00     0.064 A 
ATOM      5  C   UNL d   1      51.671  33.216  53.395  0.00  0.00     0.019 A 
ATOM      6  C   UNL d   1      50.227  32.920  53.422  0.00  0.00     0.019 C 
ATOM      7  C   UNL d   1      51.900  34.827  52.009  0.00  0.00     0.019 C 
ENDROOT
BRANCH   2   8
ATOM      8  C   UNL d   1      52.961  33.824  53.067  0.00  0.00     0.006 C 
BRANCH   8   9
ATOM      9  C   UNL d   1      53.373  33.333  53.577  0.00  0.00     0.065 A 
ATOM     10  C   UNL d   1      53.735  33.563  54.282  0.00  0.00     0.086 A 
ATOM     11  C   UNL d   1      54.087  32.893  54.621  0.00  0.00     0.090 A 
ATOM     12  C   UNL d   1      54.505  32.878  55.325  0.00  0.00     0.021 C 
ATOM     13  N   UNL d   1      53.944  32.249  54.127  0.00  0.00    -0.208 NA
ATOM     14  C   UNL d   1      53.500  32.519  53.477  0.00  0.00     0.279 A 
ATOM     15  O   UNL d   1      53.234  32.068  52.849  0.00  0.00    -0.265 OA
BRANCH  10  16
ATOM     16  C   UNL d   1      53.746  34.325  54.597  0.00  0.00     0.297 C 
ATOM     17  O   UNL d   1      54.252  34.904  54.284  0.00  0.00    -0.259 OA
BRANCH  16  18
ATOM     18  O   UNL d   1      53.253  34.527  55.232  0.00  0.00    -0.296 OA
ATOM     19  C   UNL d   1      53.263  35.289  55.546  0.00  0.00     0.185 C 
ENDBRANCH  16  18
ENDBRANCH  10  16
ENDBRANCH   8   9
ENDBRANCH   2   8
BRANCH   1  20
ATOM     20  C   UNL d   1      50.203  34.254  52.239  0.00  0.00     0.092 A 
ATOM     21  C   UNL d   1      49.737  34.800  52.615  0.00  0.00     0.156 A 
ATOM     22  F   UNL d   1      49.932  35.059  53.373  0.00  0.00    -0.203 F 
ATOM     23  C   UNL d   1      49.058  35.105  52.242  0.00  0.00     0.031 A 
ATOM     24  C   UNL d   1      48.868  34.837  51.476  0.00  0.00     0.002 A 
ATOM     25  C   UNL d   1      49.349  34.280  51.099  0.00  0.00     0.002 A 
ATOM     26  C   UNL d   1      50.016  33.989  51.482  0.00  0.00     0.020 A 
ENDBRANCH   1  20
TORSDOF 5
ENDMDL
MODEL 5
REMARK VINA RESULT:      -6.7      2.109      3.791
REMARK  5 active torsions:
REMARK  status: ('A' for Active; 'I' for Inactive)
REMARK    1  A    between atoms: C_7  and  C_1 
REMARK    2  A    between atoms: C_13  and  C_2 
REMARK    3  A    between atoms: C_12  and  N_3 
REMARK    4  A    between atoms: C_4  and  C_7 
REMARK    5  A    between atoms: O_17  and  C_13 
ROOT
ATOM      1  N   UNL d   1      52.901  33.320  54.001  0.00  0.00    -0.305 N 
ATOM      2  C   UNL d   1      53.114  32.015  53.824  0.00  0.00     0.018 A 
ATOM      3  C   UNL d   1      52.210  32.989  53.714  0.00  0.00     0.064 A 
ATOM      4  C   UNL d   1      53.467  32.723  54.072  0.00  0.00     0.064 A 
ATOM      5  C   UNL d   1      52.342  32.172  53.603  0.00  0.00     0.019 A 
ATOM      6  C   UNL d   1      51.506  33.386  53.560  0.00  0.00     0.019 C 
ATOM      7  C   UNL d   1      54.243  32.812  54.341  0.00  0.00     0.019 C 
ENDROOT
BRANCH   2   8
ATOM      8  C   UNL d   1      53.478  31.271  53.802  0.00  0.00     0.006 C 
BRANCH   8   9
ATOM      9  C   UNL d   1      53.193  30.687  53.302  0.00  0.00     0.065 A 
ATOM     10  C   UNL d   1      52.948  29.934  53.532  0.00  0.00     0.086 A 
ATOM     11  C   UNL d   1      52.703  29.525  52.852  0.00  0.00     0.090 A 
ATOM     12  C   UNL d   1      52.419  28.758  52.833  0.00  0.00     0.021 C 
ATOM     13  N   UNL d   1      52.796  30.026  52.204  0.00  0.00    -0.208 NA
ATOM     14  C   UNL d   1      53.101  30.749  52.480  0.00  0.00     0.279 A 
ATOM     15  O   UNL d   1      53.279  31.407  52.027  0.00  0.00    -0.265 OA
BRANCH  10  16
ATOM     16  C   UNL d   1      52.946  29.635  54.300  0.00  0.00     0.297 C 
ATOM     17  O   UNL d   1      52.256  29.663  54.761  0.00  0.00    -0.259 OA
BRANCH  16  18
ATOM     18  O   UNL d   1      53.631  29.302  54.626  0.00  0.00    -0.296 OA
ATOM     19  C   UNL d   1      53.587  28.813  55.288  0.00  0.00     0.185 C 
ENDBRANCH  16  18
ENDBRANCH  10  16
ENDBRANCH   8   9
ENDBRANCH   2   8
BRANCH   1  20
ATOM     20  C   UNL d   1      53.007  34.118  54.185  0.00  0.00     0.092 A 
ATOM     21  C   UNL d   1      53.138  34.658  53.596  0.00  0.00     0.156 A 
ATOM     22  F   UNL d   1      53.166  34.415  52.809  0.00  0.00    -0.203 F 
ATOM     23  C   UNL d   1      53.244  35.465  53.778  0.00  0.00     0.031 A 
ATOM     24  C   UNL d   1      53.214  35.702  54.576  0.00  0.00     0.002 A 
ATOM     25  C   UNL d   1      53.080  35.145  55.170  0.00  0.00     0.002 A 
ATOM     26  C   UNL d   1      52.976  34.353  54.975  0.00  0.00     0.020 A 
ENDBRANCH   1  20
TORSDOF 5
ENDMDL
MODEL 6
REMARK VINA RESULT:      -6.6      1.843      3.903
REMARK  5 active torsions:
REMARK  status: ('A' for Active; 'I' for Inactive)
REMARK    1  A    between atoms: C_7  and  C_1 
REMARK    2  A    between atoms: C_13  and  C_2 
REMARK    3  A    between atoms: C_12  and  N_3 
REMARK    4  A    between atoms: C_4  and  C_7 
REMARK    5  A    between atoms: O_17  and  C_13 
ROOT
ATOM      1  N   UNL d   1      53.414  31.427  53.888  0.00  0.00    -0.305 N 
ATOM      2  C   UNL d   1      53.616  32.744  53.813  0.00  0.00     0.018 A 
ATOM      3  C   UNL d   1      53.533  31.706  54.648  0.00  0.00     0.064 A 
ATOM      4  C   UNL d   1      53.463  32.063  53.364  0.00  0.00     0.064 A 
ATOM      5  C   UNL d   1      53.660  32.531  54.601  0.00  0.00     0.019 A 
ATOM      6  C   UNL d   1      53.530  31.260  55.338  0.00  0.00     0.019 C 
ATOM      7  C   UNL d   1      53.377  32.031  52.543  0.00  0.00     0.019 C 
ENDROOT
BRANCH   2   8
ATOM      8  C   UNL d   1      53.708  33.511  53.517  0.00  0.00     0.006 C 
BRANCH   8   9
ATOM      9  C   UNL d   1      53.577  34.159  54.001  0.00  0.00     0.065 A 
ATOM     10  C   UNL d   1      52.953  34.695  53.931  0.00  0.00     0.086 A 
ATOM     11  C   UNL d   1      53.032  35.261  54.532  0.00  0.00     0.090 A 
ATOM     12  C   UNL d   1      52.528  35.893  54.662  0.00  0.00     0.021 C 
ATOM     13  N   UNL d   1      53.703  35.076  54.974  0.00  0.00    -0.208 NA
ATOM     14  C   UNL d   1      54.044  34.392  54.646  0.00  0.00     0.279 A 
ATOM     15  O   UNL d   1      54.719  34.011  54.908  0.00  0.00    -0.265 OA
BRANCH  10  16
ATOM     16  C   UNL d   1      52.355  34.674  53.365  0.00  0.00     0.297 C 
ATOM     17  O   UNL d   1      52.511  34.889  52.578  0.00  0.00    -0.259 OA
BRANCH  16  18
ATOM     18  O   UNL d   1      51.587  34.438  53.569  0.00  0.00    -0.296 OA
ATOM     19  C   UNL d   1      50.974  34.478  53.019  0.00  0.00     0.185 C 
ENDBRANCH  16  18
ENDBRANCH  10  16
ENDBRANCH   8   9
ENDBRANCH   2   8
BRANCH   1  20
ATOM     20  C   UNL d   1      53.269  30.639  53.687  0.00  0.00     0.092 A 
ATOM     21  C   UNL d   1      52.524  30.404  53.471  0.00  0.00     0.156 A 
ATOM     22  F   UNL d   1      51.907  30.950  53.449  0.00  0.00    -0.203 F 
ATOM     23  C   UNL d   1      52.373  29.610  53.268  0.00  0.00     0.031 A 
ATOM     24  C   UNL d   1      53.003  29.064  53.293  0.00  0.00     0.002 A 
ATOM     25  C   UNL d   1      53.759  29.312  53.515  0.00  0.00     0.002 A 
ATOM     26  C   UNL d   1      53.891  30.099  53.712  0.00  0.00     0.020 A 
ENDBRANCH   1  20
TORSDOF 5
ENDMDL
