MODEL 1
REMARK VINA RESULT:      -8.5      0.000      0.000
REMARK  6 active torsions:
REMARK  status: ('A' for Active; 'I' for Inactive)
REMARK       I    between atoms: N_2  and  C_1 
REMARK    1  A    between atoms: C_5  and  C_1 
REMARK    2  A    between atoms: C_3  and  N_2 
REMARK    3  A    between atoms: O_16  and  C_6 
REMARK    4  A    between atoms: O_17  and  C_11 
REMARK    5  A    between atoms: O_18  and  C_12 
REMARK    6  A    between atoms: C_19  and  O_18 
ROOT
ATOM      1  C   UNL d   1      51.949  33.936  52.962  0.00  0.00     0.279 C 
ATOM      2  N   UNL d   1      52.068  33.180  53.278  0.00  0.00    -0.206 NA
ATOM      3  O   UNL d   1      52.563  34.477  52.946  0.00  0.00    -0.265 OA
ENDROOT
BRANCH   1   4
ATOM      4  C   UNL d   1      51.189  34.148  52.657  0.00  0.00     0.058 A 
ATOM      5  C   UNL d   1      50.585  34.351  53.180  0.00  0.00     0.007 A 
ATOM      6  C   UNL d   1      49.853  34.555  52.886  0.00  0.00     0.025 A 
ATOM      7  C   UNL d   1      49.721  34.558  52.066  0.00  0.00     0.100 A 
ATOM      8  C   UNL d   1      50.331  34.354  51.557  0.00  0.00     0.025 A 
ATOM      9  C   UNL d   1      51.063  34.150  51.851  0.00  0.00     0.007 A 
BRANCH   7  10
ATOM     10  O   UNL d   1      48.965  34.768  51.762  0.00  0.00    -0.305 OA
BRANCH  10  11
ATOM     11  C   UNL d   1      48.784  34.600  50.975  0.00  0.00     0.123 C 
ATOM     12  C   UNL d   1      48.048  34.821  50.673  0.00  0.00     0.029 C 
ENDBRANCH  10  11
ENDBRANCH   7  10
ENDBRANCH   1   4
BRANCH   2  13
ATOM     13  C   UNL d   1      52.800  32.976  53.572  0.00  0.00     0.109 A 
ATOM     14  C   UNL d   1      53.174  33.485  54.099  0.00  0.00     0.045 A 
ATOM     15  C   UNL d   1      53.907  33.285  54.396  0.00  0.00     0.096 A 
ATOM     16  C   UNL d   1      54.284  32.576  54.177  0.00  0.00     0.026 A 
ATOM     17  C   UNL d   1      53.910  32.081  53.658  0.00  0.00     0.028 A 
ATOM     18  C   UNL d   1      53.163  32.267  53.344  0.00  0.00     0.112 A 
BRANCH  15  19
ATOM     19  O   UNL d   1      54.268  33.810  54.926  0.00  0.00    -0.328 OA
ATOM     20  C   UNL d   1      55.040  33.658  55.189  0.00  0.00     0.181 C 
ENDBRANCH  15  19
BRANCH  18  21
ATOM     21  O   UNL d   1      52.798  31.756  52.821  0.00  0.00    -0.327 OA
ATOM     22  C   UNL d   1      52.953  30.941  52.869  0.00  0.00     0.181 C 
ENDBRANCH  18  21
ENDBRANCH   2  13
TORSDOF 6
ENDMDL
MODEL 2
REMARK VINA RESULT:      -8.0      1.540      4.785
REMARK  6 active torsions:
REMARK  status: ('A' for Active; 'I' for Inactive)
REMARK       I    between atoms: N_2  and  C_1 
REMARK    1  A    between atoms: C_5  and  C_1 
REMARK    2  A    between atoms: C_3  and  N_2 
REMARK    3  A    between atoms: O_16  and  C_6 
REMARK    4  A    between atoms: O_17  and  C_11 
REMARK    5  A    between atoms: O_18  and  C_12 
REMARK    6  A    between atoms: C_19  and  O_18 
ROOT
ATOM      1  C   UNL d   1      52.627  32.054  53.051  0.00  0.00     0.279 C 
ATOM      2  N   UNL d   1      52.394  32.609  53.620  0.00  0.00    -0.206 NA
ATOM      3  O   UNL d   1      52.645  32.258  52.259  0.00  0.00    -0.265 OA
ENDROOT
BRANCH   1   4
ATOM      4  C   UNL d   1      52.845  31.273  53.293  0.00  0.00     0.058 A 
ATOM      5  C   UNL d   1      53.619  31.128  53.542  0.00  0.00     0.007 A 
ATOM      6  C   UNL d   1      53.829  30.376  53.775  0.00  0.00     0.025 A 
ATOM      7  C   UNL d   1      53.268  29.764  53.760  0.00  0.00     0.100 A 
ATOM      8  C   UNL d   1      52.503  29.922  53.509  0.00  0.00     0.025 A 
ATOM      9  C   UNL d   1      52.292  30.674  53.277  0.00  0.00     0.007 A 
BRANCH   7  10
ATOM     10  O   UNL d   1      53.486  28.988  54.000  0.00  0.00    -0.305 OA
BRANCH  10  11
ATOM     11  C   UNL d   1      53.318  28.740  54.769  0.00  0.00     0.123 C 
ATOM     12  C   UNL d   1      53.648  28.037  55.049  0.00  0.00     0.029 C 
ENDBRANCH  10  11
ENDBRANCH   7  10
ENDBRANCH   1   4
BRANCH   2  13
ATOM     13  C   UNL d   1      52.183  33.361  53.387  0.00  0.00     0.109 A 
ATOM     14  C   UNL d   1      51.605  33.453  52.810  0.00  0.00     0.045 A 
ATOM     15  C   UNL d   1      51.390  34.203  52.574  0.00  0.00     0.096 A 
ATOM     16  C   UNL d   1      51.745  34.878  52.905  0.00  0.00     0.026 A 
ATOM     17  C   UNL d   1      52.313  34.781  53.472  0.00  0.00     0.028 A 
ATOM     18  C   UNL d   1      52.546  34.024  53.726  0.00  0.00     0.112 A 
BRANCH  15  19
ATOM     19  O   UNL d   1      50.805  34.274  51.991  0.00  0.00    -0.328 OA
ATOM     20  C   UNL d   1      50.040  34.512  52.208  0.00  0.00     0.181 C 
ENDBRANCH  15  19
BRANCH  18  21
ATOM     21  O   UNL d   1      53.122  33.941  54.300  0.00  0.00    -0.327 OA
ATOM     22  C   UNL d   1      53.315  34.590  54.783  0.00  0.00     0.181 C 
ENDBRANCH  18  21
ENDBRANCH   2  13
TORSDOF 6
ENDMDL
MODEL 3
REMARK VINA RESULT:      -7.5      0.743      1.834
REMARK  6 active torsions:
REMARK  status: ('A' for Active; 'I' for Inactive)
REMARK       I    between atoms: N_2  and  C_1 
REMARK    1  A    between atoms: C_5  and  C_1 
REMARK    2  A    between atoms: C_3  and  N_2 
REMARK    3  A    between atoms: O_16  and  C_6 
REMARK    4  A    between atoms: O_17  and  C_11 
REMARK    5  A    between atoms: O_18  and  C_12 
REMARK    6  A    between atoms: C_19  and  O_18 
ROOT
ATOM      1  C   UNL d   1      51.898  33.284  52.786  0.00  0.00     0.279 C 
ATOM      2  N   UNL d   1      52.188  33.250  53.560  0.00  0.00    -0.206 NA
ATOM      3  O   UNL d   1      52.286  32.890  52.183  0.00  0.00    -0.265 OA
ENDROOT
BRANCH   1   4
ATOM      4  C   UNL d   1      51.197  33.729  52.620  0.00  0.00     0.058 A 
ATOM      5  C   UNL d   1      51.105  34.076  51.877  0.00  0.00     0.007 A 
ATOM      6  C   UNL d   1      50.430  34.504  51.717  0.00  0.00     0.025 A 
ATOM      7  C   UNL d   1      49.844  34.588  52.299  0.00  0.00     0.100 A 
ATOM      8  C   UNL d   1      49.949  34.237  53.034  0.00  0.00     0.025 A 
ATOM      9  C   UNL d   1      50.623  33.809  53.194  0.00  0.00     0.007 A 
BRANCH   7  10
ATOM     10  O   UNL d   1      49.148  35.030  52.134  0.00  0.00    -0.305 OA
BRANCH  10  11
ATOM     11  C   UNL d   1      48.676  34.817  51.491  0.00  0.00     0.123 C 
ATOM     12  C   UNL d   1      47.950  35.194  51.379  0.00  0.00     0.029 C 
ENDBRANCH  10  11
ENDBRANCH   7  10
ENDBRANCH   1   4
BRANCH   2  13
ATOM     13  C   UNL d   1      52.863  32.822  53.720  0.00  0.00     0.109 A 
ATOM     14  C   UNL d   1      52.925  32.054  53.433  0.00  0.00     0.045 A 
ATOM     15  C   UNL d   1      53.598  31.622  53.590  0.00  0.00     0.096 A 
ATOM     16  C   UNL d   1      54.223  31.942  54.036  0.00  0.00     0.026 A 
ATOM     17  C   UNL d   1      54.155  32.697  54.316  0.00  0.00     0.028 A 
ATOM     18  C   UNL d   1      53.477  33.154  54.166  0.00  0.00     0.112 A 
BRANCH  15  19
ATOM     19  O   UNL d   1      53.643  30.850  53.292  0.00  0.00    -0.328 OA
ATOM     20  C   UNL d   1      53.586  30.206  53.813  0.00  0.00     0.181 C 
ENDBRANCH  15  19
BRANCH  18  21
ATOM     21  O   UNL d   1      53.422  33.917  54.455  0.00  0.00    -0.327 OA
ATOM     22  C   UNL d   1      53.985  34.188  55.003  0.00  0.00     0.181 C 
ENDBRANCH  18  21
ENDBRANCH   2  13
TORSDOF 6
ENDMDL
MODEL 4
REMARK VINA RESULT:      -6.8      1.544      5.411
REMARK  6 active torsions:
REMARK  status: ('A' for Active; 'I' for Inactive)
REMARK       I    between atoms: N_2  and  C_1 
REMARK    1  A    between atoms: C_5  and  C_1 
REMARK    2  A    between atoms: C_3  and  N_2 
REMARK    3  A    between atoms: O_16  and  C_6 
REMARK    4  A    between atoms: O_17  and  C_11 
REMARK    5  A    between atoms: O_18  and  C_12 
REMARK    6  A    between atoms: C_19  and  O_18 
ROOT
ATOM      1  C   UNL d   1      50.003  34.540  52.432  0.00  0.00     0.279 C 
ATOM      2  N   UNL d   1      49.452  34.892  52.939  0.00  0.00    -0.206 NA
ATOM      3  O   UNL d   1      49.866  34.517  51.626  0.00  0.00    -0.265 OA
ENDROOT
BRANCH   1   4
ATOM      4  C   UNL d   1      50.711  34.203  52.751  0.00  0.00     0.058 A 
ATOM      5  C   UNL d   1      50.669  33.490  53.165  0.00  0.00     0.007 A 
ATOM      6  C   UNL d   1      51.350  33.166  53.473  0.00  0.00     0.025 A 
ATOM      7  C   UNL d   1      52.078  33.552  53.368  0.00  0.00     0.100 A 
ATOM      8  C   UNL d   1      52.105  34.260  52.954  0.00  0.00     0.025 A 
ATOM      9  C   UNL d   1      51.424  34.584  52.647  0.00  0.00     0.007 A 
BRANCH   7  10
ATOM     10  O   UNL d   1      52.781  33.217  53.685  0.00  0.00    -0.305 OA
BRANCH  10  11
ATOM     11  C   UNL d   1      53.165  32.615  53.271  0.00  0.00     0.123 C 
ATOM     12  C   UNL d   1      53.830  32.255  53.604  0.00  0.00     0.029 C 
ENDBRANCH  10  11
ENDBRANCH   7  10
ENDBRANCH   1   4
BRANCH   2  13
ATOM     13  C   UNL d   1      48.770  35.217  52.632  0.00  0.00     0.109 A 
ATOM     14  C   UNL d   1      48.467  34.916  51.929  0.00  0.00     0.045 A 
ATOM     15  C   UNL d   1      47.786  35.237  51.618  0.00  0.00     0.096 A 
ATOM     16  C   UNL d   1      47.391  35.864  51.997  0.00  0.00     0.026 A 
ATOM     17  C   UNL d   1      47.695  36.154  52.687  0.00  0.00     0.028 A 
ATOM     18  C   UNL d   1      48.389  35.840  53.021  0.00  0.00     0.112 A 
BRANCH  15  19
ATOM     19  O   UNL d   1      47.495  34.921  50.909  0.00  0.00    -0.328 OA
ATOM     20  C   UNL d   1      46.719  35.095  50.672  0.00  0.00     0.181 C 
ENDBRANCH  15  19
BRANCH  18  21
ATOM     21  O   UNL d   1      48.684  36.145  53.720  0.00  0.00    -0.327 OA
ATOM     22  C   UNL d   1      48.190  36.602  54.208  0.00  0.00     0.181 C 
ENDBRANCH  18  21
ENDBRANCH   2  13
TORSDOF 6
ENDMDL
MODEL 5
REMARK VINA RESULT:      -5.8      9.417     10.465
REMARK  6 active torsions:
REMARK  status: ('A' for Active; 'I' for Inactive)
REMARK       I    between atoms: N_2  and  C_1 
REMARK    1  A    between atoms: C_5  and  C_1 
REMARK    2  A    between atoms: C_3  and  N_2 
REMARK    3  A    between atoms: O_16  and  C_6 
REMARK    4  A    between atoms: O_17  and  C_11 
REMARK    5  A    between atoms: O_18  and  C_12 
REMARK    6  A    between atoms: C_19  and  O_18 
ROOT
ATOM      1  C   UNL d   1      44.772  28.525  58.007  0.00  0.00     0.279 C 
ATOM      2  N   UNL d   1      45.128  29.248  57.817  0.00  0.00    -0.206 NA
ATOM      3  O   UNL d   1      44.317  28.456  58.683  0.00  0.00    -0.265 OA
ENDROOT
BRANCH   1   4
ATOM      4  C   UNL d   1      44.881  27.858  57.499  0.00  0.00     0.058 A 
ATOM      5  C   UNL d   1      45.562  27.397  57.576  0.00  0.00     0.007 A 
ATOM      6  C   UNL d   1      45.667  26.754  57.086  0.00  0.00     0.025 A 
ATOM      7  C   UNL d   1      45.092  26.568  56.517  0.00  0.00     0.100 A 
ATOM      8  C   UNL d   1      44.420  27.035  56.450  0.00  0.00     0.025 A 
ATOM      9  C   UNL d   1      44.315  27.678  56.940  0.00  0.00     0.007 A 
BRANCH   7  10
ATOM     10  O   UNL d   1      45.201  25.904  56.011  0.00  0.00    -0.305 OA
BRANCH  10  11
ATOM     11  C   UNL d   1      44.926  25.164  56.251  0.00  0.00     0.123 C 
ATOM     12  C   UNL d   1      44.998  24.520  55.739  0.00  0.00     0.029 C 
ENDBRANCH  10  11
ENDBRANCH   7  10
ENDBRANCH   1   4
BRANCH   2  13
ATOM     13  C   UNL d   1      45.023  29.891  58.306  0.00  0.00     0.109 A 
ATOM     14  C   UNL d   1      45.128  29.797  59.116  0.00  0.00     0.045 A 
ATOM     15  C   UNL d   1      45.024  30.438  59.610  0.00  0.00     0.096 A 
ATOM     16  C   UNL d   1      44.813  31.185  59.311  0.00  0.00     0.026 A 
ATOM     17  C   UNL d   1      44.711  31.270  58.513  0.00  0.00     0.028 A 
ATOM     18  C   UNL d   1      44.813  30.629  57.993  0.00  0.00     0.112 A 
BRANCH  15  19
ATOM     19  O   UNL d   1      45.135  30.323  60.424  0.00  0.00    -0.328 OA
ATOM     20  C   UNL d   1      44.789  30.853  60.961  0.00  0.00     0.181 C 
ENDBRANCH  15  19
BRANCH  18  21
ATOM     21  O   UNL d   1      44.706  30.730  57.189  0.00  0.00    -0.327 OA
ATOM     22  C   UNL d   1      44.552  31.490  56.889  0.00  0.00     0.181 C 
ENDBRANCH  18  21
ENDBRANCH   2  13
TORSDOF 6
ENDMDL
