MODEL 1
REMARK VINA RESULT:      -8.3      0.000      0.000
REMARK  5 active torsions:
REMARK  status: ('A' for Active; 'I' for Inactive)
REMARK    1  A    between atoms: C_6  and  N_1 
REMARK    2  A    between atoms: C_13  and  C_6 
REMARK    3  A    between atoms: O_11  and  C_7 
REMARK    4  A    between atoms: O_19  and  C_8 
REMARK    5  A    between atoms: C_20  and  O_11 
ROOT
ATOM      1  C   UNL d   1      53.587  34.049  54.533  0.00  0.00     0.122 A 
ATOM      2  C   UNL d   1      53.943  33.432  54.946  0.00  0.00     0.117 A 
ATOM      3  C   UNL d   1      54.086  32.710  54.573  0.00  0.00     0.028 A 
ATOM      4  C   UNL d   1      53.869  32.614  53.786  0.00  0.00     0.020 A 
ATOM      5  C   UNL d   1      53.373  33.942  53.744  0.00  0.00     0.027 A 
ATOM      6  C   UNL d   1      53.516  33.226  53.376  0.00  0.00     0.004 A 
ENDROOT
BRANCH   4   7
ATOM      7  C   UNL d   1      54.013  31.891  53.416  0.00  0.00     0.085 C 
BRANCH   7   8
ATOM      8  N   UNL d   1      53.380  31.420  53.176  0.00  0.00    -0.251 N 
ATOM      9  C   UNL d   1      52.781  31.593  52.620  0.00  0.00     0.378 A 
ATOM     10  O   UNL d   1      52.275  30.939  52.575  0.00  0.00    -0.258 OA
ATOM     11  O   UNL d   1      52.712  32.294  52.195  0.00  0.00    -0.237 OA
ATOM     12  C   UNL d   1      52.558  30.363  53.100  0.00  0.00     0.121 A 
ATOM     13  C   UNL d   1      53.240  30.660  53.471  0.00  0.00     0.092 A 
ATOM     14  C   UNL d   1      52.290  29.604  53.295  0.00  0.00     0.026 A 
ATOM     15  C   UNL d   1      53.645  30.208  54.024  0.00  0.00     0.020 A 
ATOM     16  C   UNL d   1      53.369  29.454  54.211  0.00  0.00     0.002 A 
ATOM     17  C   UNL d   1      52.695  29.153  53.848  0.00  0.00     0.002 A 
ATOM     18  C   UNL d   1      53.781  29.002  54.770  0.00  0.00     0.000 C 
ENDBRANCH   7   8
ENDBRANCH   4   7
BRANCH   2  19
ATOM     19  O   UNL d   1      54.159  33.528  55.729  0.00  0.00    -0.326 OA
ATOM     20  C   UNL d   1      54.915  33.298  55.972  0.00  0.00     0.181 C 
ENDBRANCH   2  19
BRANCH   1  21
ATOM     21  O   UNL d   1      53.444  34.769  54.902  0.00  0.00    -0.305 OA
BRANCH  21  22
ATOM     22  C   UNL d   1      53.027  35.353  54.507  0.00  0.00     0.100 C 
ATOM     23  C   UNL d   1      53.423  35.982  54.167  0.00  0.00     0.027 C 
ATOM     24  C   UNL d   1      52.205  35.306  54.453  0.00  0.00     0.027 C 
ENDBRANCH  21  22
ENDBRANCH   1  21
TORSDOF 5
ENDMDL
MODEL 2
REMARK VINA RESULT:      -8.3      1.564      2.353
REMARK  5 active torsions:
REMARK  status: ('A' for Active; 'I' for Inactive)
REMARK    1  A    between atoms: C_6  and  N_1 
REMARK    2  A    between atoms: C_13  and  C_6 
REMARK    3  A    between atoms: O_11  and  C_7 
REMARK    4  A    between atoms: O_19  and  C_8 
REMARK    5  A    between atoms: C_20  and  O_11 
ROOT
ATOM      1  C   UNL d   1      51.754  34.272  53.111  0.00  0.00     0.122 A 
ATOM      2  C   UNL d   1      52.475  34.519  53.422  0.00  0.00     0.117 A 
ATOM      3  C   UNL d   1      53.104  33.988  53.486  0.00  0.00     0.028 A 
ATOM      4  C   UNL d   1      53.000  33.211  53.237  0.00  0.00     0.020 A 
ATOM      5  C   UNL d   1      51.661  33.491  52.864  0.00  0.00     0.027 A 
ATOM      6  C   UNL d   1      52.284  32.966  52.928  0.00  0.00     0.004 A 
ENDROOT
BRANCH   4   7
ATOM      7  C   UNL d   1      53.630  32.683  53.303  0.00  0.00     0.085 C 
BRANCH   7   8
ATOM      8  N   UNL d   1      53.615  32.097  53.884  0.00  0.00    -0.251 N 
ATOM      9  C   UNL d   1      53.758  32.169  54.703  0.00  0.00     0.378 A 
ATOM     10  O   UNL d   1      53.675  31.420  55.046  0.00  0.00    -0.258 OA
ATOM     11  O   UNL d   1      53.948  32.868  55.095  0.00  0.00    -0.237 OA
ATOM     12  C   UNL d   1      53.482  30.886  54.443  0.00  0.00     0.121 A 
ATOM     13  C   UNL d   1      53.445  31.303  53.725  0.00  0.00     0.092 A 
ATOM     14  C   UNL d   1      53.333  30.071  54.445  0.00  0.00     0.026 A 
ATOM     15  C   UNL d   1      53.263  30.915  53.025  0.00  0.00     0.020 A 
ATOM     16  C   UNL d   1      53.116  30.104  53.038  0.00  0.00     0.002 A 
ATOM     17  C   UNL d   1      53.152  29.684  53.745  0.00  0.00     0.002 A 
ATOM     18  C   UNL d   1      52.933  29.717  52.329  0.00  0.00     0.000 C 
ENDBRANCH   7   8
ENDBRANCH   4   7
BRANCH   2  19
ATOM     19  O   UNL d   1      52.577  35.292  53.669  0.00  0.00    -0.326 OA
ATOM     20  C   UNL d   1      53.271  35.501  54.067  0.00  0.00     0.181 C 
ENDBRANCH   2  19
BRANCH   1  21
ATOM     21  O   UNL d   1      51.127  34.799  53.045  0.00  0.00    -0.305 OA
BRANCH  21  22
ATOM     22  C   UNL d   1      50.403  34.538  52.764  0.00  0.00     0.100 C 
ATOM     23  C   UNL d   1      49.796  34.370  53.285  0.00  0.00     0.027 C 
ATOM     24  C   UNL d   1      50.286  34.445  51.952  0.00  0.00     0.027 C 
ENDBRANCH  21  22
ENDBRANCH   1  21
TORSDOF 5
ENDMDL
MODEL 3
REMARK VINA RESULT:      -8.2      1.242      4.480
REMARK  5 active torsions:
REMARK  status: ('A' for Active; 'I' for Inactive)
REMARK    1  A    between atoms: C_6  and  N_1 
REMARK    2  A    between atoms: C_13  and  C_6 
REMARK    3  A    between atoms: O_11  and  C_7 
REMARK    4  A    between atoms: O_19  and  C_8 
REMARK    5  A    between atoms: C_20  and  O_11 
ROOT
ATOM      1  C   UNL d   1      52.994  29.877  53.866  0.00  0.00     0.122 A 
ATOM      2  C   UNL d   1      52.420  30.280  53.436  0.00  0.00     0.117 A 
ATOM      3  C   UNL d   1      52.584  31.024  53.117  0.00  0.00     0.028 A 
ATOM      4  C   UNL d   1      53.328  31.355  53.234  0.00  0.00     0.020 A 
ATOM      5  C   UNL d   1      53.737  30.219  53.976  0.00  0.00     0.027 A 
ATOM      6  C   UNL d   1      53.898  30.955  53.660  0.00  0.00     0.004 A 
ENDROOT
BRANCH   4   7
ATOM      7  C   UNL d   1      53.489  32.098  52.913  0.00  0.00     0.085 C 
BRANCH   7   8
ATOM      8  N   UNL d   1      53.448  32.768  53.392  0.00  0.00    -0.251 N 
ATOM      9  C   UNL d   1      53.928  32.976  54.044  0.00  0.00     0.378 A 
ATOM     10  O   UNL d   1      53.662  33.703  54.337  0.00  0.00    -0.258 OA
ATOM     11  O   UNL d   1      54.554  32.529  54.337  0.00  0.00    -0.237 OA
ATOM     12  C   UNL d   1      53.022  33.946  53.871  0.00  0.00     0.121 A 
ATOM     13  C   UNL d   1      52.889  33.369  53.287  0.00  0.00     0.092 A 
ATOM     14  C   UNL d   1      52.536  34.616  53.894  0.00  0.00     0.026 A 
ATOM     15  C   UNL d   1      52.284  33.460  52.740  0.00  0.00     0.020 A 
ATOM     16  C   UNL d   1      51.807  34.131  52.772  0.00  0.00     0.002 A 
ATOM     17  C   UNL d   1      51.932  34.707  53.347  0.00  0.00     0.002 A 
ATOM     18  C   UNL d   1      51.198  34.219  52.217  0.00  0.00     0.000 C 
ENDBRANCH   7   8
ENDBRANCH   4   7
BRANCH   2  19
ATOM     19  O   UNL d   1      51.680  29.949  53.321  0.00  0.00    -0.326 OA
ATOM     20  C   UNL d   1      51.007  30.413  53.440  0.00  0.00     0.181 C 
ENDBRANCH   2  19
BRANCH   1  21
ATOM     21  O   UNL d   1      52.834  29.137  54.185  0.00  0.00    -0.305 OA
BRANCH  21  22
ATOM     22  C   UNL d   1      53.360  28.796  54.711  0.00  0.00     0.100 C 
ATOM     23  C   UNL d   1      53.960  28.312  54.437  0.00  0.00     0.027 C 
ATOM     24  C   UNL d   1      53.286  28.942  55.520  0.00  0.00     0.027 C 
ENDBRANCH  21  22
ENDBRANCH   1  21
TORSDOF 5
ENDMDL
MODEL 4
REMARK VINA RESULT:      -7.8      2.093      4.282
REMARK  5 active torsions:
REMARK  status: ('A' for Active; 'I' for Inactive)
REMARK    1  A    between atoms: C_6  and  N_1 
REMARK    2  A    between atoms: C_13  and  C_6 
REMARK    3  A    between atoms: O_11  and  C_7 
REMARK    4  A    between atoms: O_19  and  C_8 
REMARK    5  A    between atoms: C_20  and  O_11 
ROOT
ATOM      1  C   UNL d   1      53.445  31.672  53.376  0.00  0.00     0.122 A 
ATOM      2  C   UNL d   1      53.898  32.359  53.411  0.00  0.00     0.117 A 
ATOM      3  C   UNL d   1      53.581  33.079  53.160  0.00  0.00     0.028 A 
ATOM      4  C   UNL d   1      52.810  33.101  52.875  0.00  0.00     0.020 A 
ATOM      5  C   UNL d   1      52.672  31.706  53.089  0.00  0.00     0.027 A 
ATOM      6  C   UNL d   1      52.361  32.420  52.841  0.00  0.00     0.004 A 
ENDROOT
BRANCH   4   7
ATOM      7  C   UNL d   1      52.497  33.822  52.625  0.00  0.00     0.085 C 
BRANCH   7   8
ATOM      8  N   UNL d   1      51.869  34.162  53.038  0.00  0.00    -0.251 N 
ATOM      9  C   UNL d   1      51.849  34.441  53.824  0.00  0.00     0.378 A 
ATOM     10  O   UNL d   1      51.089  34.731  53.975  0.00  0.00    -0.258 OA
ATOM     11  O   UNL d   1      52.481  34.426  54.352  0.00  0.00    -0.237 OA
ATOM     12  C   UNL d   1      50.638  34.633  53.287  0.00  0.00     0.121 A 
ATOM     13  C   UNL d   1      51.120  34.282  52.707  0.00  0.00     0.092 A 
ATOM     14  C   UNL d   1      49.852  34.815  53.103  0.00  0.00     0.026 A 
ATOM     15  C   UNL d   1      50.821  34.116  51.961  0.00  0.00     0.020 A 
ATOM     16  C   UNL d   1      50.036  34.301  51.788  0.00  0.00     0.002 A 
ATOM     17  C   UNL d   1      49.554  34.649  52.356  0.00  0.00     0.002 A 
ATOM     18  C   UNL d   1      49.740  34.132  51.033  0.00  0.00     0.000 C 
ENDBRANCH   7   8
ENDBRANCH   4   7
BRANCH   2  19
ATOM     19  O   UNL d   1      54.665  32.335  53.694  0.00  0.00    -0.326 OA
ATOM     20  C   UNL d   1      55.155  32.993  53.590  0.00  0.00     0.181 C 
ENDBRANCH   2  19
BRANCH   1  21
ATOM     21  O   UNL d   1      53.757  30.954  53.626  0.00  0.00    -0.305 OA
BRANCH  21  22
ATOM     22  C   UNL d   1      53.308  30.272  53.565  0.00  0.00     0.100 C 
ATOM     23  C   UNL d   1      53.203  29.912  52.838  0.00  0.00     0.027 C 
ATOM     24  C   UNL d   1      52.961  29.945  54.239  0.00  0.00     0.027 C 
ENDBRANCH  21  22
ENDBRANCH   1  21
TORSDOF 5
ENDMDL
MODEL 5
REMARK VINA RESULT:      -7.6      2.196      3.911
REMARK  5 active torsions:
REMARK  status: ('A' for Active; 'I' for Inactive)
REMARK    1  A    between atoms: C_6  and  N_1 
REMARK    2  A    between atoms: C_13  and  C_6 
REMARK    3  A    between atoms: O_11  and  C_7 
REMARK    4  A    between atoms: O_19  and  C_8 
REMARK    5  A    between atoms: C_20  and  O_11 
ROOT
ATOM      1  C   UNL d   1      50.391  34.177  52.795  0.00  0.00     0.122 A 
ATOM      2  C   UNL d   1      50.843  33.553  53.084  0.00  0.00     0.117 A 
ATOM      3  C   UNL d   1      51.658  33.640  53.181  0.00  0.00     0.028 A 
ATOM      4  C   UNL d   1      52.011  34.357  52.986  0.00  0.00     0.020 A 
ATOM      5  C   UNL d   1      50.755  34.891  52.603  0.00  0.00     0.027 A 
ATOM      6  C   UNL d   1      51.562  34.976  52.699  0.00  0.00     0.004 A 
ENDROOT
BRANCH   4   7
ATOM      7  C   UNL d   1      52.826  34.441  53.085  0.00  0.00     0.085 C 
BRANCH   7   8
ATOM      8  N   UNL d   1      53.143  34.502  53.844  0.00  0.00    -0.251 N 
ATOM      9  C   UNL d   1      53.050  35.115  54.402  0.00  0.00     0.378 A 
ATOM     10  O   UNL d   1      53.480  34.914  55.080  0.00  0.00    -0.258 OA
ATOM     11  O   UNL d   1      52.605  35.799  54.290  0.00  0.00    -0.237 OA
ATOM     12  C   UNL d   1      53.838  34.179  54.944  0.00  0.00     0.121 A 
ATOM     13  C   UNL d   1      53.631  33.924  54.181  0.00  0.00     0.092 A 
ATOM     14  C   UNL d   1      54.328  33.701  55.410  0.00  0.00     0.026 A 
ATOM     15  C   UNL d   1      53.907  33.208  53.890  0.00  0.00     0.020 A 
ATOM     16  C   UNL d   1      54.394  32.740  54.362  0.00  0.00     0.002 A 
ATOM     17  C   UNL d   1      54.604  32.986  55.119  0.00  0.00     0.002 A 
ATOM     18  C   UNL d   1      54.670  32.018  54.064  0.00  0.00     0.000 C 
ENDBRANCH   7   8
ENDBRANCH   4   7
BRANCH   2  19
ATOM     19  O   UNL d   1      50.490  32.841  53.278  0.00  0.00    -0.326 OA
ATOM     20  C   UNL d   1      50.920  32.140  53.190  0.00  0.00     0.181 C 
ENDBRANCH   2  19
BRANCH   1  21
ATOM     21  O   UNL d   1      49.579  34.093  52.697  0.00  0.00    -0.305 OA
BRANCH  21  22
ATOM     22  C   UNL d   1      49.138  34.715  52.401  0.00  0.00     0.100 C 
ATOM     23  C   UNL d   1      48.874  35.307  52.900  0.00  0.00     0.027 C 
ATOM     24  C   UNL d   1      48.958  34.747  51.595  0.00  0.00     0.027 C 
ENDBRANCH  21  22
ENDBRANCH   1  21
TORSDOF 5
ENDMDL
MODEL 6
REMARK VINA RESULT:      -6.9      2.240      3.852
REMARK  5 active torsions:
REMARK  status: ('A' for Active; 'I' for Inactive)
REMARK    1  A    between atoms: C_6  and  N_1 
REMARK    2  A    between atoms: C_13  and  C_6 
REMARK    3  A    between atoms: O_11  and  C_7 
REMARK    4  A    between atoms: O_19  and  C_8 
REMARK    5  A    between atoms: C_20  and  O_11 
ROOT
ATOM      1  C   UNL d   1      53.775  34.237  54.613  0.00  0.00     0.122 A 
ATOM      2  C   UNL d   1      53.207  34.803  54.432  0.00  0.00     0.117 A 
ATOM      3  C   UNL d   1      52.463  34.573  54.157  0.00  0.00     0.028 A 
ATOM      4  C   UNL d   1      52.298  33.772  54.068  0.00  0.00     0.020 A 
ATOM      5  C   UNL d   1      53.599  33.436  54.519  0.00  0.00     0.027 A 
ATOM      6  C   UNL d   1      52.863  33.210  54.248  0.00  0.00     0.004 A 
ENDROOT
BRANCH   4   7
ATOM      7  C   UNL d   1      51.554  33.545  53.793  0.00  0.00     0.085 C 
BRANCH   7   8
ATOM      8  N   UNL d   1      51.371  33.625  52.993  0.00  0.00    -0.251 N 
ATOM      9  C   UNL d   1      51.771  33.313  52.331  0.00  0.00     0.378 A 
ATOM     10  O   UNL d   1      51.367  33.551  51.649  0.00  0.00    -0.258 OA
ATOM     11  O   UNL d   1      52.451  32.849  52.359  0.00  0.00    -0.237 OA
ATOM     12  C   UNL d   1      50.718  34.009  51.886  0.00  0.00     0.121 A 
ATOM     13  C   UNL d   1      50.720  34.055  52.716  0.00  0.00     0.092 A 
ATOM     14  C   UNL d   1      50.120  34.394  51.462  0.00  0.00     0.026 A 
ATOM     15  C   UNL d   1      50.137  34.476  53.112  0.00  0.00     0.020 A 
ATOM     16  C   UNL d   1      49.547  34.856  52.680  0.00  0.00     0.002 A 
ATOM     17  C   UNL d   1      49.538  34.815  51.858  0.00  0.00     0.002 A 
ATOM     18  C   UNL d   1      48.962  35.280  53.084  0.00  0.00     0.000 C 
ENDBRANCH   7   8
ENDBRANCH   4   7
BRANCH   2  19
ATOM     19  O   UNL d   1      53.371  35.599  54.521  0.00  0.00    -0.326 OA
ATOM     20  C   UNL d   1      52.792  36.100  54.833  0.00  0.00     0.181 C 
ENDBRANCH   2  19
BRANCH   1  21
ATOM     21  O   UNL d   1      54.517  34.463  54.886  0.00  0.00    -0.305 OA
BRANCH  21  22
ATOM     22  C   UNL d   1      55.078  33.893  55.062  0.00  0.00     0.100 C 
ATOM     23  C   UNL d   1      55.082  33.532  55.795  0.00  0.00     0.027 C 
ATOM     24  C   UNL d   1      55.641  33.683  54.496  0.00  0.00     0.027 C 
ENDBRANCH  21  22
ENDBRANCH   1  21
TORSDOF 5
ENDMDL
