MODEL 1
REMARK VINA RESULT:       0.7      0.000      0.000
REMARK  4 active torsions:
REMARK  status: ('A' for Active; 'I' for Inactive)
REMARK    1  A    between atoms: N_8  and  C_1 
REMARK    2  A    between atoms: C_12  and  C_2 
REMARK    3  A    between atoms: C_4  and  C_10 
REMARK       I    between atoms: C_10  and  N_8 
REMARK       I    between atoms: C_14  and  N_11 
REMARK    4  A    between atoms: O_22  and  C_12 
ROOT
ATOM      1  C   UNL d   1      56.807   0.335  32.791  0.00  0.00     0.119 A 
ATOM      2  C   UNL d   1      56.963   0.503  33.581  0.00  0.00     0.088 A 
ATOM      3  C   UNL d   1      55.643   0.386  33.438  0.00  0.00     0.049 A 
ATOM      4  C   UNL d   1      56.238   0.535  33.982  0.00  0.00     0.016 A 
ATOM      5  S   UNL d   1      55.983   0.262  32.704  0.00  0.00    -0.066 SA
ATOM      6  N   UNL d   1      54.664   0.528  34.474  0.00  0.00    -0.272 N 
ATOM      7  C   UNL d   1      54.848   0.384  33.693  0.00  0.00     0.089 A 
ATOM      8  C   UNL d   1      53.878   0.528  34.737  0.00  0.00     0.265 C 
ATOM      9  C   UNL d   1      56.059   0.682  34.777  0.00  0.00     0.020 A 
ATOM     10  C   UNL d   1      55.274   0.678  35.020  0.00  0.00     0.083 A 
ATOM     11  O   UNL d   1      53.274   0.380  34.197  0.00  0.00    -0.267 OA
ATOM     12  C   UNL d   1      53.692   0.672  35.520  0.00  0.00     0.066 C 
ENDROOT
BRANCH   1  13
ATOM     13  N   UNL d   1      57.370   0.251  32.185  0.00  0.00    -0.200 NA
ATOM     14  C   UNL d   1      57.118   0.051  31.424  0.00  0.00     0.303 C 
ATOM     15  O   UNL d   1      56.326  -0.065  31.259  0.00  0.00    -0.263 OA
BRANCH  14  16
ATOM     16  C   UNL d   1      57.676  -0.031  30.823  0.00  0.00     0.169 A 
ATOM     17  N   UNL d   1      58.120  -0.715  30.651  0.00  0.00    -0.234 NA
ATOM     18  C   UNL d   1      58.610  -0.527  29.995  0.00  0.00     0.088 A 
ATOM     19  C   UNL d   1      59.164  -0.973  29.578  0.00  0.00     0.020 A 
ATOM     20  C   UNL d   1      58.446   0.260  29.792  0.00  0.00     0.049 A 
ATOM     21  C   UNL d   1      59.565  -0.623  28.943  0.00  0.00     0.002 A 
ATOM     22  C   UNL d   1      59.405   0.164  28.737  0.00  0.00     0.001 A 
ATOM     23  C   UNL d   1      58.852   0.599  29.157  0.00  0.00     0.008 A 
ATOM     24  S   UNL d   1      57.878   0.547  30.303  0.00  0.00    -0.062 SA
ENDBRANCH  14  16
ENDBRANCH   1  13
BRANCH   2  25
ATOM     25  C   UNL d   1      57.702   0.618  33.908  0.00  0.00     0.298 C 
ATOM     26  O   UNL d   1      58.362   0.674  33.421  0.00  0.00    -0.259 OA
BRANCH  25  27
ATOM     27  O   UNL d   1      57.785   0.679  34.741  0.00  0.00    -0.296 OA
ATOM     28  C   UNL d   1      58.534   0.647  35.085  0.00  0.00     0.185 C 
ENDBRANCH  25  27
ENDBRANCH   2  25
TORSDOF 4
ENDMDL
MODEL 2
REMARK VINA RESULT:       0.7      1.786      5.447
REMARK  4 active torsions:
REMARK  status: ('A' for Active; 'I' for Inactive)
REMARK    1  A    between atoms: N_8  and  C_1 
REMARK    2  A    between atoms: C_12  and  C_2 
REMARK    3  A    between atoms: C_4  and  C_10 
REMARK       I    between atoms: C_10  and  N_8 
REMARK       I    between atoms: C_14  and  N_11 
REMARK    4  A    between atoms: O_22  and  C_12 
ROOT
ATOM      1  C   UNL d   1      57.637  -0.957  31.180  0.00  0.00     0.119 A 
ATOM      2  C   UNL d   1      58.271  -0.638  30.765  0.00  0.00     0.088 A 
ATOM      3  C   UNL d   1      58.127  -1.907  30.384  0.00  0.00     0.049 A 
ATOM      4  C   UNL d   1      58.574  -1.230  30.270  0.00  0.00     0.016 A 
ATOM      5  S   UNL d   1      57.549  -1.749  30.941  0.00  0.00    -0.066 SA
ATOM      6  N   UNL d   1      58.932  -2.599  29.422  0.00  0.00    -0.272 N 
ATOM      7  C   UNL d   1      58.313  -2.597  29.952  0.00  0.00     0.089 A 
ATOM      8  C   UNL d   1      59.124  -3.278  28.987  0.00  0.00     0.265 C 
ATOM      9  C   UNL d   1      59.205  -1.224  29.733  0.00  0.00     0.020 A 
ATOM     10  C   UNL d   1      59.381  -1.906  29.311  0.00  0.00     0.083 A 
ATOM     11  O   UNL d   1      58.679  -3.963  29.096  0.00  0.00    -0.267 OA
ATOM     12  C   UNL d   1      59.745  -3.280  28.455  0.00  0.00     0.066 C 
ENDROOT
BRANCH   1  13
ATOM     13  N   UNL d   1      57.166  -0.562  31.740  0.00  0.00    -0.200 NA
ATOM     14  C   UNL d   1      56.615  -0.992  32.180  0.00  0.00     0.303 C 
ATOM     15  O   UNL d   1      56.526  -1.798  32.074  0.00  0.00    -0.263 OA
BRANCH  14  16
ATOM     16  C   UNL d   1      56.148  -0.601  32.735  0.00  0.00     0.169 A 
ATOM     17  N   UNL d   1      55.350  -0.381  32.643  0.00  0.00    -0.234 NA
ATOM     18  C   UNL d   1      55.121   0.001  33.355  0.00  0.00     0.088 A 
ATOM     19  C   UNL d   1      54.405   0.336  33.592  0.00  0.00     0.020 A 
ATOM     20  C   UNL d   1      55.784   0.001  33.852  0.00  0.00     0.049 A 
ATOM     21  C   UNL d   1      54.353   0.679  34.345  0.00  0.00     0.002 A 
ATOM     22  C   UNL d   1      55.014   0.680  34.845  0.00  0.00     0.001 A 
ATOM     23  C   UNL d   1      55.720   0.345  34.601  0.00  0.00     0.008 A 
ATOM     24  S   UNL d   1      56.400  -0.367  33.462  0.00  0.00    -0.062 SA
ENDBRANCH  14  16
ENDBRANCH   1  13
BRANCH   2  25
ATOM     25  C   UNL d   1      58.549   0.127  30.830  0.00  0.00     0.298 C 
ATOM     26  O   UNL d   1      58.405   0.668  30.227  0.00  0.00    -0.259 OA
BRANCH  25  27
ATOM     27  O   UNL d   1      58.980   0.358  31.511  0.00  0.00    -0.296 OA
ATOM     28  C   UNL d   1      59.734   0.682  31.432  0.00  0.00     0.185 C 
ENDBRANCH  25  27
ENDBRANCH   2  25
TORSDOF 4
ENDMDL
