MODEL 1
REMARK VINA RESULT:      82.0      0.000      0.000
REMARK  5 active torsions:
REMARK  status: ('A' for Active; 'I' for Inactive)
REMARK    1  A    between atoms: N_2  and  S_1 
REMARK    2  A    between atoms: C_6  and  S_1 
REMARK       I    between atoms: C_3  and  N_4 
REMARK    3  A    between atoms: C_5  and  C_3 
REMARK    4  A    between atoms: O_20  and  C_21 
REMARK    5  A    between atoms: C_24  and  O_20 
ROOT
ATOM      1  S   UNL d   1     -47.994  29.488  35.960  0.00  0.00     0.271 S 
ATOM      2  O   UNL d   1     -47.746  29.907  36.623  0.00  0.00    -0.200 OA
ATOM      3  O   UNL d   1     -48.217  28.858  36.441  0.00  0.00    -0.200 OA
ENDROOT
BRANCH   1   4
ATOM      4  N   UNL d   1     -47.771  30.117  35.475  0.00  0.00    -0.226 N 
ATOM      5  C   UNL d   1     -48.326  30.661  35.217  0.00  0.00     0.111 A 
ATOM      6  C   UNL d   1     -48.100  31.287  34.733  0.00  0.00     0.103 A 
ATOM      7  N   UNL d   1     -47.311  31.361  34.511  0.00  0.00    -0.267 N 
ATOM      8  C   UNL d   1     -47.086  31.988  34.028  0.00  0.00     0.288 C 
ATOM      9  C   UNL d   1     -46.752  30.821  34.765  0.00  0.00     0.103 A 
ATOM     10  O   UNL d   1     -46.298  32.071  33.799  0.00  0.00    -0.264 OA
ATOM     11  C   UNL d   1     -46.974  30.192  35.250  0.00  0.00     0.111 A 
BRANCH   8  12
ATOM     12  C   UNL d   1     -47.646  32.537  33.767  0.00  0.00     0.156 A 
ATOM     13  O   UNL d   1     -48.441  32.389  33.594  0.00  0.00    -0.300 OA
ATOM     14  C   UNL d   1     -48.789  33.092  33.355  0.00  0.00     0.123 A 
ATOM     15  C   UNL d   1     -48.216  33.688  33.378  0.00  0.00     0.029 A 
ATOM     16  C   UNL d   1     -47.508  33.339  33.634  0.00  0.00     0.032 A 
ENDBRANCH   8  12
ENDBRANCH   1   4
BRANCH   1  17
ATOM     17  C   UNL d   1     -48.243  29.065  35.297  0.00  0.00     0.104 A 
ATOM     18  C   UNL d   1     -48.909  29.301  34.868  0.00  0.00     0.015 A 
ATOM     19  C   UNL d   1     -49.152  28.876  34.209  0.00  0.00     0.025 A 
ATOM     20  C   UNL d   1     -48.730  28.212  33.974  0.00  0.00     0.100 A 
ATOM     21  C   UNL d   1     -48.063  27.967  34.395  0.00  0.00     0.025 A 
ATOM     22  C   UNL d   1     -47.818  28.391  35.056  0.00  0.00     0.015 A 
BRANCH  20  23
ATOM     23  O   UNL d   1     -48.979  27.784  33.306  0.00  0.00    -0.307 OA
BRANCH  23  24
ATOM     24  C   UNL d   1     -49.719  27.409  33.311  0.00  0.00     0.100 A 
ATOM     25  C   UNL d   1     -50.419  27.856  33.323  0.00  0.00     0.025 A 
ATOM     26  C   UNL d   1     -51.152  27.477  33.328  0.00  0.00     0.002 A 
ATOM     27  C   UNL d   1     -51.188  26.653  33.323  0.00  0.00     0.000 A 
ATOM     28  C   UNL d   1     -50.488  26.206  33.311  0.00  0.00     0.002 A 
ATOM     29  C   UNL d   1     -49.755  26.585  33.306  0.00  0.00     0.025 A 
ENDBRANCH  23  24
ENDBRANCH  20  23
ENDBRANCH   1  17
TORSDOF 5
ENDMDL
