MODEL 1
REMARK VINA RESULT:      67.8      0.000      0.000
REMARK  3 active torsions:
REMARK  status: ('A' for Active; 'I' for Inactive)
REMARK    1  A    between atoms: C_6  and  C_1 
REMARK    2  A    between atoms: N_7  and  C_2 
REMARK       I    between atoms: C_8  and  N_9 
REMARK    3  A    between atoms: C_11  and  C_8 
ROOT
ATOM      1  C   UNL d   1      14.205  13.218  -2.001  0.00  0.00     0.186 A 
ATOM      2  C   UNL d   1      13.970  13.980  -3.059  0.00  0.00     0.197 A 
ATOM      3  C   UNL d   1      13.677  13.231  -3.211  0.00  0.00     0.191 A 
ATOM      4  O   UNL d   1      14.304  13.964  -2.289  0.00  0.00    -0.270 OA
ATOM      5  N   UNL d   1      13.826  12.744  -2.535  0.00  0.00    -0.208 NA
ATOM      6  C   UNL d   1      13.285  12.982  -3.929  0.00  0.00     0.124 C 
ATOM      7  N   UNL d   1      12.897  12.724  -4.635  0.00  0.00    -0.190 NA
ENDROOT
BRANCH   2   8
ATOM      8  N   UNL d   1      13.818  14.463  -3.736  0.00  0.00    -0.280 N 
ATOM      9  C   UNL d   1      13.312  14.196  -4.340  0.00  0.00     0.101 A 
ATOM     10  C   UNL d   1      13.159  14.650  -4.993  0.00  0.00     0.102 A 
ATOM     11  N   UNL d   1      13.516  15.421  -5.082  0.00  0.00    -0.267 N 
ATOM     12  C   UNL d   1      13.332  15.875  -5.787  0.00  0.00     0.288 C 
ATOM     13  C   UNL d   1      14.047  15.704  -4.450  0.00  0.00     0.102 A 
ATOM     14  O   UNL d   1      12.815  15.574  -6.378  0.00  0.00    -0.264 OA
ATOM     15  C   UNL d   1      14.179  15.199  -3.787  0.00  0.00     0.101 A 
BRANCH  12  16
ATOM     16  C   UNL d   1      13.688  16.645  -5.876  0.00  0.00     0.156 A 
ATOM     17  O   UNL d   1      14.350  17.005  -5.562  0.00  0.00    -0.300 OA
ATOM     18  C   UNL d   1      14.402  17.781  -5.871  0.00  0.00     0.123 A 
ATOM     19  C   UNL d   1      13.769  17.889  -6.374  0.00  0.00     0.029 A 
ATOM     20  C   UNL d   1      13.323  17.197  -6.384  0.00  0.00     0.032 A 
ENDBRANCH  12  16
ENDBRANCH   2   8
BRANCH   1  21
ATOM     21  C   UNL d   1      14.353  12.726  -1.326  0.00  0.00     0.052 A 
ATOM     22  C   UNL d   1      15.131  12.671  -1.027  0.00  0.00     0.061 A 
ATOM     23 CL   UNL d   1      15.701  13.113  -1.426  0.00  0.00    -0.082 Cl
ATOM     24  C   UNL d   1      15.292  12.199  -0.374  0.00  0.00     0.011 A 
ATOM     25  C   UNL d   1      14.689  11.782  -0.016  0.00  0.00     0.001 A 
ATOM     26  C   UNL d   1      13.917  11.829  -0.303  0.00  0.00     0.000 A 
ATOM     27  C   UNL d   1      13.760  12.295  -0.948  0.00  0.00     0.004 A 
ENDBRANCH   1  21
TORSDOF 3
ENDMDL
MODEL 2
REMARK VINA RESULT:      68.1      2.002      5.609
REMARK  3 active torsions:
REMARK  status: ('A' for Active; 'I' for Inactive)
REMARK    1  A    between atoms: C_6  and  C_1 
REMARK    2  A    between atoms: N_7  and  C_2 
REMARK       I    between atoms: C_8  and  N_9 
REMARK    3  A    between atoms: C_11  and  C_8 
ROOT
ATOM      1  C   UNL d   1      13.953  17.362  -5.536  0.00  0.00     0.186 A 
ATOM      2  C   UNL d   1      13.822  16.079  -5.229  0.00  0.00     0.197 A 
ATOM      3  C   UNL d   1      14.262  16.441  -4.642  0.00  0.00     0.191 A 
ATOM      4  O   UNL d   1      13.629  16.671  -5.793  0.00  0.00    -0.270 OA
ATOM      5  N   UNL d   1      14.347  17.260  -4.836  0.00  0.00    -0.208 NA
ATOM      6  C   UNL d   1      14.583  16.057  -3.948  0.00  0.00     0.124 C 
ATOM      7  N   UNL d   1      14.906  15.688  -3.259  0.00  0.00    -0.190 NA
ENDROOT
BRANCH   2   8
ATOM      8  N   UNL d   1      13.741  15.262  -5.031  0.00  0.00    -0.280 N 
ATOM      9  C   UNL d   1      13.729  14.682  -5.628  0.00  0.00     0.101 A 
ATOM     10  C   UNL d   1      13.652  13.896  -5.451  0.00  0.00     0.102 A 
ATOM     11  N   UNL d   1      13.579  13.637  -4.641  0.00  0.00    -0.267 N 
ATOM     12  C   UNL d   1      13.498  12.795  -4.489  0.00  0.00     0.288 C 
ATOM     13  C   UNL d   1      13.591  14.242  -4.012  0.00  0.00     0.102 A 
ATOM     14  O   UNL d   1      13.490  12.236  -5.117  0.00  0.00    -0.264 OA
ATOM     15  C   UNL d   1      13.673  15.050  -4.241  0.00  0.00     0.101 A 
BRANCH  12  16
ATOM     16  C   UNL d   1      13.426  12.536  -3.679  0.00  0.00     0.156 A 
ATOM     17  O   UNL d   1      13.783  12.755  -2.978  0.00  0.00    -0.300 OA
ATOM     18  C   UNL d   1      13.468  12.284  -2.362  0.00  0.00     0.123 A 
ATOM     19  C   UNL d   1      12.919  11.779  -2.694  0.00  0.00     0.029 A 
ATOM     20  C   UNL d   1      12.885  11.926  -3.502  0.00  0.00     0.032 A 
ENDBRANCH  12  16
ENDBRANCH   2   8
BRANCH   1  21
ATOM     21  C   UNL d   1      14.040  18.184  -5.726  0.00  0.00     0.052 A 
ATOM     22  C   UNL d   1      13.441  18.563  -6.170  0.00  0.00     0.061 A 
ATOM     23 CL   UNL d   1      12.803  18.090  -6.388  0.00  0.00    -0.082 Cl
ATOM     24  C   UNL d   1      13.509  19.358  -6.364  0.00  0.00     0.011 A 
ATOM     25  C   UNL d   1      14.164  19.781  -6.122  0.00  0.00     0.001 A 
ATOM     26  C   UNL d   1      14.761  19.416  -5.684  0.00  0.00     0.000 A 
ATOM     27  C   UNL d   1      14.692  18.631  -5.493  0.00  0.00     0.004 A 
ENDBRANCH   1  21
TORSDOF 3
ENDMDL
