MODEL 1
REMARK VINA RESULT:      39.5      0.000      0.000
REMARK  4 active torsions:
REMARK  status: ('A' for Active; 'I' for Inactive)
REMARK    1  A    between atoms: C_10  and  N_1 
REMARK       I    between atoms: C_3  and  N_9 
REMARK    2  A    between atoms: C_6  and  C_3 
REMARK    3  A    between atoms: N_9  and  C_11 
REMARK    4  A    between atoms: C_11  and  C_10 
ROOT
ATOM      1  N   UNL d   1     -51.250  25.498  33.438  0.00  0.00    -0.303 N 
ATOM      2  C   UNL d   1     -51.946  25.945  33.416  0.00  0.00     0.080 A 
ATOM      3  C   UNL d   1     -51.466  24.697  33.399  0.00  0.00     0.064 A 
ATOM      4  C   UNL d   1     -52.584  25.427  33.363  0.00  0.00     0.021 A 
ATOM      5  C   UNL d   1     -52.291  24.656  33.352  0.00  0.00     0.018 A 
ATOM      6  C   UNL d   1     -51.010  24.013  33.400  0.00  0.00     0.018 A 
ATOM      7  C   UNL d   1     -52.654  23.919  33.307  0.00  0.00     0.002 A 
ATOM      8  C   UNL d   1     -51.374  23.276  33.354  0.00  0.00     0.002 A 
ATOM      9  C   UNL d   1     -52.206  23.219  33.307  0.00  0.00     0.000 A 
ENDROOT
BRANCH   1  10
ATOM     10  C   UNL d   1     -50.483  25.798  33.490  0.00  0.00     0.101 C 
BRANCH  10  11
ATOM     11  C   UNL d   1     -50.343  26.499  33.901  0.00  0.00     0.121 C 
BRANCH  11  12
ATOM     12  N   UNL d   1     -50.472  27.225  33.531  0.00  0.00    -0.209 NA
ATOM     13  C   UNL d   1     -49.977  27.864  33.687  0.00  0.00     0.255 C 
ATOM     14  O   UNL d   1     -50.104  28.590  33.317  0.00  0.00    -0.270 OA
BRANCH  13  15
ATOM     15  C   UNL d   1     -49.346  27.776  34.220  0.00  0.00     0.073 C 
ATOM     16  C   UNL d   1     -48.818  27.703  33.583  0.00  0.00     0.009 C 
ATOM     17  C   UNL d   1     -48.724  27.689  34.751  0.00  0.00     0.009 C 
ATOM     18  C   UNL d   1     -49.877  27.849  34.845  0.00  0.00     0.009 C 
ENDBRANCH  13  15
ENDBRANCH  11  12
ENDBRANCH  10  11
ENDBRANCH   1  10
TORSDOF 4
ENDMDL
