MODEL 1
REMARK VINA RESULT:      22.2      0.000      0.000
REMARK  5 active torsions:
REMARK  status: ('A' for Active; 'I' for Inactive)
REMARK    1  A    between atoms: N_2  and  S_1 
REMARK    2  A    between atoms: C_4  and  S_1 
REMARK    3  A    between atoms: C_5  and  N_3 
REMARK    4  A    between atoms: C_11  and  C_4 
REMARK    5  A    between atoms: C_15  and  C_11 
ROOT
ATOM      1  N   UNL d   1      45.627 -15.096  44.685  0.00  0.00    -0.226 N 
ATOM      2  N   UNL d   1      45.982 -16.675  44.422  0.00  0.00    -0.301 N 
ATOM      3  C   UNL d   1      45.025 -15.650  44.675  0.00  0.00     0.111 A 
ATOM      4  C   UNL d   1      46.408 -15.330  44.563  0.00  0.00     0.111 A 
ATOM      5  C   UNL d   1      46.578 -16.116  44.433  0.00  0.00     0.100 A 
ATOM      6  C   UNL d   1      45.201 -16.441  44.543  0.00  0.00     0.100 A 
ENDROOT
BRANCH   1   7
ATOM      7  S   UNL d   1      45.443 -14.289  44.820  0.00  0.00     0.272 S 
ATOM      8  O   UNL d   1      44.631 -14.458  44.715  0.00  0.00    -0.200 OA
ATOM      9  O   UNL d   1      46.248 -14.125  44.923  0.00  0.00    -0.200 OA
BRANCH   7  10
ATOM     10  C   UNL d   1      45.259 -13.494  44.953  0.00  0.00     0.116 C 
BRANCH  10  11
ATOM     11  C   UNL d   1      45.629 -12.901  44.494  0.00  0.00     0.014 C 
BRANCH  11  12
ATOM     12  C   UNL d   1      45.270 -12.634  43.796  0.00  0.00     0.001 A 
ATOM     13  C   UNL d   1      45.704 -12.635  43.080  0.00  0.00     0.000 A 
ATOM     14  C   UNL d   1      45.347 -12.366  42.375  0.00  0.00     0.000 A 
ATOM     15  C   UNL d   1      44.563 -12.099  42.385  0.00  0.00     0.000 A 
ATOM     16  C   UNL d   1      44.122 -12.096  43.100  0.00  0.00     0.000 A 
ATOM     17  C   UNL d   1      44.479 -12.364  43.806  0.00  0.00     0.000 A 
ENDBRANCH  11  12
ENDBRANCH  10  11
ENDBRANCH   7  10
ENDBRANCH   1   7
BRANCH   2  18
ATOM     18  C   UNL d   1      46.161 -17.460  44.290  0.00  0.00     0.065 A 
ATOM     19  C   UNL d   1      46.137 -17.759  43.531  0.00  0.00     0.029 A 
ATOM     20  C   UNL d   1      46.315 -18.540  43.397  0.00  0.00     0.059 A 
ATOM     21 CL   UNL d   1      46.292 -18.846  42.627  0.00  0.00    -0.082 Cl
ATOM     22  C   UNL d   1      46.518 -19.032  44.027  0.00  0.00     0.011 A 
ATOM     23  C   UNL d   1      46.540 -18.727  44.785  0.00  0.00     0.002 A 
ATOM     24  C   UNL d   1      46.362 -17.943  44.917  0.00  0.00     0.018 A 
ENDBRANCH   2  18
TORSDOF 5
ENDMDL
