MODEL 1
REMARK VINA RESULT:      -7.4      0.000      0.000
REMARK  3 active torsions:
REMARK  status: ('A' for Active; 'I' for Inactive)
REMARK    1  A    between atoms: N_2  and  S_1 
REMARK    2  A    between atoms: N_4  and  S_1 
REMARK    3  A    between atoms: C_9  and  N_3 
ROOT
ATOM      1  N   UNL d   1     -49.077  14.019  22.980  0.00  0.00    -0.213 N 
ATOM      2  N   UNL d   1     -47.880  12.914  23.212  0.00  0.00    -0.301 N 
ATOM      3  C   UNL d   1     -48.308  14.209  22.799  0.00  0.00     0.112 A 
ATOM      4  C   UNL d   1     -49.280  13.258  23.287  0.00  0.00     0.112 A 
ATOM      5  C   UNL d   1     -47.707  13.655  22.916  0.00  0.00     0.100 A 
ATOM      6  C   UNL d   1     -48.680  12.704  23.403  0.00  0.00     0.100 A 
ENDROOT
BRANCH   2   7
ATOM      7  C   UNL d   1     -47.276  12.357  23.329  0.00  0.00     0.064 A 
ATOM      8  C   UNL d   1     -47.477  11.593  23.580  0.00  0.00     0.018 A 
ATOM      9  C   UNL d   1     -46.877  11.034  23.698  0.00  0.00     0.013 A 
ATOM     10  C   UNL d   1     -46.090  11.235  23.567  0.00  0.00     0.058 A 
ATOM     11  C   UNL d   1     -45.899  12.007  23.314  0.00  0.00     0.013 A 
ATOM     12 CL   UNL d   1     -45.489  10.675  23.685  0.00  0.00    -0.082 Cl
ATOM     13  C   UNL d   1     -46.493  12.561  23.197  0.00  0.00     0.018 A 
ENDBRANCH   2   7
BRANCH   1  14
ATOM     14  S   UNL d   1     -49.689  14.584  22.861  0.00  0.00     0.337 S 
ATOM     15  O   UNL d   1     -50.454  14.432  23.138  0.00  0.00    -0.181 OA
ATOM     16  O   UNL d   1     -49.526  15.296  22.464  0.00  0.00    -0.181 OA
BRANCH  14  17
ATOM     17  N   UNL d   1     -50.413  14.995  22.848  0.00  0.00    -0.213 N 
ATOM     18  C   UNL d   1     -50.542  15.613  23.370  0.00  0.00     0.113 C 
ATOM     19  C   UNL d   1     -51.005  14.777  22.304  0.00  0.00     0.113 C 
ENDBRANCH  14  17
ENDBRANCH   1  14
TORSDOF 3
ENDMDL
MODEL 2
REMARK VINA RESULT:      -6.6      2.799      4.539
REMARK  3 active torsions:
REMARK  status: ('A' for Active; 'I' for Inactive)
REMARK    1  A    between atoms: N_2  and  S_1 
REMARK    2  A    between atoms: N_4  and  S_1 
REMARK    3  A    between atoms: C_9  and  N_3 
ROOT
ATOM      1  N   UNL d   1     -46.600  13.367  22.712  0.00  0.00    -0.213 N 
ATOM      2  N   UNL d   1     -48.085  14.060  22.860  0.00  0.00    -0.301 N 
ATOM      3  C   UNL d   1     -47.269  12.919  22.605  0.00  0.00     0.112 A 
ATOM      4  C   UNL d   1     -46.647  14.190  22.899  0.00  0.00     0.112 A 
ATOM      5  C   UNL d   1     -48.014  13.266  22.679  0.00  0.00     0.100 A 
ATOM      6  C   UNL d   1     -47.392  14.537  22.973  0.00  0.00     0.100 A 
ENDROOT
BRANCH   2   7
ATOM      7  C   UNL d   1     -48.834  14.409  22.934  0.00  0.00     0.064 A 
ATOM      8  C   UNL d   1     -48.975  15.140  22.569  0.00  0.00     0.018 A 
ATOM      9  C   UNL d   1     -49.722  15.492  22.641  0.00  0.00     0.013 A 
ATOM     10  C   UNL d   1     -50.317  15.120  23.071  0.00  0.00     0.058 A 
ATOM     11  C   UNL d   1     -50.164  14.384  23.434  0.00  0.00     0.013 A 
ATOM     12 CL   UNL d   1     -51.064  15.471  23.143  0.00  0.00    -0.082 Cl
ATOM     13  C   UNL d   1     -49.424  14.035  23.363  0.00  0.00     0.018 A 
ENDBRANCH   2   7
BRANCH   1  14
ATOM     14  S   UNL d   1     -45.840  13.013  22.637  0.00  0.00     0.337 S 
ATOM     15  O   UNL d   1     -45.353  13.207  21.996  0.00  0.00    -0.181 OA
ATOM     16  O   UNL d   1     -45.578  12.468  23.206  0.00  0.00    -0.181 OA
BRANCH  14  17
ATOM     17  N   UNL d   1     -45.081  12.785  22.384  0.00  0.00    -0.213 N 
ATOM     18  C   UNL d   1     -44.754  12.081  22.649  0.00  0.00     0.113 C 
ATOM     19  C   UNL d   1     -44.653  13.272  21.861  0.00  0.00     0.113 C 
ENDBRANCH  14  17
ENDBRANCH   1  14
TORSDOF 3
ENDMDL
MODEL 3
REMARK VINA RESULT:      -6.0      9.286     10.389
REMARK  3 active torsions:
REMARK  status: ('A' for Active; 'I' for Inactive)
REMARK    1  A    between atoms: N_2  and  S_1 
REMARK    2  A    between atoms: N_4  and  S_1 
REMARK    3  A    between atoms: C_9  and  N_3 
ROOT
ATOM      1  N   UNL d   1     -39.986  14.834  19.394  0.00  0.00    -0.213 N 
ATOM      2  N   UNL d   1     -39.304  14.390  17.964  0.00  0.00    -0.301 N 
ATOM      3  C   UNL d   1     -39.210  15.018  19.240  0.00  0.00     0.112 A 
ATOM      4  C   UNL d   1     -40.458  14.415  18.831  0.00  0.00     0.112 A 
ATOM      5  C   UNL d   1     -38.867  14.795  18.524  0.00  0.00     0.100 A 
ATOM      6  C   UNL d   1     -40.115  14.193  18.114  0.00  0.00     0.100 A 
ENDROOT
BRANCH   2   7
ATOM      7  C   UNL d   1     -38.959  14.167  17.243  0.00  0.00     0.064 A 
ATOM      8  C   UNL d   1     -39.057  14.657  16.582  0.00  0.00     0.018 A 
ATOM      9  C   UNL d   1     -38.714  14.437  15.860  0.00  0.00     0.013 A 
ATOM     10  C   UNL d   1     -38.282  13.739  15.800  0.00  0.00     0.058 A 
ATOM     11  C   UNL d   1     -38.191  13.253  16.472  0.00  0.00     0.013 A 
ATOM     12 CL   UNL d   1     -37.940  13.519  15.078  0.00  0.00    -0.082 Cl
ATOM     13  C   UNL d   1     -38.530  13.470  17.188  0.00  0.00     0.018 A 
ENDBRANCH   2   7
BRANCH   1  14
ATOM     14  S   UNL d   1     -40.335  15.061  20.126  0.00  0.00     0.337 S 
ATOM     15  O   UNL d   1     -40.328  15.854  20.360  0.00  0.00    -0.181 OA
ATOM     16  O   UNL d   1     -40.688  14.487  20.613  0.00  0.00    -0.181 OA
BRANCH  14  17
ATOM     17  N   UNL d   1     -40.615  15.481  20.787  0.00  0.00    -0.213 N 
ATOM     18  C   UNL d   1     -41.358  15.827  20.768  0.00  0.00     0.113 C 
ATOM     19  C   UNL d   1     -40.140  15.549  21.467  0.00  0.00     0.113 C 
ENDBRANCH  14  17
ENDBRANCH   1  14
TORSDOF 3
ENDMDL
MODEL 4
REMARK VINA RESULT:      -5.9      9.139     10.022
REMARK  3 active torsions:
REMARK  status: ('A' for Active; 'I' for Inactive)
REMARK    1  A    between atoms: N_2  and  S_1 
REMARK    2  A    between atoms: N_4  and  S_1 
REMARK    3  A    between atoms: C_9  and  N_3 
ROOT
ATOM      1  N   UNL d   1     -39.410  14.295  21.019  0.00  0.00    -0.213 N 
ATOM      2  N   UNL d   1     -40.007  14.725  19.547  0.00  0.00    -0.301 N 
ATOM      3  C   UNL d   1     -40.204  14.444  20.930  0.00  0.00     0.112 A 
ATOM      4  C   UNL d   1     -38.877  14.356  20.366  0.00  0.00     0.112 A 
ATOM      5  C   UNL d   1     -40.503  14.659  20.192  0.00  0.00     0.100 A 
ATOM      6  C   UNL d   1     -39.176  14.572  19.628  0.00  0.00     0.100 A 
ENDROOT
BRANCH   2   7
ATOM      7  C   UNL d   1     -40.308  14.942  18.805  0.00  0.00     0.064 A 
ATOM      8  C   UNL d   1     -40.349  14.371  18.205  0.00  0.00     0.018 A 
ATOM      9  C   UNL d   1     -40.649  14.585  17.462  0.00  0.00     0.013 A 
ATOM     10  C   UNL d   1     -40.903  15.355  17.322  0.00  0.00     0.058 A 
ATOM     11  C   UNL d   1     -40.857  15.921  17.933  0.00  0.00     0.013 A 
ATOM     12 CL   UNL d   1     -41.203  15.568  16.579  0.00  0.00    -0.082 Cl
ATOM     13  C   UNL d   1     -40.560  15.711  18.669  0.00  0.00     0.018 A 
ENDBRANCH   2   7
BRANCH   1  14
ATOM     14  S   UNL d   1     -39.105  14.074  21.772  0.00  0.00     0.337 S 
ATOM     15  O   UNL d   1     -38.460  14.482  22.093  0.00  0.00    -0.181 OA
ATOM     16  O   UNL d   1     -39.451  13.447  22.192  0.00  0.00    -0.181 OA
BRANCH  14  17
ATOM     17  N   UNL d   1     -38.665  14.018  22.476  0.00  0.00    -0.213 N 
ATOM     18  C   UNL d   1     -38.204  13.357  22.620  0.00  0.00     0.113 C 
ATOM     19  C   UNL d   1     -38.695  14.636  23.034  0.00  0.00     0.113 C 
ENDBRANCH  14  17
ENDBRANCH   1  14
TORSDOF 3
ENDMDL
MODEL 5
REMARK VINA RESULT:      -5.5      9.038      9.594
REMARK  3 active torsions:
REMARK  status: ('A' for Active; 'I' for Inactive)
REMARK    1  A    between atoms: N_2  and  S_1 
REMARK    2  A    between atoms: N_4  and  S_1 
REMARK    3  A    between atoms: C_9  and  N_3 
ROOT
ATOM      1  N   UNL d   1     -40.381  15.016  18.252  0.00  0.00    -0.213 N 
ATOM      2  N   UNL d   1     -39.831  14.564  19.735  0.00  0.00    -0.301 N 
ATOM      3  C   UNL d   1     -40.067  14.274  18.360  0.00  0.00     0.112 A 
ATOM      4  C   UNL d   1     -40.432  15.568  18.889  0.00  0.00     0.112 A 
ATOM      5  C   UNL d   1     -39.791  14.047  19.104  0.00  0.00     0.100 A 
ATOM      6  C   UNL d   1     -40.156  15.341  19.633  0.00  0.00     0.100 A 
ENDROOT
BRANCH   2   7
ATOM      7  C   UNL d   1     -39.553  14.336  20.483  0.00  0.00     0.064 A 
ATOM      8  C   UNL d   1     -40.100  14.213  21.094  0.00  0.00     0.018 A 
ATOM      9  C   UNL d   1     -39.826  13.986  21.843  0.00  0.00     0.013 A 
ATOM     10  C   UNL d   1     -39.021  13.883  21.978  0.00  0.00     0.058 A 
ATOM     11  C   UNL d   1     -38.480  14.009  21.355  0.00  0.00     0.013 A 
ATOM     12 CL   UNL d   1     -38.748  13.655  22.727  0.00  0.00    -0.082 Cl
ATOM     13  C   UNL d   1     -38.750  14.235  20.613  0.00  0.00     0.018 A 
ENDBRANCH   2   7
BRANCH   1  14
ATOM     14  S   UNL d   1     -40.662  15.247  17.493  0.00  0.00     0.337 S 
ATOM     15  O   UNL d   1     -40.356  15.922  17.124  0.00  0.00    -0.181 OA
ATOM     16  O   UNL d   1     -41.248  14.797  17.112  0.00  0.00    -0.181 OA
BRANCH  14  17
ATOM     17  N   UNL d   1     -40.798  15.635  16.770  0.00  0.00    -0.213 N 
ATOM     18  C   UNL d   1     -41.545  15.922  16.592  0.00  0.00     0.113 C 
ATOM     19  C   UNL d   1     -40.174  15.732  16.227  0.00  0.00     0.113 C 
ENDBRANCH  14  17
ENDBRANCH   1  14
TORSDOF 3
ENDMDL
