MODEL 1
REMARK VINA RESULT:      -9.7      0.000      0.000
REMARK  3 active torsions:
REMARK  status: ('A' for Active; 'I' for Inactive)
REMARK    1  A    between atoms: N_2  and  S_1 
REMARK    2  A    between atoms: C_5  and  S_1 
REMARK    3  A    between atoms: C_4  and  N_3 
ROOT
ATOM      1  N   UNL d   1      51.138  34.122  52.810  0.00  0.00    -0.226 N 
ATOM      2  N   UNL d   1      52.543  33.716  53.574  0.00  0.00    -0.301 N 
ATOM      3  C   UNL d   1      51.147  33.516  53.363  0.00  0.00     0.111 A 
ATOM      4  C   UNL d   1      51.839  34.535  52.633  0.00  0.00     0.111 A 
ATOM      5  C   UNL d   1      51.850  33.313  53.745  0.00  0.00     0.100 A 
ATOM      6  C   UNL d   1      52.541  34.332  53.014  0.00  0.00     0.100 A 
ENDROOT
BRANCH   1   7
ATOM      7  S   UNL d   1      50.435  34.326  52.429  0.00  0.00     0.271 S 
ATOM      8  O   UNL d   1      50.087  34.490  53.157  0.00  0.00    -0.200 OA
ATOM      9  O   UNL d   1      50.784  34.161  51.699  0.00  0.00    -0.200 OA
BRANCH   7  10
ATOM     10  C   UNL d   1      49.732  34.529  52.047  0.00  0.00     0.104 A 
ATOM     11  C   UNL d   1      49.598  34.287  51.275  0.00  0.00     0.015 A 
ATOM     12  C   UNL d   1      48.896  34.490  50.894  0.00  0.00     0.030 A 
ATOM     13  C   UNL d   1      48.329  34.935  51.285  0.00  0.00     0.140 A 
ATOM     14  C   UNL d   1      48.459  35.183  52.069  0.00  0.00     0.030 A 
ATOM     15  F   UNL d   1      47.626  35.138  50.903  0.00  0.00    -0.204 F 
ATOM     16  C   UNL d   1      49.161  34.980  52.450  0.00  0.00     0.015 A 
ENDBRANCH   7  10
ENDBRANCH   1   7
BRANCH   2  17
ATOM     17  C   UNL d   1      53.242  33.514  53.953  0.00  0.00     0.064 A 
ATOM     18  C   UNL d   1      53.663  32.850  53.718  0.00  0.00     0.016 A 
ATOM     19  C   UNL d   1      54.366  32.647  54.099  0.00  0.00     0.001 A 
ATOM     20  C   UNL d   1      53.381  32.383  53.096  0.00  0.00     0.002 C 
ATOM     21  C   UNL d   1      54.646  33.108  54.716  0.00  0.00     0.000 A 
ATOM     22  C   UNL d   1      54.226  33.782  54.961  0.00  0.00     0.001 A 
ATOM     23  C   UNL d   1      53.524  33.985  54.579  0.00  0.00     0.016 A 
ATOM     24  C   UNL d   1      53.103  34.650  54.816  0.00  0.00     0.002 C 
ENDBRANCH   2  17
TORSDOF 3
ENDMDL
MODEL 2
REMARK VINA RESULT:      -7.5      2.056      4.923
REMARK  3 active torsions:
REMARK  status: ('A' for Active; 'I' for Inactive)
REMARK    1  A    between atoms: N_2  and  S_1 
REMARK    2  A    between atoms: C_5  and  S_1 
REMARK    3  A    between atoms: C_4  and  N_3 
ROOT
ATOM      1  N   UNL d   1      51.542  33.961  53.164  0.00  0.00    -0.226 N 
ATOM      2  N   UNL d   1      50.117  34.464  52.500  0.00  0.00    -0.301 N 
ATOM      3  C   UNL d   1      51.532  34.584  52.630  0.00  0.00     0.111 A 
ATOM      4  C   UNL d   1      50.832  33.580  53.373  0.00  0.00     0.111 A 
ATOM      5  C   UNL d   1      50.820  34.835  52.298  0.00  0.00     0.100 A 
ATOM      6  C   UNL d   1      50.119  33.831  53.041  0.00  0.00     0.100 A 
ENDROOT
BRANCH   1   7
ATOM      7  S   UNL d   1      52.254  33.710  53.496  0.00  0.00     0.271 S 
ATOM      8  O   UNL d   1      52.489  34.494  53.586  0.00  0.00    -0.200 OA
ATOM      9  O   UNL d   1      52.018  32.923  53.406  0.00  0.00    -0.200 OA
BRANCH   7  10
ATOM     10  C   UNL d   1      52.966  33.459  53.828  0.00  0.00     0.104 A 
ATOM     11  C   UNL d   1      53.193  33.727  54.569  0.00  0.00     0.015 A 
ATOM     12  C   UNL d   1      53.904  33.476  54.901  0.00  0.00     0.030 A 
ATOM     13  C   UNL d   1      54.389  32.956  54.491  0.00  0.00     0.140 A 
ATOM     14  C   UNL d   1      54.165  32.680  53.739  0.00  0.00     0.030 A 
ATOM     15  F   UNL d   1      55.101  32.705  54.823  0.00  0.00    -0.204 F 
ATOM     16  C   UNL d   1      53.454  32.931  53.407  0.00  0.00     0.015 A 
ENDBRANCH   7  10
ENDBRANCH   1   7
BRANCH   2  17
ATOM     17  C   UNL d   1      49.409  34.714  52.170  0.00  0.00     0.064 A 
ATOM     18  C   UNL d   1      49.214  34.503  51.401  0.00  0.00     0.016 A 
ATOM     19  C   UNL d   1      48.502  34.754  51.069  0.00  0.00     0.001 A 
ATOM     20  C   UNL d   1      49.735  34.037  50.958  0.00  0.00     0.002 C 
ATOM     21  C   UNL d   1      47.986  35.216  51.507  0.00  0.00     0.000 A 
ATOM     22  C   UNL d   1      48.175  35.434  52.286  0.00  0.00     0.001 A 
ATOM     23  C   UNL d   1      48.887  35.183  52.618  0.00  0.00     0.016 A 
ATOM     24  C   UNL d   1      49.081  35.394  53.388  0.00  0.00     0.002 C 
ENDBRANCH   2  17
TORSDOF 3
ENDMDL
