MODEL 1
REMARK VINA RESULT:      80.7      0.000      0.000
REMARK  9 active torsions:
REMARK  status: ('A' for Active; 'I' for Inactive)
REMARK    1  A    between atoms: N_4  and  C_1 
REMARK    2  A    between atoms: C_12  and  C_3 
REMARK       I    between atoms: C_11  and  N_4 
REMARK       I    between atoms: C_6  and  N_5 
REMARK    3  A    between atoms: O_27  and  C_6 
REMARK       I    between atoms: N_7  and  C_10 
REMARK    4  A    between atoms: C_10  and  C_28 
REMARK    5  A    between atoms: C_29  and  C_11 
REMARK    6  A    between atoms: C_25  and  C_18 
REMARK    7  A    between atoms: S_26  and  C_29 
REMARK    8  A    between atoms: C_28  and  S_26 
REMARK    9  A    between atoms: C_32  and  O_27 
ROOT
ATOM      1  N   UNL d   1      13.656  15.184  -5.916  0.00  0.00    -0.182 NA
ATOM      2  C   UNL d   1      13.332  15.900  -5.719  0.00  0.00     0.288 C 
ATOM      3  O   UNL d   1      12.887  15.977  -5.044  0.00  0.00    -0.265 OA
ENDROOT
BRANCH   1   4
ATOM      4  C   UNL d   1      13.533  14.538  -5.432  0.00  0.00     0.197 A 
ATOM      5  N   UNL d   1      13.840  14.435  -4.681  0.00  0.00    -0.221 NA
ATOM      6  C   UNL d   1      13.581  13.720  -4.398  0.00  0.00     0.090 A 
ATOM      7  C   UNL d   1      13.116  13.385  -4.977  0.00  0.00     0.058 A 
ATOM      8  S   UNL d   1      13.086  13.885  -5.610  0.00  0.00    -0.046 SA
BRANCH   6   9
ATOM      9  C   UNL d   1      13.755  13.402  -3.677  0.00  0.00     0.018 A 
ATOM     10  C   UNL d   1      13.275  13.551  -3.046  0.00  0.00     0.002 A 
ATOM     11  C   UNL d   1      13.445  13.234  -2.320  0.00  0.00     0.000 A 
ATOM     12  C   UNL d   1      14.101  12.766  -2.233  0.00  0.00     0.000 A 
ATOM     13  C   UNL d   1      14.586  12.616  -2.872  0.00  0.00     0.000 A 
ATOM     14  C   UNL d   1      14.405  12.937  -3.589  0.00  0.00     0.002 A 
BRANCH  12  15
ATOM     15  C   UNL d   1      14.282  12.438  -1.490  0.00  0.00     0.000 A 
ATOM     16  C   UNL d   1      15.034  12.106  -1.362  0.00  0.00     0.000 A 
ATOM     17  C   UNL d   1      15.218  11.779  -0.628  0.00  0.00     0.000 A 
ATOM     18  C   UNL d   1      14.648  11.784  -0.020  0.00  0.00     0.000 A 
ATOM     19  C   UNL d   1      13.898  12.118  -0.157  0.00  0.00     0.000 A 
ATOM     20  C   UNL d   1      13.721  12.445  -0.898  0.00  0.00     0.000 A 
ENDBRANCH  12  15
ENDBRANCH   6   9
ENDBRANCH   1   4
BRANCH   2  21
ATOM     21  C   UNL d   1      13.454  16.539  -6.200  0.00  0.00     0.098 C 
BRANCH  21  22
ATOM     22  S   UNL d   1      13.378  17.298  -5.802  0.00  0.00    -0.076 SA
BRANCH  22  23
ATOM     23  C   UNL d   1      13.536  18.027  -6.226  0.00  0.00     0.097 C 
BRANCH  23  24
ATOM     24  C   UNL d   1      14.312  18.376  -6.207  0.00  0.00     0.271 C 
ATOM     25  N   UNL d   1      14.404  19.206  -6.013  0.00  0.00    -0.269 N 
ATOM     26  C   UNL d   1      15.180  19.564  -5.992  0.00  0.00     0.102 A 
ATOM     27  C   UNL d   1      13.703  19.683  -5.837  0.00  0.00     0.102 A 
ATOM     28  C   UNL d   1      15.268  20.394  -5.798  0.00  0.00     0.104 A 
ATOM     29  N   UNL d   1      14.567  20.871  -5.622  0.00  0.00    -0.249 N 
ATOM     30  C   UNL d   1      13.794  20.512  -5.643  0.00  0.00     0.104 A 
ATOM     31  C   UNL d   1      14.654  21.671  -5.434  0.00  0.00     0.378 C 
ATOM     32  O   UNL d   1      15.406  22.017  -5.414  0.00  0.00    -0.237 OA
ATOM     33  O   UNL d   1      14.999  17.905  -6.381  0.00  0.00    -0.266 OA
BRANCH  31  34
ATOM     34  O   UNL d   1      13.983  22.127  -5.266  0.00  0.00    -0.257 OA
BRANCH  34  35
ATOM     35  C   UNL d   1      13.967  22.613  -4.599  0.00  0.00     0.128 C 
ATOM     36  C   UNL d   1      13.402  23.219  -4.530  0.00  0.00     0.029 C 
ENDBRANCH  34  35
ENDBRANCH  31  34
ENDBRANCH  23  24
ENDBRANCH  22  23
ENDBRANCH  21  22
ENDBRANCH   2  21
TORSDOF 9
ENDMDL
MODEL 2
REMARK VINA RESULT:      83.6      1.601      8.325
REMARK  9 active torsions:
REMARK  status: ('A' for Active; 'I' for Inactive)
REMARK    1  A    between atoms: N_4  and  C_1 
REMARK    2  A    between atoms: C_12  and  C_3 
REMARK       I    between atoms: C_11  and  N_4 
REMARK       I    between atoms: C_6  and  N_5 
REMARK    3  A    between atoms: O_27  and  C_6 
REMARK       I    between atoms: N_7  and  C_10 
REMARK    4  A    between atoms: C_10  and  C_28 
REMARK    5  A    between atoms: C_29  and  C_11 
REMARK    6  A    between atoms: C_25  and  C_18 
REMARK    7  A    between atoms: S_26  and  C_29 
REMARK    8  A    between atoms: C_28  and  S_26 
REMARK    9  A    between atoms: C_32  and  O_27 
ROOT
ATOM      1  N   UNL d   1      14.921  18.322  -5.475  0.00  0.00    -0.182 NA
ATOM      2  C   UNL d   1      14.381  17.734  -5.335  0.00  0.00     0.288 C 
ATOM      3  O   UNL d   1      13.585  17.893  -5.363  0.00  0.00    -0.265 OA
ENDROOT
BRANCH   1   4
ATOM      4  C   UNL d   1      14.661  19.077  -5.645  0.00  0.00     0.197 A 
ATOM      5  N   UNL d   1      14.493  19.662  -5.100  0.00  0.00    -0.221 NA
ATOM      6  C   UNL d   1      14.253  20.323  -5.504  0.00  0.00     0.090 A 
ATOM      7  C   UNL d   1      14.273  20.142  -6.297  0.00  0.00     0.058 A 
ATOM      8  S   UNL d   1      14.523  19.379  -6.385  0.00  0.00    -0.046 SA
BRANCH   6   9
ATOM      9  C   UNL d   1      14.034  21.028  -5.177  0.00  0.00     0.018 A 
ATOM     10  C   UNL d   1      14.554  21.645  -5.169  0.00  0.00     0.002 A 
ATOM     11  C   UNL d   1      14.338  22.354  -4.842  0.00  0.00     0.000 A 
ATOM     12  C   UNL d   1      13.598  22.439  -4.523  0.00  0.00     0.000 A 
ATOM     13  C   UNL d   1      13.074  21.814  -4.531  0.00  0.00     0.000 A 
ATOM     14  C   UNL d   1      13.300  21.113  -4.860  0.00  0.00     0.002 A 
BRANCH  12  15
ATOM     15  C   UNL d   1      13.371  23.165  -4.185  0.00  0.00     0.000 A 
ATOM     16  C   UNL d   1      13.475  23.867  -4.620  0.00  0.00     0.000 A 
ATOM     17  C   UNL d   1      13.252  24.589  -4.289  0.00  0.00     0.000 A 
ATOM     18  C   UNL d   1      12.925  24.609  -3.524  0.00  0.00     0.000 A 
ATOM     19  C   UNL d   1      12.825  23.901  -3.096  0.00  0.00     0.000 A 
ATOM     20  C   UNL d   1      13.051  23.180  -3.435  0.00  0.00     0.000 A 
ENDBRANCH  12  15
ENDBRANCH   6   9
ENDBRANCH   1   4
BRANCH   2  21
ATOM     21  C   UNL d   1      14.640  16.986  -5.167  0.00  0.00     0.098 C 
BRANCH  21  22
ATOM     22  S   UNL d   1      14.021  16.453  -4.895  0.00  0.00    -0.076 SA
BRANCH  22  23
ATOM     23  C   UNL d   1      14.213  15.647  -4.672  0.00  0.00     0.097 C 
BRANCH  23  24
ATOM     24  C   UNL d   1      13.629  15.031  -4.741  0.00  0.00     0.271 C 
ATOM     25  N   UNL d   1      13.647  14.361  -4.206  0.00  0.00    -0.269 N 
ATOM     26  C   UNL d   1      13.065  13.739  -4.269  0.00  0.00     0.102 A 
ATOM     27  C   UNL d   1      14.262  14.318  -3.598  0.00  0.00     0.102 A 
ATOM     28  C   UNL d   1      13.087  13.071  -3.732  0.00  0.00     0.104 A 
ATOM     29  N   UNL d   1      13.701  13.027  -3.124  0.00  0.00    -0.249 N 
ATOM     30  C   UNL d   1      14.282  13.650  -3.062  0.00  0.00     0.104 A 
ATOM     31  C   UNL d   1      13.721  12.383  -2.607  0.00  0.00     0.378 C 
ATOM     32  O   UNL d   1      13.156  11.781  -2.669  0.00  0.00    -0.237 OA
ATOM     33  O   UNL d   1      13.026  15.076  -5.340  0.00  0.00    -0.266 OA
BRANCH  31  34
ATOM     34  O   UNL d   1      14.309  12.342  -2.026  0.00  0.00    -0.257 OA
BRANCH  34  35
ATOM     35  C   UNL d   1      14.166  11.945  -1.316  0.00  0.00     0.128 C 
ATOM     36  C   UNL d   1      14.581  12.149  -0.625  0.00  0.00     0.029 C 
ENDBRANCH  34  35
ENDBRANCH  31  34
ENDBRANCH  23  24
ENDBRANCH  22  23
ENDBRANCH  21  22
ENDBRANCH   2  21
TORSDOF 9
ENDMDL
