MODEL 1
REMARK VINA RESULT:      -4.6      0.000      0.000
REMARK  0 active torsions:
REMARK  status: ('A' for Active; 'I' for Inactive)
ROOT
ATOM      1  C   UNL d   1      57.771  -0.974  30.570  0.00  0.00     0.150 A 
ATOM      2  N   UNL d   1      58.300  -0.535  30.102  0.00  0.00    -0.275 N 
ATOM      3  N   UNL d   1      57.783  -1.751  30.329  0.00  0.00    -0.227 NA
ATOM      4  C   UNL d   1      58.435   0.259  30.182  0.00  0.00     0.149 A 
ATOM      5  N   UNL d   1      58.024   0.667  30.766  0.00  0.00    -0.228 NA
ATOM      6  C   UNL d   1      57.366  -0.548  31.151  0.00  0.00     0.052 A 
ATOM      7  C   UNL d   1      58.625  -1.095  29.572  0.00  0.00     0.084 A 
ATOM      8  C   UNL d   1      57.494   0.282  31.250  0.00  0.00     0.086 A 
ATOM      9  C   UNL d   1      58.326  -1.807  29.701  0.00  0.00     0.099 A 
ATOM     10  C   UNL d   1      58.963   0.676  29.709  0.00  0.00     0.041 C 
ATOM     11  C   UNL d   1      56.826  -0.953  31.642  0.00  0.00     0.004 A 
ATOM     12  C   UNL d   1      59.195  -0.989  28.960  0.00  0.00     0.019 A 
ATOM     13  C   UNL d   1      57.080   0.681  31.834  0.00  0.00     0.019 A 
ATOM     14  C   UNL d   1      58.569  -2.451  29.239  0.00  0.00     0.021 A 
ATOM     15  C   UNL d   1      56.421  -0.528  32.223  0.00  0.00     0.000 A 
ATOM     16  C   UNL d   1      59.429  -1.655  28.502  0.00  0.00     0.002 A 
ATOM     17  C   UNL d   1      59.126  -2.343  28.642  0.00  0.00     0.002 A 
ATOM     18  C   UNL d   1      56.547   0.277  32.317  0.00  0.00     0.002 A 
ENDROOT
TORSDOF 0
ENDMDL
MODEL 2
REMARK VINA RESULT:      -4.4      2.402      4.634
REMARK  0 active torsions:
REMARK  status: ('A' for Active; 'I' for Inactive)
ROOT
ATOM      1  C   UNL d   1      56.376   0.675  32.641  0.00  0.00     0.150 A 
ATOM      2  N   UNL d   1      56.622   0.676  33.435  0.00  0.00    -0.275 N 
ATOM      3  N   UNL d   1      55.563   0.676  32.613  0.00  0.00    -0.227 NA
ATOM      4  C   UNL d   1      57.394   0.675  33.677  0.00  0.00     0.149 A 
ATOM      5  N   UNL d   1      57.983   0.673  33.103  0.00  0.00    -0.228 NA
ATOM      6  C   UNL d   1      56.981   0.673  32.077  0.00  0.00     0.052 A 
ATOM      7  C   UNL d   1      55.910   0.678  33.875  0.00  0.00     0.084 A 
ATOM      8  C   UNL d   1      57.793   0.672  32.312  0.00  0.00     0.086 A 
ATOM      9  C   UNL d   1      55.288   0.678  33.398  0.00  0.00     0.099 A 
ATOM     10  C   UNL d   1      57.618   0.676  34.469  0.00  0.00     0.041 C 
ATOM     11  C   UNL d   1      56.774   0.672  31.268  0.00  0.00     0.004 A 
ATOM     12  C   UNL d   1      55.793   0.679  34.710  0.00  0.00     0.019 A 
ATOM     13  C   UNL d   1      58.374   0.670  31.732  0.00  0.00     0.019 A 
ATOM     14  C   UNL d   1      54.521   0.680  33.714  0.00  0.00     0.021 A 
ATOM     15  C   UNL d   1      57.378   0.670  30.704  0.00  0.00     0.000 A 
ATOM     16  C   UNL d   1      55.007   0.681  35.011  0.00  0.00     0.002 A 
ATOM     17  C   UNL d   1      54.412   0.681  34.530  0.00  0.00     0.002 A 
ATOM     18  C   UNL d   1      58.166   0.669  30.934  0.00  0.00     0.002 A 
ENDROOT
TORSDOF 0
ENDMDL
MODEL 3
REMARK VINA RESULT:      -4.2      2.191      3.247
REMARK  0 active torsions:
REMARK  status: ('A' for Active; 'I' for Inactive)
ROOT
ATOM      1  C   UNL d   1      56.488   0.680  32.624  0.00  0.00     0.150 A 
ATOM      2  N   UNL d   1      57.304   0.680  32.780  0.00  0.00    -0.275 N 
ATOM      3  N   UNL d   1      56.370   0.680  31.819  0.00  0.00    -0.227 NA
ATOM      4  C   UNL d   1      57.631   0.680  33.521  0.00  0.00     0.149 A 
ATOM      5  N   UNL d   1      57.126   0.679  34.169  0.00  0.00    -0.228 NA
ATOM      6  C   UNL d   1      55.995   0.679  33.288  0.00  0.00     0.052 A 
ATOM      7  C   UNL d   1      57.662   0.681  32.024  0.00  0.00     0.084 A 
ATOM      8  C   UNL d   1      56.318   0.679  34.069  0.00  0.00     0.086 A 
ATOM      9  C   UNL d   1      57.120   0.681  31.459  0.00  0.00     0.099 A 
ATOM     10  C   UNL d   1      58.443   0.680  33.655  0.00  0.00     0.041 C 
ATOM     11  C   UNL d   1      55.168   0.679  33.172  0.00  0.00     0.004 A 
ATOM     12  C   UNL d   1      58.479   0.681  31.815  0.00  0.00     0.019 A 
ATOM     13  C   UNL d   1      55.806   0.679  34.710  0.00  0.00     0.019 A 
ATOM     14  C   UNL d   1      57.349   0.681  30.662  0.00  0.00     0.021 A 
ATOM     15  C   UNL d   1      54.674   0.679  33.835  0.00  0.00     0.000 A 
ATOM     16  C   UNL d   1      58.691   0.681  31.000  0.00  0.00     0.002 A 
ATOM     17  C   UNL d   1      58.147   0.681  30.463  0.00  0.00     0.002 A 
ATOM     18  C   UNL d   1      54.990   0.678  34.592  0.00  0.00     0.002 A 
ENDROOT
TORSDOF 0
ENDMDL
MODEL 4
REMARK VINA RESULT:      -4.0      0.550      3.182
REMARK  0 active torsions:
REMARK  status: ('A' for Active; 'I' for Inactive)
ROOT
ATOM      1  C   UNL d   1      58.139  -1.363  30.121  0.00  0.00     0.150 A 
ATOM      2  N   UNL d   1      58.222  -0.536  30.095  0.00  0.00    -0.275 N 
ATOM      3  N   UNL d   1      57.624  -1.559  30.719  0.00  0.00    -0.227 NA
ATOM      4  C   UNL d   1      58.692  -0.138  29.569  0.00  0.00     0.149 A 
ATOM      5  N   UNL d   1      59.118  -0.576  29.018  0.00  0.00    -0.228 NA
ATOM      6  C   UNL d   1      58.574  -1.786  29.561  0.00  0.00     0.052 A 
ATOM      7  C   UNL d   1      57.730  -0.255  30.710  0.00  0.00     0.084 A 
ATOM      8  C   UNL d   1      59.070  -1.388  29.003  0.00  0.00     0.086 A 
ATOM      9  C   UNL d   1      57.377  -0.850  31.078  0.00  0.00     0.099 A 
ATOM     10  C   UNL d   1      58.762   0.682  29.558  0.00  0.00     0.041 C 
ATOM     11  C   UNL d   1      58.516  -2.619  29.555  0.00  0.00     0.004 A 
ATOM     12  C   UNL d   1      57.580   0.535  30.961  0.00  0.00     0.019 A 
ATOM     13  C   UNL d   1      59.492  -1.833  28.458  0.00  0.00     0.019 A 
ATOM     14  C   UNL d   1      56.861  -0.702  31.710  0.00  0.00     0.021 A 
ATOM     15  C   UNL d   1      58.952  -3.044  28.996  0.00  0.00     0.000 A 
ATOM     16  C   UNL d   1      57.052   0.665  31.604  0.00  0.00     0.002 A 
ATOM     17  C   UNL d   1      56.717   0.072  31.951  0.00  0.00     0.002 A 
ATOM     18  C   UNL d   1      59.432  -2.655  28.456  0.00  0.00     0.002 A 
ENDROOT
TORSDOF 0
ENDMDL
MODEL 5
REMARK VINA RESULT:      -3.6      9.305      9.551
REMARK  0 active torsions:
REMARK  status: ('A' for Active; 'I' for Inactive)
ROOT
ATOM      1  C   UNL d   1      59.351  -9.228  34.176  0.00  0.00     0.150 A 
ATOM      2  N   UNL d   1      59.848  -9.331  33.517  0.00  0.00    -0.275 N 
ATOM      3  N   UNL d   1      58.578  -9.331  33.945  0.00  0.00    -0.227 NA
ATOM      4  C   UNL d   1      60.654  -9.270  33.536  0.00  0.00     0.149 A 
ATOM      5  N   UNL d   1      61.016  -9.094  34.254  0.00  0.00    -0.228 NA
ATOM      6  C   UNL d   1      59.730  -9.052  34.889  0.00  0.00     0.052 A 
ATOM      7  C   UNL d   1      59.326  -9.500  32.886  0.00  0.00     0.084 A 
ATOM      8  C   UNL d   1      60.573  -8.984  34.927  0.00  0.00     0.086 A 
ATOM      9  C   UNL d   1      58.582  -9.501  33.131  0.00  0.00     0.099 A 
ATOM     10  C   UNL d   1      61.130  -9.375  32.873  0.00  0.00     0.041 C 
ATOM     11  C   UNL d   1      59.265  -8.941  35.573  0.00  0.00     0.004 A 
ATOM     12  C   UNL d   1      59.496  -9.658  32.075  0.00  0.00     0.019 A 
ATOM     13  C   UNL d   1      60.924  -8.808  35.648  0.00  0.00     0.019 A 
ATOM     14  C   UNL d   1      57.967  -9.656  32.597  0.00  0.00     0.021 A 
ATOM     15  C   UNL d   1      59.644  -8.765  36.286  0.00  0.00     0.000 A 
ATOM     16  C   UNL d   1      58.858  -9.813  31.548  0.00  0.00     0.002 A 
ATOM     17  C   UNL d   1      58.138  -9.810  31.806  0.00  0.00     0.002 A 
ATOM     18  C   UNL d   1      60.461  -8.700  36.322  0.00  0.00     0.002 A 
ENDROOT
TORSDOF 0
ENDMDL
MODEL 6
REMARK VINA RESULT:      -3.3      9.311     10.029
REMARK  0 active torsions:
REMARK  status: ('A' for Active; 'I' for Inactive)
ROOT
ATOM      1  C   UNL d   1      58.928  -9.813  33.344  0.00  0.00     0.150 A 
ATOM      2  N   UNL d   1      59.759  -9.808  33.359  0.00  0.00    -0.275 N 
ATOM      3  N   UNL d   1      58.647  -9.817  34.107  0.00  0.00    -0.227 NA
ATOM      4  C   UNL d   1      60.231  -9.802  32.702  0.00  0.00     0.149 A 
ATOM      5  N   UNL d   1      59.870  -9.802  31.963  0.00  0.00    -0.228 NA
ATOM      6  C   UNL d   1      58.582  -9.813  32.593  0.00  0.00     0.052 A 
ATOM      7  C   UNL d   1      59.954  -9.809  34.173  0.00  0.00     0.084 A 
ATOM      8  C   UNL d   1      59.059  -9.807  31.895  0.00  0.00     0.086 A 
ATOM      9  C   UNL d   1      59.307  -9.815  34.614  0.00  0.00     0.099 A 
ATOM     10  C   UNL d   1      61.053  -9.797  32.737  0.00  0.00     0.041 C 
ATOM     11  C   UNL d   1      57.749  -9.818  32.536  0.00  0.00     0.004 A 
ATOM     12  C   UNL d   1      60.710  -9.805  34.545  0.00  0.00     0.019 A 
ATOM     13  C   UNL d   1      58.690  -9.807  31.162  0.00  0.00     0.019 A 
ATOM     14  C   UNL d   1      59.366  -9.817  35.442  0.00  0.00     0.021 A 
ATOM     15  C   UNL d   1      57.402  -9.818  31.786  0.00  0.00     0.000 A 
ATOM     16  C   UNL d   1      60.750  -9.808  35.386  0.00  0.00     0.002 A 
ATOM     17  C   UNL d   1      60.107  -9.814  35.801  0.00  0.00     0.002 A 
ATOM     18  C   UNL d   1      57.867  -9.812  31.110  0.00  0.00     0.002 A 
ENDROOT
TORSDOF 0
ENDMDL
MODEL 7
REMARK VINA RESULT:      -3.1      1.674      3.670
REMARK  0 active torsions:
REMARK  status: ('A' for Active; 'I' for Inactive)
ROOT
ATOM      1  C   UNL d   1      59.047  -1.953  29.152  0.00  0.00     0.150 A 
ATOM      2  N   UNL d   1      59.699  -1.443  29.235  0.00  0.00    -0.275 N 
ATOM      3  N   UNL d   1      58.366  -1.544  29.329  0.00  0.00    -0.227 NA
ATOM      4  C   UNL d   1      60.469  -1.657  29.104  0.00  0.00     0.149 A 
ATOM      5  N   UNL d   1      60.625  -2.431  28.873  0.00  0.00    -0.228 NA
ATOM      6  C   UNL d   1      59.222  -2.726  28.919  0.00  0.00     0.052 A 
ATOM      7  C   UNL d   1      59.367  -0.713  29.470  0.00  0.00     0.084 A 
ATOM      8  C   UNL d   1      60.020  -2.967  28.778  0.00  0.00     0.086 A 
ATOM      9  C   UNL d   1      58.587  -0.767  29.527  0.00  0.00     0.099 A 
ATOM     10  C   UNL d   1      61.102  -1.139  29.192  0.00  0.00     0.041 C 
ATOM     11  C   UNL d   1      58.594  -3.268  28.824  0.00  0.00     0.004 A 
ATOM     12  C   UNL d   1      59.745   0.021  29.642  0.00  0.00     0.019 A 
ATOM     13  C   UNL d   1      60.166  -3.741  28.547  0.00  0.00     0.019 A 
ATOM     14  C   UNL d   1      58.139  -0.107  29.753  0.00  0.00     0.021 A 
ATOM     15  C   UNL d   1      58.767  -4.041  28.591  0.00  0.00     0.000 A 
ATOM     16  C   UNL d   1      59.273   0.679  29.870  0.00  0.00     0.002 A 
ATOM     17  C   UNL d   1      58.513   0.607  29.919  0.00  0.00     0.002 A 
ATOM     18  C   UNL d   1      59.543  -4.273  28.455  0.00  0.00     0.002 A 
ENDROOT
TORSDOF 0
ENDMDL
MODEL 8
REMARK VINA RESULT:      -2.8      9.198      9.507
REMARK  0 active torsions:
REMARK  status: ('A' for Active; 'I' for Inactive)
ROOT
ATOM      1  C   UNL d   1      57.780  -9.792  30.780  0.00  0.00     0.150 A 
ATOM      2  N   UNL d   1      58.610  -9.801  30.826  0.00  0.00    -0.275 N 
ATOM      3  N   UNL d   1      57.471  -9.789  31.532  0.00  0.00    -0.227 NA
ATOM      4  C   UNL d   1      59.106  -9.806  30.187  0.00  0.00     0.149 A 
ATOM      5  N   UNL d   1      58.773  -9.802  29.435  0.00  0.00    -0.228 NA
ATOM      6  C   UNL d   1      57.462  -9.789  30.017  0.00  0.00     0.052 A 
ATOM      7  C   UNL d   1      58.774  -9.803  31.647  0.00  0.00     0.084 A 
ATOM      8  C   UNL d   1      57.965  -9.794  29.337  0.00  0.00     0.086 A 
ATOM      9  C   UNL d   1      58.111  -9.796  32.064  0.00  0.00     0.099 A 
ATOM     10  C   UNL d   1      59.926  -9.814  30.253  0.00  0.00     0.041 C 
ATOM     11  C   UNL d   1      56.632  -9.780  29.929  0.00  0.00     0.004 A 
ATOM     12  C   UNL d   1      59.516  -9.810  32.047  0.00  0.00     0.019 A 
ATOM     13  C   UNL d   1      57.624  -9.790  28.591  0.00  0.00     0.019 A 
ATOM     14  C   UNL d   1      58.140  -9.796  32.893  0.00  0.00     0.021 A 
ATOM     15  C   UNL d   1      56.313  -9.777  29.166  0.00  0.00     0.000 A 
ATOM     16  C   UNL d   1      59.525  -9.810  32.889  0.00  0.00     0.002 A 
ATOM     17  C   UNL d   1      58.867  -9.804  33.279  0.00  0.00     0.002 A 
ATOM     18  C   UNL d   1      56.803  -9.782  28.508  0.00  0.00     0.002 A 
ENDROOT
TORSDOF 0
ENDMDL
MODEL 9
REMARK VINA RESULT:      -2.8      9.197      9.512
REMARK  0 active torsions:
REMARK  status: ('A' for Active; 'I' for Inactive)
ROOT
ATOM      1  C   UNL d   1      59.632  -9.812  32.099  0.00  0.00     0.150 A 
ATOM      2  N   UNL d   1      58.872  -9.812  31.761  0.00  0.00    -0.275 N 
ATOM      3  N   UNL d   1      60.188  -9.812  31.505  0.00  0.00    -0.227 NA
ATOM      4  C   UNL d   1      58.181  -9.812  32.183  0.00  0.00     0.149 A 
ATOM      5  N   UNL d   1      58.226  -9.814  33.004  0.00  0.00    -0.228 NA
ATOM      6  C   UNL d   1      59.658  -9.814  32.925  0.00  0.00     0.052 A 
ATOM      7  C   UNL d   1      59.010  -9.810  30.936  0.00  0.00     0.084 A 
ATOM      8  C   UNL d   1      58.946  -9.814  33.382  0.00  0.00     0.086 A 
ATOM      9  C   UNL d   1      59.778  -9.810  30.781  0.00  0.00     0.099 A 
ATOM     10  C   UNL d   1      57.438  -9.811  31.830  0.00  0.00     0.041 C 
ATOM     11  C   UNL d   1      60.403  -9.815  33.302  0.00  0.00     0.004 A 
ATOM     12  C   UNL d   1      58.458  -9.809  30.298  0.00  0.00     0.019 A 
ATOM     13  C   UNL d   1      59.000  -9.816  34.201  0.00  0.00     0.019 A 
ATOM     14  C   UNL d   1      60.045  -9.809  29.996  0.00  0.00     0.021 A 
ATOM     15  C   UNL d   1      60.430  -9.816  34.128  0.00  0.00     0.000 A 
ATOM     16  C   UNL d   1      58.749  -9.808  29.508  0.00  0.00     0.002 A 
ATOM     17  C   UNL d   1      59.503  -9.808  29.377  0.00  0.00     0.002 A 
ATOM     18  C   UNL d   1      59.738  -9.817  34.570  0.00  0.00     0.002 A 
ENDROOT
TORSDOF 0
ENDMDL
