MODEL 1
REMARK VINA RESULT:      -1.8      0.000      0.000
REMARK  4 active torsions:
REMARK  status: ('A' for Active; 'I' for Inactive)
REMARK    1  A    between atoms: N_7  and  C_1 
REMARK    2  A    between atoms: S_3  and  N_7 
REMARK    3  A    between atoms: N_8  and  S_3 
REMARK    4  A    between atoms: C_12  and  N_5 
ROOT
ATOM      1  C   UNL d   1      30.840  16.936 -24.622  0.00  0.00     0.170 A 
ATOM      2  C   UNL d   1      30.076  17.060 -24.614  0.00  0.00     0.299 A 
ATOM      3  N   UNL d   1      30.379  16.098 -23.859  0.00  0.00    -0.238 N 
ATOM      4  N   UNL d   1      29.769  16.494 -24.100  0.00  0.00    -0.209 N 
ATOM      5  C   UNL d   1      31.099  16.391 -24.206  0.00  0.00     0.105 A 
ATOM      6  O   UNL d   1      29.647  17.642 -25.035  0.00  0.00    -0.263 OA
ATOM      7  C   UNL d   1      30.340  15.453 -23.317  0.00  0.00     0.120 C 
ATOM      8  C   UNL d   1      31.590  15.955 -23.915  0.00  0.00     0.022 C 
ENDROOT
BRANCH   1   9
ATOM      9  N   UNL d   1      31.393  17.375 -25.066  0.00  0.00    -0.137 NA
BRANCH   9  10
ATOM     10  S   UNL d   1      31.903  17.932 -24.692  0.00  0.00     0.351 S 
ATOM     11  O   UNL d   1      32.393  17.333 -24.356  0.00  0.00    -0.180 OA
ATOM     12  O   UNL d   1      31.415  18.523 -25.027  0.00  0.00    -0.180 OA
BRANCH  10  13
ATOM     13  N   UNL d   1      32.347  18.553 -24.363  0.00  0.00    -0.215 N 
ATOM     14  C   UNL d   1      32.764  19.085 -24.866  0.00  0.00     0.093 A 
ATOM     15  C   UNL d   1      33.207  19.705 -24.532  0.00  0.00     0.020 A 
ATOM     16  C   UNL d   1      33.241  19.803 -23.700  0.00  0.00     0.003 A 
ATOM     17  C   UNL d   1      32.827  19.276 -23.202  0.00  0.00     0.020 A 
ATOM     18  C   UNL d   1      32.376  18.644 -23.533  0.00  0.00     0.093 A 
ENDBRANCH  10  13
ENDBRANCH   9  10
ENDBRANCH   1   9
BRANCH   4  19
ATOM     19  C   UNL d   1      28.981  16.318 -23.840  0.00  0.00     0.085 A 
ATOM     20  C   UNL d   1      28.594  15.677 -24.185  0.00  0.00     0.019 A 
ATOM     21  C   UNL d   1      27.824  15.499 -23.937  0.00  0.00     0.002 A 
ATOM     22  C   UNL d   1      27.474  15.963 -23.358  0.00  0.00     0.000 A 
ATOM     23  C   UNL d   1      27.882  16.572 -23.051  0.00  0.00     0.002 A 
ATOM     24  C   UNL d   1      28.647  16.742 -23.304  0.00  0.00     0.019 A 
ENDBRANCH   4  19
TORSDOF 4
ENDMDL
MODEL 2
REMARK VINA RESULT:      -1.6      1.795      4.894
REMARK  4 active torsions:
REMARK  status: ('A' for Active; 'I' for Inactive)
REMARK    1  A    between atoms: N_7  and  C_1 
REMARK    2  A    between atoms: S_3  and  N_7 
REMARK    3  A    between atoms: N_8  and  S_3 
REMARK    4  A    between atoms: C_12  and  N_5 
ROOT
ATOM      1  C   UNL d   1      33.135  19.322 -23.509  0.00  0.00     0.170 A 
ATOM      2  C   UNL d   1      33.021  19.496 -22.763  0.00  0.00     0.299 A 
ATOM      3  N   UNL d   1      33.025  20.540 -23.469  0.00  0.00    -0.238 N 
ATOM      4  N   UNL d   1      32.948  20.317 -22.740  0.00  0.00    -0.209 N 
ATOM      5  C   UNL d   1      33.150  19.877 -23.988  0.00  0.00     0.105 A 
ATOM      6  O   UNL d   1      32.981  18.970 -22.114  0.00  0.00    -0.263 OA
ATOM      7  C   UNL d   1      32.990  21.344 -23.723  0.00  0.00     0.120 C 
ATOM      8  C   UNL d   1      33.207  20.200 -24.627  0.00  0.00     0.022 C 
ENDROOT
BRANCH   1   9
ATOM      9  N   UNL d   1      33.240  18.552 -23.812  0.00  0.00    -0.137 NA
BRANCH   9  10
ATOM     10  S   UNL d   1      32.583  18.035 -23.914  0.00  0.00     0.351 S 
ATOM     11  O   UNL d   1      32.278  18.471 -24.568  0.00  0.00    -0.180 OA
ATOM     12  O   UNL d   1      32.889  17.605 -23.265  0.00  0.00    -0.180 OA
BRANCH  10  13
ATOM     13  N   UNL d   1      31.971  17.472 -23.937  0.00  0.00    -0.215 N 
ATOM     14  C   UNL d   1      31.240  17.661 -24.309  0.00  0.00     0.093 A 
ATOM     15  C   UNL d   1      30.630  17.095 -24.329  0.00  0.00     0.020 A 
ATOM     16  C   UNL d   1      30.740  16.339 -23.982  0.00  0.00     0.003 A 
ATOM     17  C   UNL d   1      31.466  16.152 -23.613  0.00  0.00     0.020 A 
ATOM     18  C   UNL d   1      32.089  16.722 -23.589  0.00  0.00     0.093 A 
ENDBRANCH  10  13
ENDBRANCH   9  10
ENDBRANCH   1   9
BRANCH   4  19
ATOM     19  C   UNL d   1      32.818  20.867 -22.108  0.00  0.00     0.085 A 
ATOM     20  C   UNL d   1      33.241  21.575 -22.117  0.00  0.00     0.019 A 
ATOM     21  C   UNL d   1      33.119  22.117 -21.503  0.00  0.00     0.002 A 
ATOM     22  C   UNL d   1      32.585  21.934 -20.908  0.00  0.00     0.000 A 
ATOM     23  C   UNL d   1      32.198  21.240 -20.937  0.00  0.00     0.002 A 
ATOM     24  C   UNL d   1      32.324  20.707 -21.551  0.00  0.00     0.019 A 
ENDBRANCH   4  19
TORSDOF 4
ENDMDL
