MODEL 1
REMARK VINA RESULT:      41.7      0.000      0.000
REMARK  2 active torsions:
REMARK  status: ('A' for Active; 'I' for Inactive)
REMARK    1  A    between atoms: C_6  and  C_1 
REMARK    2  A    between atoms: O_16  and  C_13 
ROOT
ATOM      1  C   UNL d   1     -54.748-102.037 -39.253  0.00  0.00     0.148 A 
ATOM      2  N   UNL d   1     -54.740-101.386 -38.768  0.00  0.00    -0.289 N 
ATOM      3  N   UNL d   1     -54.742-102.708 -38.786  0.00  0.00    -0.225 NA
ATOM      4  C   UNL d   1     -54.727-101.633 -37.974  0.00  0.00     0.085 A 
ATOM      5  C   UNL d   1     -54.729-102.470 -37.996  0.00  0.00     0.118 A 
ATOM      6  C   UNL d   1     -54.742-100.534 -38.935  0.00  0.00     0.082 A 
ATOM      7  C   UNL d   1     -54.717-101.098 -37.362  0.00  0.00     0.019 A 
ATOM      8  C   UNL d   1     -54.731 -99.999 -38.323  0.00  0.00     0.019 A 
ATOM      9  C   UNL d   1     -54.718-100.278 -37.501  0.00  0.00     0.003 A 
ENDROOT
BRANCH   1  10
ATOM     10  C   UNL d   1     -54.762-101.944 -40.088  0.00  0.00     0.035 A 
ATOM     11  C   UNL d   1     -54.729-101.188 -40.431  0.00  0.00     0.005 A 
ATOM     12  C   UNL d   1     -54.743-101.105 -41.245  0.00  0.00     0.024 A 
ATOM     13  C   UNL d   1     -54.788-101.769 -41.731  0.00  0.00     0.094 A 
ATOM     14  C   UNL d   1     -54.820-102.509 -41.399  0.00  0.00     0.024 A 
ATOM     15  C   UNL d   1     -54.807-102.606 -40.569  0.00  0.00     0.005 A 
BRANCH  13  16
ATOM     16  O   UNL d   1     -54.803-101.708 -42.577  0.00  0.00    -0.328 OA
ATOM     17  C   UNL d   1     -54.980-102.366 -43.043  0.00  0.00     0.181 C 
ENDBRANCH  13  16
ENDBRANCH   1  10
TORSDOF 2
ENDMDL
