MODEL 1
REMARK VINA RESULT:     126.5      0.000      0.000
REMARK  6 active torsions:
REMARK  status: ('A' for Active; 'I' for Inactive)
REMARK    1  A    between atoms: C_13  and  C_4 
REMARK    2  A    between atoms: C_20  and  C_7 
REMARK    3  A    between atoms: C_8  and  C_12 
REMARK       I    between atoms: N_9  and  C_8 
REMARK    4  A    between atoms: C_11  and  N_9 
REMARK       I    between atoms: C_12  and  N_19 
REMARK    5  A    between atoms: N_19  and  C_23 
REMARK    6  A    between atoms: C_23  and  C_20 
ROOT
ATOM      1  C   UNL d   1      61.801  46.389  49.840  0.00  0.00     0.041 C 
ENDROOT
BRANCH   1   2
ATOM      2  C   UNL d   1      61.782  47.204  49.715  0.00  0.00     0.093 A 
ATOM      3  N   UNL d   1      61.427  47.763  50.201  0.00  0.00    -0.205 N 
ATOM      4  C   UNL d   1      61.538  48.512  49.870  0.00  0.00     0.197 A 
ATOM      5  N   UNL d   1      60.994  47.861  50.906  0.00  0.00    -0.144 NA
ATOM      6  N   UNL d   1      61.179  49.069  50.365  0.00  0.00    -0.200 NA
ATOM      7  S   UNL d   1      61.967  48.415  49.172  0.00  0.00    -0.046 SA
ATOM      8  C   UNL d   1      60.844  48.670  51.003  0.00  0.00     0.184 A 
ATOM      9  C   UNL d   1      62.117  47.607  49.076  0.00  0.00     0.058 A 
BRANCH   8  10
ATOM     10  C   UNL d   1      60.431  49.017  51.626  0.00  0.00     0.038 A 
ATOM     11  C   UNL d   1      59.676  49.314  51.503  0.00  0.00     0.003 A 
ATOM     12  C   UNL d   1      59.332  49.266  50.759  0.00  0.00     0.000 C 
ATOM     13  C   UNL d   1      59.261  49.663  52.130  0.00  0.00     0.000 A 
ATOM     14  C   UNL d   1      59.616  49.708  52.878  0.00  0.00     0.000 A 
ATOM     15  C   UNL d   1      60.372  49.410  53.002  0.00  0.00     0.000 A 
ATOM     16  C   UNL d   1      60.785  49.062  52.373  0.00  0.00     0.003 A 
ENDBRANCH   8  10
ENDBRANCH   1   2
BRANCH   1  17
ATOM     17  C   UNL d   1      62.097  45.888  49.256  0.00  0.00     0.104 C 
BRANCH  17  18
ATOM     18  N   UNL d   1      62.417  45.166  49.460  0.00  0.00    -0.202 NA
ATOM     19  C   UNL d   1      62.016  44.470  49.278  0.00  0.00     0.337 C 
ATOM     20  O   UNL d   1      61.290  44.505  48.889  0.00  0.00    -0.260 OA
BRANCH  19  21
ATOM     21  C   UNL d   1      62.336  43.747  49.482  0.00  0.00     0.337 C 
ATOM     22  N   UNL d   1      62.169  43.401  50.218  0.00  0.00    -0.204 NA
ATOM     23  O   UNL d   1      62.841  43.344  48.948  0.00  0.00    -0.260 OA
BRANCH  22  24
ATOM     24  C   UNL d   1      62.492  42.670  50.424  0.00  0.00     0.085 A 
ATOM     25  C   UNL d   1      62.717  42.528  51.214  0.00  0.00     0.018 A 
ATOM     26  C   UNL d   1      63.038  41.816  51.441  0.00  0.00     0.002 A 
ATOM     27  C   UNL d   1      62.615  43.114  51.781  0.00  0.00     0.002 C 
ATOM     28  C   UNL d   1      63.147  41.209  50.871  0.00  0.00     0.000 A 
ATOM     29  C   UNL d   1      62.920  41.353  50.072  0.00  0.00     0.002 A 
ATOM     30  C   UNL d   1      62.592  42.090  49.860  0.00  0.00     0.019 A 
ATOM     31  C   UNL d   1      63.021  40.769  49.509  0.00  0.00     0.000 C 
ENDBRANCH  22  24
ENDBRANCH  19  21
ENDBRANCH  17  18
ENDBRANCH   1  17
TORSDOF 6
ENDMDL
MODEL 2
REMARK VINA RESULT:     128.2      2.533      6.415
REMARK  6 active torsions:
REMARK  status: ('A' for Active; 'I' for Inactive)
REMARK    1  A    between atoms: C_13  and  C_4 
REMARK    2  A    between atoms: C_20  and  C_7 
REMARK    3  A    between atoms: C_8  and  C_12 
REMARK       I    between atoms: N_9  and  C_8 
REMARK    4  A    between atoms: C_11  and  N_9 
REMARK       I    between atoms: C_12  and  N_19 
REMARK    5  A    between atoms: N_19  and  C_23 
REMARK    6  A    between atoms: C_23  and  C_20 
ROOT
ATOM      1  C   UNL d   1      61.147  48.771  50.519  0.00  0.00     0.041 C 
ENDROOT
BRANCH   1   2
ATOM      2  C   UNL d   1      61.543  48.187  50.091  0.00  0.00     0.093 A 
ATOM      3  N   UNL d   1      61.455  47.375  50.178  0.00  0.00    -0.205 N 
ATOM      4  C   UNL d   1      61.955  46.994  49.641  0.00  0.00     0.197 A 
ATOM      5  N   UNL d   1      61.050  46.786  50.606  0.00  0.00    -0.144 NA
ATOM      6  N   UNL d   1      61.861  46.178  49.735  0.00  0.00    -0.200 NA
ATOM      7  S   UNL d   1      62.356  47.578  49.217  0.00  0.00    -0.046 SA
ATOM      8  C   UNL d   1      61.305  46.048  50.328  0.00  0.00     0.184 A 
ATOM      9  C   UNL d   1      62.101  48.314  49.496  0.00  0.00     0.058 A 
BRANCH   8  10
ATOM     10  C   UNL d   1      61.048  45.312  50.596  0.00  0.00     0.038 A 
ATOM     11  C   UNL d   1      60.854  45.209  51.388  0.00  0.00     0.003 A 
ATOM     12  C   UNL d   1      60.916  45.838  51.911  0.00  0.00     0.000 C 
ATOM     13  C   UNL d   1      60.596  44.469  51.657  0.00  0.00     0.000 A 
ATOM     14  C   UNL d   1      60.536  43.838  51.121  0.00  0.00     0.000 A 
ATOM     15  C   UNL d   1      60.730  43.942  50.330  0.00  0.00     0.000 A 
ATOM     16  C   UNL d   1      60.988  44.683  50.061  0.00  0.00     0.003 A 
ENDBRANCH   8  10
ENDBRANCH   1   2
BRANCH   1  17
ATOM     17  C   UNL d   1      60.414  49.046  50.261  0.00  0.00     0.104 C 
BRANCH  17  18
ATOM     18  N   UNL d   1      59.761  48.988  50.747  0.00  0.00    -0.202 NA
ATOM     19  C   UNL d   1      59.007  49.121  50.443  0.00  0.00     0.337 C 
ATOM     20  O   UNL d   1      58.915  49.313  49.648  0.00  0.00    -0.260 OA
BRANCH  19  21
ATOM     21  C   UNL d   1      58.353  49.062  50.930  0.00  0.00     0.337 C 
ATOM     22  N   UNL d   1      58.118  49.700  51.405  0.00  0.00    -0.204 NA
ATOM     23  O   UNL d   1      57.909  48.351  50.954  0.00  0.00    -0.260 OA
BRANCH  22  24
ATOM     24  C   UNL d   1      57.458  49.641  51.896  0.00  0.00     0.085 A 
ATOM     25  C   UNL d   1      56.704  49.522  51.560  0.00  0.00     0.018 A 
ATOM     26  C   UNL d   1      56.039  49.461  52.023  0.00  0.00     0.002 A 
ATOM     27  C   UNL d   1      56.624  49.466  50.744  0.00  0.00     0.002 C 
ATOM     28  C   UNL d   1      56.108  49.517  52.858  0.00  0.00     0.000 A 
ATOM     29  C   UNL d   1      56.870  49.637  53.198  0.00  0.00     0.002 A 
ATOM     30  C   UNL d   1      57.540  49.698  52.705  0.00  0.00     0.019 A 
ATOM     31  C   UNL d   1      56.949  49.693  54.010  0.00  0.00     0.000 C 
ENDBRANCH  22  24
ENDBRANCH  19  21
ENDBRANCH  17  18
ENDBRANCH   1  17
TORSDOF 6
ENDMDL
