MODEL 1
REMARK VINA RESULT:      54.8      0.000      0.000
REMARK  4 active torsions:
REMARK  status: ('A' for Active; 'I' for Inactive)
REMARK    1  A    between atoms: C_15  and  N_5 
REMARK    2  A    between atoms: N_13  and  C_7 
REMARK    3  A    between atoms: C_18  and  N_13 
REMARK    4  A    between atoms: C_16  and  C_15 
ROOT
ATOM      1  N   UNL d   1     -58.672 -98.764 -45.091  0.00  0.00     0.039 N 
ATOM      2  C   UNL d   1     -59.195 -98.763 -44.455  0.00  0.00     0.755 A 
ATOM      3  C   UNL d   1     -57.865 -98.768 -44.976  0.00  0.00     0.134 A 
ATOM      4  C   UNL d   1     -57.558 -98.772 -44.207  0.00  0.00     0.081 A 
ATOM      5  N   UNL d   1     -58.889 -98.767 -43.682  0.00  0.00    -0.103 N 
ATOM      6  C   UNL d   1     -58.070 -98.771 -43.560  0.00  0.00     0.281 A 
ATOM      7  C   UNL d   1     -59.126 -98.760 -45.776  0.00  0.00     0.768 A 
ATOM      8  N   UNL d   1     -59.957 -98.759 -44.747  0.00  0.00     0.060 NA
ATOM      9  S   UNL d   1     -57.230 -98.770 -45.498  0.00  0.00    -0.068 SA
ATOM     10  N   UNL d   1     -59.917 -98.756 -45.566  0.00  0.00     0.061 NA
ATOM     11  C   UNL d   1     -56.734 -98.776 -44.256  0.00  0.00     0.013 A 
ATOM     12  C   UNL d   1     -56.532 -98.774 -45.054  0.00  0.00     0.031 A 
ATOM     13  O   UNL d   1     -57.762 -98.775 -42.791  0.00  0.00    -0.266 OA
ATOM     14  C   UNL d   1     -56.147 -98.780 -43.681  0.00  0.00     0.001 A 
ATOM     15  C   UNL d   1     -55.739 -98.778 -45.286  0.00  0.00     0.006 A 
ATOM     16  C   UNL d   1     -55.355 -98.783 -43.906  0.00  0.00     0.000 A 
ATOM     17  C   UNL d   1     -55.150 -98.782 -44.712  0.00  0.00     0.001 A 
ENDROOT
BRANCH   7  18
ATOM     18  N   UNL d   1     -58.830 -98.759 -46.552  0.00  0.00    -0.059 NA
BRANCH  18  19
ATOM     19  C   UNL d   1     -59.204 -99.207 -47.143  0.00  0.00     0.100 A 
ATOM     20  C   UNL d   1     -59.187 -98.938 -47.928  0.00  0.00     0.020 A 
ATOM     21  C   UNL d   1     -59.557 -99.379 -48.522  0.00  0.00     0.002 A 
ATOM     22  C   UNL d   1     -59.942-100.087 -48.325  0.00  0.00     0.000 A 
ATOM     23  C   UNL d   1     -59.957-100.354 -47.537  0.00  0.00     0.002 A 
ATOM     24  C   UNL d   1     -59.583 -99.906 -46.945  0.00  0.00     0.020 A 
ENDBRANCH  18  19
ENDBRANCH   7  18
BRANCH   5  25
ATOM     25  C   UNL d   1     -59.400 -98.766 -43.039  0.00  0.00     0.101 C 
BRANCH  25  26
ATOM     26  C   UNL d   1     -59.652 -99.477 -42.708  0.00  0.00     0.020 C 
ATOM     27  C   UNL d   1     -59.918 -99.506 -41.929  0.00  0.00     0.002 C 
ENDBRANCH  25  26
ENDBRANCH   5  25
TORSDOF 4
ENDMDL
