MODEL 1
REMARK VINA RESULT:      -2.7      0.000      0.000
REMARK  4 active torsions:
REMARK  status: ('A' for Active; 'I' for Inactive)
REMARK    1  A    between atoms: N_3  and  C_1 
REMARK    2  A    between atoms: C_7  and  C_2 
REMARK       I    between atoms: C_5  and  N_3 
REMARK    3  A    between atoms: C_4  and  C_5 
REMARK    4  A    between atoms: O_17  and  C_7 
ROOT
ATOM      1  N   UNL d   1      31.009  16.018 -24.569  0.00  0.00    -0.200 NA
ATOM      2  C   UNL d   1      31.807  16.123 -24.391  0.00  0.00     0.304 C 
ATOM      3  O   UNL d   1      32.284  15.453 -24.265  0.00  0.00    -0.263 OA
ENDROOT
BRANCH   2   4
ATOM      4  C   UNL d   1      32.121  16.884 -24.339  0.00  0.00     0.182 A 
ATOM      5  O   UNL d   1      32.188  17.244 -23.608  0.00  0.00    -0.298 OA
ATOM      6  C   UNL d   1      32.501  17.999 -23.563  0.00  0.00     0.123 A 
ATOM      7  C   UNL d   1      32.572  18.370 -22.826  0.00  0.00     0.027 A 
ATOM      8  C   UNL d   1      32.748  18.401 -24.229  0.00  0.00     0.123 A 
ATOM      9  C   UNL d   1      32.886  19.127 -22.777  0.00  0.00     0.002 A 
ATOM     10  C   UNL d   1      33.134  19.526 -23.459  0.00  0.00     0.002 A 
ATOM     11  C   UNL d   1      33.063  19.156 -24.195  0.00  0.00     0.027 A 
ATOM     12  O   UNL d   1      32.676  18.024 -24.972  0.00  0.00    -0.301 OA
ATOM     13  C   UNL d   1      32.362  17.265 -25.026  0.00  0.00     0.152 A 
ENDBRANCH   2   4
BRANCH   1  14
ATOM     14  C   UNL d   1      30.530  16.675 -24.695  0.00  0.00     0.119 A 
ATOM     15  C   UNL d   1      29.749  16.762 -24.436  0.00  0.00     0.087 A 
ATOM     16  C   UNL d   1      29.480  17.509 -24.685  0.00  0.00     0.014 A 
ATOM     17  C   UNL d   1      30.097  17.874 -25.094  0.00  0.00     0.037 A 
ATOM     18  S   UNL d   1      30.738  17.358 -25.097  0.00  0.00    -0.067 SA
BRANCH  15  19
ATOM     19  C   UNL d   1      29.311  16.212 -24.008  0.00  0.00     0.298 C 
ATOM     20  O   UNL d   1      29.007  15.544 -24.392  0.00  0.00    -0.259 OA
BRANCH  19  21
ATOM     21  O   UNL d   1      29.174  16.325 -23.203  0.00  0.00    -0.296 OA
ATOM     22  C   UNL d   1      28.541  15.952 -22.839  0.00  0.00     0.185 C 
ENDBRANCH  19  21
ENDBRANCH  15  19
ENDBRANCH   1  14
TORSDOF 4
ENDMDL
MODEL 2
REMARK VINA RESULT:      -1.5      1.439      1.977
REMARK  4 active torsions:
REMARK  status: ('A' for Active; 'I' for Inactive)
REMARK    1  A    between atoms: N_3  and  C_1 
REMARK    2  A    between atoms: C_7  and  C_2 
REMARK       I    between atoms: C_5  and  N_3 
REMARK    3  A    between atoms: C_4  and  C_5 
REMARK    4  A    between atoms: O_17  and  C_7 
ROOT
ATOM      1  N   UNL d   1      29.530  15.513 -22.975  0.00  0.00    -0.200 NA
ATOM      2  C   UNL d   1      30.285  15.641 -22.672  0.00  0.00     0.304 C 
ATOM      3  O   UNL d   1      30.439  15.453 -21.876  0.00  0.00    -0.263 OA
ENDROOT
BRANCH   2   4
ATOM      4  C   UNL d   1      30.877  15.952 -23.155  0.00  0.00     0.182 A 
ATOM      5  O   UNL d   1      31.066  16.745 -23.103  0.00  0.00    -0.298 OA
ATOM      6  C   UNL d   1      31.654  17.048 -23.584  0.00  0.00     0.123 A 
ATOM      7  C   UNL d   1      31.851  17.851 -23.537  0.00  0.00     0.027 A 
ATOM      8  C   UNL d   1      32.057  16.577 -24.117  0.00  0.00     0.123 A 
ATOM      9  C   UNL d   1      32.441  18.158 -24.019  0.00  0.00     0.002 A 
ATOM     10  C   UNL d   1      32.843  17.671 -24.556  0.00  0.00     0.002 A 
ATOM     11  C   UNL d   1      32.646  16.869 -24.603  0.00  0.00     0.027 A 
ATOM     12  O   UNL d   1      31.856  15.767 -24.163  0.00  0.00    -0.301 OA
ATOM     13  C   UNL d   1      31.267  15.454 -23.682  0.00  0.00     0.152 A 
ENDBRANCH   2   4
BRANCH   1  14
ATOM     14  C   UNL d   1      29.370  15.696 -23.761  0.00  0.00     0.119 A 
ATOM     15  C   UNL d   1      28.740  16.158 -24.032  0.00  0.00     0.087 A 
ATOM     16  C   UNL d   1      28.792  16.199 -24.862  0.00  0.00     0.014 A 
ATOM     17  C   UNL d   1      29.454  15.762 -25.093  0.00  0.00     0.037 A 
ATOM     18  S   UNL d   1      29.804  15.456 -24.413  0.00  0.00    -0.067 SA
BRANCH  15  19
ATOM     19  C   UNL d   1      28.161  16.516 -23.570  0.00  0.00     0.298 C 
ATOM     20  O   UNL d   1      27.653  16.046 -23.114  0.00  0.00    -0.259 OA
BRANCH  19  21
ATOM     21  O   UNL d   1      28.085  17.337 -23.561  0.00  0.00    -0.296 OA
ATOM     22  C   UNL d   1      27.621  17.699 -22.990  0.00  0.00     0.185 C 
ENDBRANCH  19  21
ENDBRANCH  15  19
ENDBRANCH   1  14
TORSDOF 4
ENDMDL
MODEL 3
REMARK VINA RESULT:      -0.7      1.941      4.131
REMARK  4 active torsions:
REMARK  status: ('A' for Active; 'I' for Inactive)
REMARK    1  A    between atoms: N_3  and  C_1 
REMARK    2  A    between atoms: C_7  and  C_2 
REMARK       I    between atoms: C_5  and  N_3 
REMARK    3  A    between atoms: C_4  and  C_5 
REMARK    4  A    between atoms: O_17  and  C_7 
ROOT
ATOM      1  N   UNL d   1      32.994  19.565 -23.707  0.00  0.00    -0.200 NA
ATOM      2  C   UNL d   1      32.656  19.120 -24.312  0.00  0.00     0.304 C 
ATOM      3  O   UNL d   1      32.605  19.448 -25.076  0.00  0.00    -0.263 OA
ENDROOT
BRANCH   2   4
ATOM      4  C   UNL d   1      32.374  18.360 -24.158  0.00  0.00     0.182 A 
ATOM      5  O   UNL d   1      31.570  18.217 -24.171  0.00  0.00    -0.298 OA
ATOM      6  C   UNL d   1      31.296  17.462 -24.017  0.00  0.00     0.123 A 
ATOM      7  C   UNL d   1      30.482  17.310 -24.028  0.00  0.00     0.027 A 
ATOM      8  C   UNL d   1      31.807  16.846 -23.851  0.00  0.00     0.123 A 
ATOM      9  C   UNL d   1      30.205  16.552 -23.874  0.00  0.00     0.002 A 
ATOM     10  C   UNL d   1      30.732  15.935 -23.707  0.00  0.00     0.002 A 
ATOM     11  C   UNL d   1      31.545  16.087 -23.696  0.00  0.00     0.027 A 
ATOM     12  O   UNL d   1      32.628  17.002 -23.841  0.00  0.00    -0.301 OA
ATOM     13  C   UNL d   1      32.912  17.759 -23.994  0.00  0.00     0.152 A 
ENDBRANCH   2   4
BRANCH   1  14
ATOM     14  C   UNL d   1      33.049  19.248 -22.950  0.00  0.00     0.119 A 
ATOM     15  C   UNL d   1      32.918  19.657 -22.243  0.00  0.00     0.087 A 
ATOM     16  C   UNL d   1      33.033  19.123 -21.615  0.00  0.00     0.014 A 
ATOM     17  C   UNL d   1      33.233  18.392 -21.942  0.00  0.00     0.037 A 
ATOM     18  S   UNL d   1      33.241  18.474 -22.760  0.00  0.00    -0.067 SA
BRANCH  15  19
ATOM     19  C   UNL d   1      32.712  20.449 -22.167  0.00  0.00     0.298 C 
ATOM     20  O   UNL d   1      31.970  20.651 -21.856  0.00  0.00    -0.259 OA
BRANCH  19  21
ATOM     21  O   UNL d   1      33.238  21.041 -22.398  0.00  0.00    -0.296 OA
ATOM     22  C   UNL d   1      33.063  21.827 -22.245  0.00  0.00     0.185 C 
ENDBRANCH  19  21
ENDBRANCH  15  19
ENDBRANCH   1  14
TORSDOF 4
ENDMDL
