MODEL 1
REMARK VINA RESULT:      67.7      0.000      0.000
REMARK  3 active torsions:
REMARK  status: ('A' for Active; 'I' for Inactive)
REMARK    1  A    between atoms: N_8  and  C_1 
REMARK    2  A    between atoms: N_7  and  C_2 
REMARK    3  A    between atoms: C_11  and  N_8 
ROOT
ATOM      1  C   UNL d   1      59.526  49.698  50.747  0.00  0.00     0.139 A 
ATOM      2  C   UNL d   1      59.119  49.693  51.459  0.00  0.00     0.124 A 
ATOM      3  C   UNL d   1      58.283  49.689  51.481  0.00  0.00     0.213 A 
ATOM      4  C   UNL d   1      59.111  49.699  50.032  0.00  0.00     0.215 A 
ATOM      5  C   UNL d   1      57.883  49.690  50.753  0.00  0.00     0.044 A 
ATOM      6  C   UNL d   1      58.291  49.695  50.041  0.00  0.00     0.044 A 
ATOM      7  O   UNL d   1      57.871  49.684  52.201  0.00  0.00    -0.285 OA
ATOM      8  O   UNL d   1      59.522  49.704  49.313  0.00  0.00    -0.285 OA
ATOM      9  C   UNL d   1      57.047  49.686  50.775  0.00  0.00     0.003 A 
ATOM     10  C   UNL d   1      57.875  49.696  49.326  0.00  0.00     0.003 A 
ATOM     11  C   UNL d   1      56.645  49.688  50.045  0.00  0.00     0.000 A 
ATOM     12  C   UNL d   1      57.052  49.692  49.332  0.00  0.00     0.000 A 
ENDROOT
BRANCH   1  13
ATOM     13  N   UNL d   1      60.370  49.701  50.752  0.00  0.00    -0.241 NA
BRANCH  13  14
ATOM     14  C   UNL d   1      60.782  49.100  50.358  0.00  0.00     0.082 A 
ATOM     15  C   UNL d   1      60.772  48.331  50.656  0.00  0.00     0.019 A 
ATOM     16  C   UNL d   1      61.182  47.732  50.264  0.00  0.00     0.002 A 
ATOM     17  C   UNL d   1      61.596  47.911  49.579  0.00  0.00     0.000 A 
ATOM     18  C   UNL d   1      61.609  48.668  49.281  0.00  0.00     0.002 A 
ATOM     19  C   UNL d   1      61.199  49.267  49.673  0.00  0.00     0.019 A 
ENDBRANCH  13  14
ENDBRANCH   1  13
BRANCH   2  20
ATOM     20  N   UNL d   1      59.525  49.692  52.192  0.00  0.00    -0.300 N 
ATOM     21  C   UNL d   1      60.353  49.686  52.223  0.00  0.00     0.080 A 
ATOM     22  C   UNL d   1      60.736  49.685  52.950  0.00  0.00     0.019 A 
ATOM     23  C   UNL d   1      60.298  49.690  53.664  0.00  0.00     0.003 A 
ATOM     24  C   UNL d   1      59.470  49.696  53.633  0.00  0.00     0.019 A 
ATOM     25  C   UNL d   1      59.064  49.697  52.885  0.00  0.00     0.080 A 
ENDBRANCH   2  20
TORSDOF 3
ENDMDL
