MODEL 1
REMARK VINA RESULT:      -7.2      0.000      0.000
REMARK  5 active torsions:
REMARK  status: ('A' for Active; 'I' for Inactive)
REMARK    1  A    between atoms: N_6  and  C_1 
REMARK    2  A    between atoms: S_10  and  C_4 
REMARK       I    between atoms: C_7  and  N_6 
REMARK       I    between atoms: N_8  and  C_7 
REMARK    3  A    between atoms: C_11  and  N_8 
REMARK    4  A    between atoms: C_17  and  S_10 
REMARK    5  A    between atoms: C_19  and  C_17 
ROOT
ATOM      1  N   UNL d   1      52.553  32.615  53.013  0.00  0.00    -0.321 NA
ATOM      2  C   UNL d   1      52.324  33.276  52.899  0.00  0.00     0.422 C 
ATOM      3  N   UNL d   1      52.064  34.101  52.765  0.00  0.00    -0.180 NA
ATOM      4  O   UNL d   1      51.687  33.045  52.726  0.00  0.00    -0.228 OA
ENDROOT
BRANCH   1   5
ATOM      5  C   UNL d   1      52.987  31.882  53.193  0.00  0.00     0.271 A 
ATOM      6  S   UNL d   1      52.836  31.193  53.242  0.00  0.00    -0.006 SA
ATOM      7  C   UNL d   1      53.358  30.737  53.408  0.00  0.00     0.166 A 
ATOM      8  N   UNL d   1      54.016  30.972  53.521  0.00  0.00    -0.132 NA
ATOM      9  N   UNL d   1      53.645  32.117  53.306  0.00  0.00    -0.107 NA
BRANCH   7  10
ATOM     10  S   UNL d   1      53.340  30.018  53.489  0.00  0.00    -0.059 SA
BRANCH  10  11
ATOM     11  C   UNL d   1      53.345  29.689  54.243  0.00  0.00     0.037 C 
BRANCH  11  12
ATOM     12  C   UNL d   1      53.341  28.873  54.332  0.00  0.00     0.007 C 
ATOM     13  C   UNL d   1      53.385  28.536  55.078  0.00  0.00     0.001 C 
ENDBRANCH  11  12
ENDBRANCH  10  11
ENDBRANCH   7  10
ENDBRANCH   1   5
BRANCH   3  14
ATOM     14  C   UNL d   1      51.283  34.249  52.523  0.00  0.00     0.087 A 
ATOM     15  C   UNL d   1      50.707  34.419  53.089  0.00  0.00     0.019 A 
ATOM     16  C   UNL d   1      49.931  34.567  52.852  0.00  0.00     0.002 A 
ATOM     17  C   UNL d   1      49.741  34.542  52.044  0.00  0.00     0.000 A 
ATOM     18  C   UNL d   1      50.321  34.371  51.482  0.00  0.00     0.002 A 
ATOM     19  C   UNL d   1      48.965  34.689  51.807  0.00  0.00     0.000 C 
ATOM     20  C   UNL d   1      51.103  34.223  51.725  0.00  0.00     0.019 A 
ENDBRANCH   3  14
TORSDOF 5
ENDMDL
MODEL 2
REMARK VINA RESULT:      -7.1      1.450      5.077
REMARK  5 active torsions:
REMARK  status: ('A' for Active; 'I' for Inactive)
REMARK    1  A    between atoms: N_6  and  C_1 
REMARK    2  A    between atoms: S_10  and  C_4 
REMARK       I    between atoms: C_7  and  N_6 
REMARK       I    between atoms: N_8  and  C_7 
REMARK    3  A    between atoms: C_11  and  N_8 
REMARK    4  A    between atoms: C_17  and  S_10 
REMARK    5  A    between atoms: C_19  and  C_17 
ROOT
ATOM      1  N   UNL d   1      52.047  32.906  52.928  0.00  0.00    -0.321 NA
ATOM      2  C   UNL d   1      52.570  32.437  52.838  0.00  0.00     0.422 C 
ATOM      3  N   UNL d   1      53.227  31.874  52.711  0.00  0.00    -0.180 NA
ATOM      4  O   UNL d   1      52.281  31.999  53.302  0.00  0.00    -0.228 OA
ENDROOT
BRANCH   1   5
ATOM      5  C   UNL d   1      51.492  33.577  52.920  0.00  0.00     0.271 A 
ATOM      6  S   UNL d   1      50.800  33.672  52.809  0.00  0.00    -0.006 SA
ATOM      7  C   UNL d   1      50.532  34.332  52.850  0.00  0.00     0.166 A 
ATOM      8  N   UNL d   1      50.954  34.881  52.999  0.00  0.00    -0.132 NA
ATOM      9  N   UNL d   1      51.913  34.126  53.068  0.00  0.00    -0.107 NA
BRANCH   7  10
ATOM     10  S   UNL d   1      49.853  34.565  52.760  0.00  0.00    -0.059 SA
BRANCH  10  11
ATOM     11  C   UNL d   1      49.540  34.638  52.004  0.00  0.00     0.037 C 
BRANCH  11  12
ATOM     12  C   UNL d   1      48.768  34.900  51.904  0.00  0.00     0.007 C 
ATOM     13  C   UNL d   1      48.413  34.877  51.165  0.00  0.00     0.001 C 
ENDBRANCH  11  12
ENDBRANCH  10  11
ENDBRANCH   7  10
ENDBRANCH   1   5
BRANCH   3  14
ATOM     14  C   UNL d   1      53.237  31.156  53.130  0.00  0.00     0.087 A 
ATOM     15  C   UNL d   1      52.852  30.496  52.816  0.00  0.00     0.019 A 
ATOM     16  C   UNL d   1      52.860  29.783  53.230  0.00  0.00     0.002 A 
ATOM     17  C   UNL d   1      53.258  29.738  53.958  0.00  0.00     0.000 A 
ATOM     18  C   UNL d   1      53.642  30.401  54.266  0.00  0.00     0.002 A 
ATOM     19  C   UNL d   1      53.266  29.025  54.371  0.00  0.00     0.000 C 
ATOM     20  C   UNL d   1      53.631  31.119  53.847  0.00  0.00     0.019 A 
ENDBRANCH   3  14
TORSDOF 5
ENDMDL
MODEL 3
REMARK VINA RESULT:      -7.0      2.280      5.210
REMARK  5 active torsions:
REMARK  status: ('A' for Active; 'I' for Inactive)
REMARK    1  A    between atoms: N_6  and  C_1 
REMARK    2  A    between atoms: S_10  and  C_4 
REMARK       I    between atoms: C_7  and  N_6 
REMARK       I    between atoms: N_8  and  C_7 
REMARK    3  A    between atoms: C_11  and  N_8 
REMARK    4  A    between atoms: C_17  and  S_10 
REMARK    5  A    between atoms: C_19  and  C_17 
ROOT
ATOM      1  N   UNL d   1      51.812  33.540  53.030  0.00  0.00    -0.321 NA
ATOM      2  C   UNL d   1      52.319  33.108  53.272  0.00  0.00     0.422 C 
ATOM      3  N   UNL d   1      52.932  32.555  53.562  0.00  0.00    -0.180 NA
ATOM      4  O   UNL d   1      52.672  33.646  53.546  0.00  0.00    -0.228 OA
ENDROOT
BRANCH   1   5
ATOM      5  C   UNL d   1      51.117  33.922  52.671  0.00  0.00     0.271 A 
ATOM      6  S   UNL d   1      50.509  34.203  52.898  0.00  0.00    -0.006 SA
ATOM      7  C   UNL d   1      50.056  34.476  52.420  0.00  0.00     0.166 A 
ATOM      8  N   UNL d   1      50.214  34.465  51.730  0.00  0.00    -0.132 NA
ATOM      9  N   UNL d   1      51.275  33.911  51.981  0.00  0.00    -0.107 NA
BRANCH   7  10
ATOM     10  S   UNL d   1      49.410  34.789  52.516  0.00  0.00    -0.059 SA
BRANCH  10  11
ATOM     11  C   UNL d   1      48.887  34.854  51.886  0.00  0.00     0.037 C 
BRANCH  11  12
ATOM     12  C   UNL d   1      48.166  35.232  51.991  0.00  0.00     0.007 C 
ATOM     13  C   UNL d   1      47.648  35.322  51.362  0.00  0.00     0.001 C 
ENDBRANCH  11  12
ENDBRANCH  10  11
ENDBRANCH   7  10
ENDBRANCH   1   5
BRANCH   3  14
ATOM     14  C   UNL d   1      53.585  32.852  53.981  0.00  0.00     0.087 A 
ATOM     15  C   UNL d   1      54.291  33.004  53.580  0.00  0.00     0.019 A 
ATOM     16  C   UNL d   1      54.941  33.298  53.993  0.00  0.00     0.002 A 
ATOM     17  C   UNL d   1      54.876  33.439  54.809  0.00  0.00     0.000 A 
ATOM     18  C   UNL d   1      54.167  33.285  55.205  0.00  0.00     0.002 A 
ATOM     19  C   UNL d   1      55.526  33.733  55.222  0.00  0.00     0.000 C 
ATOM     20  C   UNL d   1      53.514  32.988  54.785  0.00  0.00     0.019 A 
ENDBRANCH   3  14
TORSDOF 5
ENDMDL
MODEL 4
REMARK VINA RESULT:      -6.9      1.840      4.972
REMARK  5 active torsions:
REMARK  status: ('A' for Active; 'I' for Inactive)
REMARK    1  A    between atoms: N_6  and  C_1 
REMARK    2  A    between atoms: S_10  and  C_4 
REMARK       I    between atoms: C_7  and  N_6 
REMARK       I    between atoms: N_8  and  C_7 
REMARK    3  A    between atoms: C_11  and  N_8 
REMARK    4  A    between atoms: C_17  and  S_10 
REMARK    5  A    between atoms: C_19  and  C_17 
ROOT
ATOM      1  N   UNL d   1      52.564  32.226  52.894  0.00  0.00    -0.321 NA
ATOM      2  C   UNL d   1      52.717  31.552  52.738  0.00  0.00     0.422 C 
ATOM      3  N   UNL d   1      52.903  30.725  52.522  0.00  0.00    -0.180 NA
ATOM      4  O   UNL d   1      52.769  31.388  53.417  0.00  0.00    -0.228 OA
ENDROOT
BRANCH   1   5
ATOM      5  C   UNL d   1      52.369  33.074  52.910  0.00  0.00     0.271 A 
ATOM      6  S   UNL d   1      52.405  33.602  53.379  0.00  0.00    -0.006 SA
ATOM      7  C   UNL d   1      52.184  34.252  53.184  0.00  0.00     0.166 A 
ATOM      8  N   UNL d   1      51.932  34.364  52.532  0.00  0.00    -0.132 NA
ATOM      9  N   UNL d   1      52.117  33.186  52.258  0.00  0.00    -0.107 NA
BRANCH   7  10
ATOM     10  S   UNL d   1      52.167  34.870  53.561  0.00  0.00    -0.059 SA
BRANCH  10  11
ATOM     11  C   UNL d   1      52.843  35.133  53.949  0.00  0.00     0.037 C 
BRANCH  11  12
ATOM     12  C   UNL d   1      52.783  35.718  54.521  0.00  0.00     0.007 C 
ATOM     13  C   UNL d   1      53.430  36.187  54.707  0.00  0.00     0.001 C 
ENDBRANCH  11  12
ENDBRANCH  10  11
ENDBRANCH   7  10
ENDBRANCH   1   5
BRANCH   3  14
ATOM     14  C   UNL d   1      53.045  30.167  53.121  0.00  0.00     0.087 A 
ATOM     15  C   UNL d   1      53.799  30.109  53.453  0.00  0.00     0.019 A 
ATOM     16  C   UNL d   1      53.943  29.557  54.048  0.00  0.00     0.002 A 
ATOM     17  C   UNL d   1      53.325  29.065  54.305  0.00  0.00     0.000 A 
ATOM     18  C   UNL d   1      52.572  29.127  53.970  0.00  0.00     0.002 A 
ATOM     19  C   UNL d   1      53.469  28.513  54.900  0.00  0.00     0.000 C 
ATOM     20  C   UNL d   1      52.431  29.686  53.370  0.00  0.00     0.019 A 
ENDBRANCH   3  14
TORSDOF 5
ENDMDL
MODEL 5
REMARK VINA RESULT:      -6.8      1.578      2.160
REMARK  5 active torsions:
REMARK  status: ('A' for Active; 'I' for Inactive)
REMARK    1  A    between atoms: N_6  and  C_1 
REMARK    2  A    between atoms: S_10  and  C_4 
REMARK       I    between atoms: C_7  and  N_6 
REMARK       I    between atoms: N_8  and  C_7 
REMARK    3  A    between atoms: C_11  and  N_8 
REMARK    4  A    between atoms: C_17  and  S_10 
REMARK    5  A    between atoms: C_19  and  C_17 
ROOT
ATOM      1  N   UNL d   1      52.703  32.202  53.033  0.00  0.00    -0.321 NA
ATOM      2  C   UNL d   1      52.533  32.875  52.893  0.00  0.00     0.422 C 
ATOM      3  N   UNL d   1      52.312  33.699  52.698  0.00  0.00    -0.180 NA
ATOM      4  O   UNL d   1      52.821  33.091  53.493  0.00  0.00    -0.228 OA
ENDROOT
BRANCH   1   5
ATOM      5  C   UNL d   1      52.834  31.341  53.051  0.00  0.00     0.271 A 
ATOM      6  S   UNL d   1      53.188  30.882  53.456  0.00  0.00    -0.006 SA
ATOM      7  C   UNL d   1      53.165  30.189  53.291  0.00  0.00     0.166 A 
ATOM      8  N   UNL d   1      52.794  29.965  52.731  0.00  0.00    -0.132 NA
ATOM      9  N   UNL d   1      52.463  31.118  52.490  0.00  0.00    -0.107 NA
BRANCH   7  10
ATOM     10  S   UNL d   1      53.477  29.623  53.617  0.00  0.00    -0.059 SA
BRANCH  10  11
ATOM     11  C   UNL d   1      53.160  29.324  54.314  0.00  0.00     0.037 C 
BRANCH  11  12
ATOM     12  C   UNL d   1      53.528  28.697  54.695  0.00  0.00     0.007 C 
ATOM     13  C   UNL d   1      53.330  28.505  55.467  0.00  0.00     0.001 C 
ENDBRANCH  11  12
ENDBRANCH  10  11
ENDBRANCH   7  10
ENDBRANCH   1   5
BRANCH   3  14
ATOM     14  C   UNL d   1      52.507  34.310  53.227  0.00  0.00     0.087 A 
ATOM     15  C   UNL d   1      53.261  34.647  53.198  0.00  0.00     0.019 A 
ATOM     16  C   UNL d   1      53.458  35.254  53.721  0.00  0.00     0.002 A 
ATOM     17  C   UNL d   1      52.893  35.517  54.270  0.00  0.00     0.000 A 
ATOM     18  C   UNL d   1      52.141  35.176  54.294  0.00  0.00     0.002 A 
ATOM     19  C   UNL d   1      53.089  36.124  54.793  0.00  0.00     0.000 C 
ATOM     20  C   UNL d   1      51.946  34.565  53.765  0.00  0.00     0.019 A 
ENDBRANCH   3  14
TORSDOF 5
ENDMDL
MODEL 6
REMARK VINA RESULT:      -6.2      3.494      6.111
REMARK  5 active torsions:
REMARK  status: ('A' for Active; 'I' for Inactive)
REMARK    1  A    between atoms: N_6  and  C_1 
REMARK    2  A    between atoms: S_10  and  C_4 
REMARK       I    between atoms: C_7  and  N_6 
REMARK       I    between atoms: N_8  and  C_7 
REMARK    3  A    between atoms: C_11  and  N_8 
REMARK    4  A    between atoms: C_17  and  S_10 
REMARK    5  A    between atoms: C_19  and  C_17 
ROOT
ATOM      1  N   UNL d   1      49.259  35.105  52.774  0.00  0.00    -0.321 NA
ATOM      2  C   UNL d   1      49.781  34.682  52.550  0.00  0.00     0.422 C 
ATOM      3  N   UNL d   1      50.414  34.156  52.253  0.00  0.00    -0.180 NA
ATOM      4  O   UNL d   1      50.154  34.807  53.130  0.00  0.00    -0.228 OA
ENDROOT
BRANCH   1   5
ATOM      5  C   UNL d   1      48.539  35.579  52.896  0.00  0.00     0.271 A 
ATOM      6  S   UNL d   1      48.233  35.922  53.434  0.00  0.00    -0.006 SA
ATOM      7  C   UNL d   1      47.618  36.264  53.319  0.00  0.00     0.166 A 
ATOM      8  N   UNL d   1      47.320  36.259  52.677  0.00  0.00    -0.132 NA
ATOM      9  N   UNL d   1      48.240  35.574  52.254  0.00  0.00    -0.107 NA
BRANCH   7  10
ATOM     10  S   UNL d   1      47.207  36.648  53.775  0.00  0.00    -0.059 SA
BRANCH  10  11
ATOM     11  C   UNL d   1      46.597  36.281  54.186  0.00  0.00     0.037 C 
BRANCH  11  12
ATOM     12  C   UNL d   1      46.154  36.709  54.729  0.00  0.00     0.007 C 
ATOM     13  C   UNL d   1      45.525  36.360  55.120  0.00  0.00     0.001 C 
ENDBRANCH  11  12
ENDBRANCH  10  11
ENDBRANCH   7  10
ENDBRANCH   1   5
BRANCH   3  14
ATOM     14  C   UNL d   1      51.096  34.038  52.713  0.00  0.00     0.087 A 
ATOM     15  C   UNL d   1      51.122  33.409  53.248  0.00  0.00     0.019 A 
ATOM     16  C   UNL d   1      51.798  33.289  53.706  0.00  0.00     0.002 A 
ATOM     17  C   UNL d   1      52.444  33.803  53.620  0.00  0.00     0.000 A 
ATOM     18  C   UNL d   1      52.413  34.430  53.083  0.00  0.00     0.002 A 
ATOM     19  C   UNL d   1      53.120  33.683  54.078  0.00  0.00     0.000 C 
ATOM     20  C   UNL d   1      51.730  34.548  52.624  0.00  0.00     0.019 A 
ENDBRANCH   3  14
TORSDOF 5
ENDMDL
MODEL 7
REMARK VINA RESULT:      -4.6      9.607     10.099
REMARK  5 active torsions:
REMARK  status: ('A' for Active; 'I' for Inactive)
REMARK    1  A    between atoms: N_6  and  C_1 
REMARK    2  A    between atoms: S_10  and  C_4 
REMARK       I    between atoms: C_7  and  N_6 
REMARK       I    between atoms: N_8  and  C_7 
REMARK    3  A    between atoms: C_11  and  N_8 
REMARK    4  A    between atoms: C_17  and  S_10 
REMARK    5  A    between atoms: C_19  and  C_17 
ROOT
ATOM      1  N   UNL d   1      44.933  28.683  57.711  0.00  0.00    -0.321 NA
ATOM      2  C   UNL d   1      45.189  29.261  58.030  0.00  0.00     0.422 C 
ATOM      3  N   UNL d   1      45.520  29.979  58.405  0.00  0.00    -0.180 NA
ATOM      4  O   UNL d   1      44.747  29.182  58.567  0.00  0.00    -0.228 OA
ENDROOT
BRANCH   1   5
ATOM      5  C   UNL d   1      44.738  28.010  57.194  0.00  0.00     0.271 A 
ATOM      6  S   UNL d   1      44.625  27.316  57.272  0.00  0.00    -0.006 SA
ATOM      7  C   UNL d   1      44.472  26.925  56.695  0.00  0.00     0.166 A 
ATOM      8  N   UNL d   1      44.434  27.228  56.056  0.00  0.00    -0.132 NA
ATOM      9  N   UNL d   1      44.700  28.313  56.555  0.00  0.00    -0.107 NA
BRANCH   7  10
ATOM     10  S   UNL d   1      44.337  26.217  56.636  0.00  0.00    -0.059 SA
BRANCH  10  11
ATOM     11  C   UNL d   1      44.654  25.788  56.010  0.00  0.00     0.037 C 
BRANCH  11  12
ATOM     12  C   UNL d   1      44.538  24.977  55.970  0.00  0.00     0.007 C 
ATOM     13  C   UNL d   1      44.709  24.565  55.282  0.00  0.00     0.001 C 
ENDBRANCH  11  12
ENDBRANCH  10  11
ENDBRANCH   7  10
ENDBRANCH   1   5
BRANCH   3  14
ATOM     14  C   UNL d   1      45.219  30.234  59.136  0.00  0.00     0.087 A 
ATOM     15  C   UNL d   1      44.617  30.799  59.154  0.00  0.00     0.019 A 
ATOM     16  C   UNL d   1      44.316  31.054  59.878  0.00  0.00     0.002 A 
ATOM     17  C   UNL d   1      44.625  30.738  60.581  0.00  0.00     0.000 A 
ATOM     18  C   UNL d   1      45.227  30.173  60.558  0.00  0.00     0.002 A 
ATOM     19  C   UNL d   1      44.323  30.993  61.305  0.00  0.00     0.000 C 
ATOM     20  C   UNL d   1      45.528  29.918  59.826  0.00  0.00     0.019 A 
ENDBRANCH   3  14
TORSDOF 5
ENDMDL
MODEL 8
REMARK VINA RESULT:      -4.5      9.756     10.787
REMARK  5 active torsions:
REMARK  status: ('A' for Active; 'I' for Inactive)
REMARK    1  A    between atoms: N_6  and  C_1 
REMARK    2  A    between atoms: S_10  and  C_4 
REMARK       I    between atoms: C_7  and  N_6 
REMARK       I    between atoms: N_8  and  C_7 
REMARK    3  A    between atoms: C_11  and  N_8 
REMARK    4  A    between atoms: C_17  and  S_10 
REMARK    5  A    between atoms: C_19  and  C_17 
ROOT
ATOM      1  N   UNL d   1      45.044  28.935  58.228  0.00  0.00    -0.321 NA
ATOM      2  C   UNL d   1      45.215  28.464  57.727  0.00  0.00     0.422 C 
ATOM      3  N   UNL d   1      45.439  27.900  57.096  0.00  0.00    -0.180 NA
ATOM      4  O   UNL d   1      44.839  27.965  58.042  0.00  0.00    -0.228 OA
ENDROOT
BRANCH   1   5
ATOM      5  C   UNL d   1      44.934  29.624  58.749  0.00  0.00     0.271 A 
ATOM      6  S   UNL d   1      44.600  29.762  59.356  0.00  0.00    -0.006 SA
ATOM      7  C   UNL d   1      44.636  30.421  59.627  0.00  0.00     0.166 A 
ATOM      8  N   UNL d   1      45.001  30.926  59.292  0.00  0.00    -0.132 NA
ATOM      9  N   UNL d   1      45.299  30.129  58.414  0.00  0.00    -0.107 NA
BRANCH   7  10
ATOM     10  S   UNL d   1      44.344  30.691  60.232  0.00  0.00    -0.059 SA
BRANCH  10  11
ATOM     11  C   UNL d   1      44.788  30.723  60.923  0.00  0.00     0.037 C 
BRANCH  11  12
ATOM     12  C   UNL d   1      44.508  31.146  61.569  0.00  0.00     0.007 C 
ATOM     13  C   UNL d   1      44.418  30.781  62.298  0.00  0.00     0.001 C 
ENDBRANCH  11  12
ENDBRANCH  10  11
ENDBRANCH   7  10
ENDBRANCH   1   5
BRANCH   3  14
ATOM     14  C   UNL d   1      45.156  27.120  57.126  0.00  0.00     0.087 A 
ATOM     15  C   UNL d   1      45.442  26.605  57.706  0.00  0.00     0.019 A 
ATOM     16  C   UNL d   1      45.163  25.830  57.738  0.00  0.00     0.002 A 
ATOM     17  C   UNL d   1      44.596  25.577  57.185  0.00  0.00     0.000 A 
ATOM     18  C   UNL d   1      44.314  26.096  56.608  0.00  0.00     0.002 A 
ATOM     19  C   UNL d   1      44.317  24.802  57.217  0.00  0.00     0.000 C 
ATOM     20  C   UNL d   1      44.598  26.878  56.578  0.00  0.00     0.019 A 
ENDBRANCH   3  14
TORSDOF 5
ENDMDL
MODEL 9
REMARK VINA RESULT:      -4.4      9.744     11.222
REMARK  5 active torsions:
REMARK  status: ('A' for Active; 'I' for Inactive)
REMARK    1  A    between atoms: N_6  and  C_1 
REMARK    2  A    between atoms: S_10  and  C_4 
REMARK       I    between atoms: C_7  and  N_6 
REMARK       I    between atoms: N_8  and  C_7 
REMARK    3  A    between atoms: C_11  and  N_8 
REMARK    4  A    between atoms: C_17  and  S_10 
REMARK    5  A    between atoms: C_19  and  C_17 
ROOT
ATOM      1  N   UNL d   1      44.900  26.297  56.715  0.00  0.00    -0.321 NA
ATOM      2  C   UNL d   1      44.647  25.767  56.319  0.00  0.00     0.422 C 
ATOM      3  N   UNL d   1      44.319  25.129  55.819  0.00  0.00    -0.180 NA
ATOM      4  O   UNL d   1      45.066  25.306  56.637  0.00  0.00    -0.228 OA
ENDROOT
BRANCH   1   5
ATOM      5  C   UNL d   1      45.098  27.048  57.109  0.00  0.00     0.271 A 
ATOM      6  S   UNL d   1      44.922  27.376  57.710  0.00  0.00    -0.006 SA
ATOM      7  C   UNL d   1      45.209  28.013  57.852  0.00  0.00     0.166 A 
ATOM      8  N   UNL d   1      45.663  28.311  57.397  0.00  0.00    -0.132 NA
ATOM      9  N   UNL d   1      45.552  27.345  56.654  0.00  0.00    -0.107 NA
BRANCH   7  10
ATOM     10  S   UNL d   1      45.116  28.450  58.422  0.00  0.00    -0.059 SA
BRANCH  10  11
ATOM     11  C   UNL d   1      45.208  29.262  58.336  0.00  0.00     0.037 C 
BRANCH  11  12
ATOM     12  C   UNL d   1      45.132  29.753  58.991  0.00  0.00     0.007 C 
ATOM     13  C   UNL d   1      45.124  30.568  58.901  0.00  0.00     0.001 C 
ENDBRANCH  11  12
ENDBRANCH  10  11
ENDBRANCH   7  10
ENDBRANCH   1   5
BRANCH   3  14
ATOM     14  C   UNL d   1      44.598  24.352  55.912  0.00  0.00     0.087 A 
ATOM     15  C   UNL d   1      44.316  23.891  56.538  0.00  0.00     0.019 A 
ATOM     16  C   UNL d   1      44.591  23.119  56.633  0.00  0.00     0.002 A 
ATOM     17  C   UNL d   1      45.149  22.816  56.097  0.00  0.00     0.000 A 
ATOM     18  C   UNL d   1      45.427  23.282  55.474  0.00  0.00     0.002 A 
ATOM     19  C   UNL d   1      45.424  22.045  56.193  0.00  0.00     0.000 C 
ATOM     20  C   UNL d   1      45.147  24.060  55.381  0.00  0.00     0.019 A 
ENDBRANCH   3  14
TORSDOF 5
ENDMDL
