MODEL 1
REMARK VINA RESULT:      17.5      0.000      0.000
REMARK  4 active torsions:
REMARK  status: ('A' for Active; 'I' for Inactive)
REMARK    1  A    between atoms: C_8  and  C_1 
REMARK    2  A    between atoms: C_3  and  C_2 
REMARK    3  A    between atoms: O_14  and  C_8 
REMARK    4  A    between atoms: C_16  and  O_14 
ROOT
ATOM      1  C   UNL d   1     -51.057  24.678  33.453  0.00  0.00     0.091 A 
ATOM      2  C   UNL d   1     -50.488  25.271  33.375  0.00  0.00     0.036 A 
ATOM      3  C   UNL d   1     -50.681  23.941  33.435  0.00  0.00     0.138 A 
ATOM      4  C   UNL d   1     -49.764  24.879  33.310  0.00  0.00     0.039 A 
ATOM      5  S   UNL d   1     -49.887  24.086  33.347  0.00  0.00    -0.065 SA
ATOM      6  N   UNL d   1     -51.056  23.195  33.497  0.00  0.00    -0.141 N 
ENDROOT
BRANCH   2   7
ATOM      7  C   UNL d   1     -50.691  26.049  33.373  0.00  0.00     0.101 A 
ATOM      8  O   UNL d   1     -51.240  26.631  33.394  0.00  0.00    -0.307 OA
ATOM      9  C   UNL d   1     -50.857  27.327  33.361  0.00  0.00     0.100 A 
ATOM     10  C   UNL d   1     -51.237  28.069  33.370  0.00  0.00     0.027 C 
ATOM     11  C   UNL d   1     -50.065  27.217  33.319  0.00  0.00     0.027 A 
ATOM     12  C   UNL d   1     -49.975  26.389  33.328  0.00  0.00     0.027 A 
ENDBRANCH   2   7
BRANCH   1  13
ATOM     13  C   UNL d   1     -51.860  24.781  33.535  0.00  0.00     0.302 C 
ATOM     14  O   UNL d   1     -52.180  25.465  33.796  0.00  0.00    -0.259 OA
BRANCH  13  15
ATOM     15  O   UNL d   1     -52.370  24.141  33.336  0.00  0.00    -0.271 OA
BRANCH  15  16
ATOM     16  C   UNL d   1     -53.128  24.156  33.590  0.00  0.00     0.126 C 
ATOM     17  C   UNL d   1     -53.661  23.562  33.321  0.00  0.00     0.029 C 
ENDBRANCH  15  16
ENDBRANCH  13  15
ENDBRANCH   1  13
TORSDOF 4
ENDMDL
