MODEL 1
REMARK VINA RESULT:      11.4      0.000      0.000
REMARK  4 active torsions:
REMARK  status: ('A' for Active; 'I' for Inactive)
REMARK    1  A    between atoms: N_10  and  C_1 
REMARK       I    between atoms: C_12  and  N_10 
REMARK    2  A    between atoms: C_17  and  C_12 
REMARK    3  A    between atoms: C_18  and  C_17 
REMARK    4  A    between atoms: C_19  and  C_18 
ROOT
ATOM      1  C   UNL d   1      46.322 -17.466  44.502  0.00  0.00     0.197 A 
ATOM      2  C   UNL d   1      46.385 -18.486  43.671  0.00  0.00     0.057 A 
ATOM      3  C   UNL d   1      46.438 -18.981  43.049  0.00  0.00     0.056 A 
ATOM      4  N   UNL d   1      46.259 -18.120  44.953  0.00  0.00    -0.221 NA
ATOM      5  S   UNL d   1      46.402 -17.654  43.696  0.00  0.00    -0.046 SA
ATOM      6  N   UNL d   1      46.473 -20.150  42.443  0.00  0.00    -0.238 NA
ATOM      7  S   UNL d   1      46.524 -18.861  42.256  0.00  0.00    -0.066 SA
ATOM      8  C   UNL d   1      46.298 -18.768  44.433  0.00  0.00     0.090 A 
ATOM      9  C   UNL d   1      46.407 -19.798  43.158  0.00  0.00     0.088 A 
ATOM     10  C   UNL d   1      46.547 -19.624  41.866  0.00  0.00     0.111 A 
ATOM     11  C   UNL d   1      46.320 -20.106  43.910  0.00  0.00     0.021 A 
ATOM     12  C   UNL d   1      46.265 -19.578  44.559  0.00  0.00     0.021 A 
ATOM     13  C   UNL d   1      46.629 -19.780  41.052  0.00  0.00     0.028 C 
ENDROOT
BRANCH   1  14
ATOM     14  N   UNL d   1      46.310 -16.668  44.797  0.00  0.00    -0.183 NA
ATOM     15  C   UNL d   1      45.641 -16.221  44.680  0.00  0.00     0.281 C 
ATOM     16  O   UNL d   1      45.003 -16.600  44.267  0.00  0.00    -0.265 OA
BRANCH  15  17
ATOM     17  C   UNL d   1      45.630 -15.487  44.951  0.00  0.00     0.063 C 
BRANCH  17  18
ATOM     18  C   UNL d   1      45.466 -14.773  44.346  0.00  0.00     0.005 C 
BRANCH  18  19
ATOM     19  C   UNL d   1      45.809 -13.914  44.543  0.00  0.00     0.000 C 
ATOM     20  C   UNL d   1      45.641 -13.188  44.185  0.00  0.00     0.000 C 
ENDBRANCH  18  19
ENDBRANCH  17  18
ENDBRANCH  15  17
ENDBRANCH   1  14
TORSDOF 4
ENDMDL
MODEL 2
REMARK VINA RESULT:      12.9      1.866      5.215
REMARK  4 active torsions:
REMARK  status: ('A' for Active; 'I' for Inactive)
REMARK    1  A    between atoms: N_10  and  C_1 
REMARK       I    between atoms: C_12  and  N_10 
REMARK    2  A    between atoms: C_17  and  C_12 
REMARK    3  A    between atoms: C_18  and  C_17 
REMARK    4  A    between atoms: C_19  and  C_18 
ROOT
ATOM      1  C   UNL d   1      45.635 -15.507  44.521  0.00  0.00     0.197 A 
ATOM      2  C   UNL d   1      45.506 -14.260  44.118  0.00  0.00     0.057 A 
ATOM      3  C   UNL d   1      45.310 -13.570  43.768  0.00  0.00     0.056 A 
ATOM      4  N   UNL d   1      46.151 -15.082  44.955  0.00  0.00    -0.221 NA
ATOM      5  S   UNL d   1      45.214 -15.028  43.988  0.00  0.00    -0.046 SA
ATOM      6  N   UNL d   1      45.374 -12.274  43.550  0.00  0.00    -0.238 NA
ATOM      7  S   UNL d   1      44.783 -13.377  43.189  0.00  0.00    -0.066 SA
ATOM      8  C   UNL d   1      46.074 -14.292  44.704  0.00  0.00     0.090 A 
ATOM      9  C   UNL d   1      45.679 -12.867  43.991  0.00  0.00     0.088 A 
ATOM     10  C   UNL d   1      44.828 -12.533  43.050  0.00  0.00     0.111 A 
ATOM     11  C   UNL d   1      46.251 -12.873  44.574  0.00  0.00     0.021 A 
ATOM     12  C   UNL d   1      46.451 -13.602  44.937  0.00  0.00     0.021 A 
ATOM     13  C   UNL d   1      44.390 -12.080  42.505  0.00  0.00     0.028 C 
ENDROOT
BRANCH   1  14
ATOM     14  N   UNL d   1      45.519 -16.347  44.586  0.00  0.00    -0.183 NA
ATOM     15  C   UNL d   1      45.993 -16.840  44.145  0.00  0.00     0.281 C 
ATOM     16  O   UNL d   1      46.571 -16.462  43.651  0.00  0.00    -0.265 OA
BRANCH  15  17
ATOM     17  C   UNL d   1      45.886 -17.612  44.205  0.00  0.00     0.063 C 
BRANCH  17  18
ATOM     18  C   UNL d   1      46.601 -18.197  43.982  0.00  0.00     0.005 C 
BRANCH  18  19
ATOM     19  C   UNL d   1      46.407 -19.032  43.583  0.00  0.00     0.000 C 
ATOM     20  C   UNL d   1      46.426 -19.789  43.916  0.00  0.00     0.000 C 
ENDBRANCH  18  19
ENDBRANCH  17  18
ENDBRANCH  15  17
ENDBRANCH   1  14
TORSDOF 4
ENDMDL
