MODEL 1
REMARK VINA RESULT:      80.0      0.000      0.000
REMARK  9 active torsions:
REMARK  status: ('A' for Active; 'I' for Inactive)
REMARK    1  A    between atoms: N_2  and  C_1 
REMARK       I    between atoms: C_4  and  N_2 
REMARK    2  A    between atoms: C_7  and  C_4 
REMARK    3  A    between atoms: C_8  and  C_5 
REMARK    4  A    between atoms: C_10  and  C_8 
REMARK       I    between atoms: N_12  and  C_10 
REMARK    5  A    between atoms: C_11  and  C_19 
REMARK    6  A    between atoms: C_19  and  N_12 
REMARK    7  A    between atoms: O_23  and  C_17 
REMARK    8  A    between atoms: O_24  and  C_18 
REMARK    9  A    between atoms: O_22  and  C_20 
ROOT
ATOM      1  C   UNL d   1      61.294  47.711  50.921  0.00  0.00     0.197 A 
ATOM      2  N   UNL d   1      60.707  48.245  51.176  0.00  0.00    -0.220 NA
ATOM      3  C   UNL d   1      60.979  49.007  51.045  0.00  0.00     0.095 A 
ATOM      4  S   UNL d   1      61.922  48.160  50.636  0.00  0.00    -0.046 SA
ATOM      5  C   UNL d   1      61.731  48.957  50.711  0.00  0.00     0.058 A 
ENDROOT
BRANCH   1   6
ATOM      6  N   UNL d   1      61.242  46.893  50.955  0.00  0.00    -0.183 NA
ATOM      7  C   UNL d   1      61.228  46.444  50.271  0.00  0.00     0.281 C 
ATOM      8  O   UNL d   1      61.267  46.811  49.527  0.00  0.00    -0.265 OA
BRANCH   7   9
ATOM      9  C   UNL d   1      61.176  45.619  50.302  0.00  0.00     0.062 A 
ATOM     10  C   UNL d   1      61.280  45.171  49.633  0.00  0.00     0.029 A 
ATOM     11  C   UNL d   1      61.227  44.352  49.671  0.00  0.00     0.096 A 
ATOM     12  C   UNL d   1      61.067  43.983  50.394  0.00  0.00     0.048 A 
ATOM     13  C   UNL d   1      60.964  44.444  51.063  0.00  0.00     0.096 A 
ATOM     14  C   UNL d   1      61.015  45.260  51.033  0.00  0.00     0.029 A 
BRANCH  11  15
ATOM     15  O   UNL d   1      61.332  43.898  48.996  0.00  0.00    -0.328 OA
ATOM     16  C   UNL d   1      62.072  43.552  48.836  0.00  0.00     0.181 C 
ENDBRANCH  11  15
BRANCH  13  17
ATOM     17  O   UNL d   1      60.802  44.085  51.795  0.00  0.00    -0.328 OA
ATOM     18  C   UNL d   1      60.105  44.262  52.198  0.00  0.00     0.181 C 
ENDBRANCH  13  17
ENDBRANCH   7   9
ENDBRANCH   1   6
BRANCH   3  19
ATOM     19  C   UNL d   1      60.573  49.705  51.217  0.00  0.00     0.082 C 
BRANCH  19  20
ATOM     20  C   UNL d   1      59.758  49.685  51.362  0.00  0.00     0.281 C 
ATOM     21  N   UNL d   1      59.234  49.707  50.729  0.00  0.00    -0.206 NA
ATOM     22  O   UNL d   1      59.484  49.644  52.136  0.00  0.00    -0.265 OA
BRANCH  21  23
ATOM     23  C   UNL d   1      58.428  49.687  50.872  0.00  0.00     0.104 C 
BRANCH  23  24
ATOM     24  C   UNL d   1      57.896  49.665  50.240  0.00  0.00     0.042 A 
ATOM     25  C   UNL d   1      57.081  49.663  50.388  0.00  0.00     0.096 A 
ATOM     26  C   UNL d   1      56.543  49.642  49.770  0.00  0.00     0.024 A 
ATOM     27  C   UNL d   1      56.813  49.623  48.993  0.00  0.00     0.002 A 
ATOM     28  C   UNL d   1      57.623  49.625  48.838  0.00  0.00     0.000 A 
ATOM     29  C   UNL d   1      58.165  49.646  49.459  0.00  0.00     0.004 A 
BRANCH  25  30
ATOM     30  O   UNL d   1      56.799  49.682  51.172  0.00  0.00    -0.328 OA
ATOM     31  C   UNL d   1      56.217  49.152  51.424  0.00  0.00     0.181 C 
ENDBRANCH  25  30
ENDBRANCH  23  24
ENDBRANCH  21  23
ENDBRANCH  19  20
ENDBRANCH   3  19
TORSDOF 9
ENDMDL
