MODEL 1
REMARK VINA RESULT:      -6.0      0.000      0.000
REMARK  7 active torsions:
REMARK  status: ('A' for Active; 'I' for Inactive)
REMARK    1  A    between atoms: N_2  and  S_1 
REMARK    2  A    between atoms: C_3  and  S_1 
REMARK    3  A    between atoms: C_9  and  N_2 
REMARK    4  A    between atoms: C_6  and  O_7 
REMARK    5  A    between atoms: O_7  and  C_14 
REMARK    6  A    between atoms: C_13  and  C_9 
REMARK    7  A    between atoms: O_17  and  C_10 
ROOT
ATOM      1  C   UNL d   1     -41.462-123.031 -51.631  0.00  0.00     0.105 A 
ATOM      2  C   UNL d   1     -41.704-122.347 -51.252  0.00  0.00     0.015 A 
ATOM      3  C   UNL d   1     -41.173-123.670 -51.191  0.00  0.00     0.015 A 
ATOM      4  C   UNL d   1     -41.370-122.935 -49.996  0.00  0.00     0.100 A 
ATOM      5  C   UNL d   1     -41.659-122.296 -50.437  0.00  0.00     0.025 A 
ATOM      6  C   UNL d   1     -41.129-123.618 -50.376  0.00  0.00     0.025 A 
ENDROOT
BRANCH   1   7
ATOM      7  S   UNL d   1     -41.511-123.074 -52.456  0.00  0.00     0.285 S 
ATOM      8  O   UNL d   1     -41.706-123.790 -52.821  0.00  0.00    -0.198 OA
ATOM      9  O   UNL d   1     -41.364-122.403 -52.912  0.00  0.00    -0.198 OA
BRANCH   7  10
ATOM     10  N   UNL d   1     -41.508-122.915 -53.270  0.00  0.00    -0.155 NA
BRANCH  10  11
ATOM     11  C   UNL d   1     -41.792-122.179 -53.549  0.00  0.00     0.131 C 
BRANCH  11  12
ATOM     12  C   UNL d   1     -41.915-122.072 -54.364  0.00  0.00     0.101 A 
ATOM     13  N   UNL d   1     -41.265-122.038 -54.873  0.00  0.00    -0.242 NA
ATOM     14  C   UNL d   1     -41.377-121.932 -55.683  0.00  0.00     0.099 A 
ATOM     15  C   UNL d   1     -42.149-121.858 -55.990  0.00  0.00     0.021 A 
ATOM     16  C   UNL d   1     -42.802-121.893 -55.467  0.00  0.00     0.003 A 
ATOM     17  C   UNL d   1     -42.682-121.999 -54.659  0.00  0.00     0.021 A 
ENDBRANCH  11  12
ENDBRANCH  10  11
ENDBRANCH   7  10
ENDBRANCH   1   7
BRANCH   4  18
ATOM     18  O   UNL d   1     -41.325-122.881 -49.169  0.00  0.00    -0.305 OA
BRANCH  18  19
ATOM     19  C   UNL d   1     -41.930-123.190 -48.695  0.00  0.00     0.122 A 
ATOM     20  C   UNL d   1     -41.856-123.173 -47.876  0.00  0.00     0.117 A 
ATOM     21  C   UNL d   1     -42.460-123.481 -47.405  0.00  0.00     0.026 A 
ATOM     22  C   UNL d   1     -43.129-123.802 -47.754  0.00  0.00     0.002 A 
ATOM     23  C   UNL d   1     -43.202-123.817 -48.576  0.00  0.00     0.002 A 
ATOM     24  C   UNL d   1     -42.598-123.509 -49.047  0.00  0.00     0.027 A 
BRANCH  20  25
ATOM     25  O   UNL d   1     -41.184-122.852 -47.536  0.00  0.00    -0.326 OA
ATOM     26  C   UNL d   1     -41.123-122.780 -46.728  0.00  0.00     0.181 C 
ENDBRANCH  20  25
ENDBRANCH  18  19
ENDBRANCH   4  18
TORSDOF 7
ENDMDL
