MODEL 1
REMARK VINA RESULT:      -9.8      0.000      0.000
REMARK  7 active torsions:
REMARK  status: ('A' for Active; 'I' for Inactive)
REMARK    1  A    between atoms: C_13  and  N_2 
REMARK    2  A    between atoms: C_7  and  C_4 
REMARK    3  A    between atoms: O_19  and  C_7 
REMARK    4  A    between atoms: C_9  and  C_18 
REMARK    5  A    between atoms: C_20  and  C_13 
REMARK    6  A    between atoms: O_16  and  C_15 
REMARK    7  A    between atoms: C_18  and  O_16 
ROOT
ATOM      1  C   UNL d   1      53.526  32.885  53.700  0.00  0.00     0.265 A 
ATOM      2  N   UNL d   1      53.321  32.171  53.340  0.00  0.00    -0.272 N 
ATOM      3  C   UNL d   1      53.035  33.538  53.624  0.00  0.00     0.059 A 
ATOM      4  C   UNL d   1      52.336  33.482  53.189  0.00  0.00     0.029 A 
ATOM      5  C   UNL d   1      52.128  32.773  52.830  0.00  0.00     0.021 A 
ATOM      6  C   UNL d   1      52.622  32.115  52.906  0.00  0.00     0.083 A 
ATOM      7  O   UNL d   1      54.225  32.941  54.134  0.00  0.00    -0.267 OA
ATOM      8  C   UNL d   1      51.843  34.140  53.113  0.00  0.00     0.100 A 
ATOM      9  C   UNL d   1      53.241  34.252  53.983  0.00  0.00     0.005 A 
ATOM     10  C   UNL d   1      52.748  34.910  53.908  0.00  0.00     0.002 A 
ATOM     11  C   UNL d   1      52.049  34.854  53.473  0.00  0.00     0.025 A 
ENDROOT
BRANCH   8  12
ATOM     12  O   UNL d   1      51.144  34.084  52.678  0.00  0.00    -0.303 OA
BRANCH  12  13
ATOM     13  C   UNL d   1      50.508  34.579  52.855  0.00  0.00     0.147 C 
BRANCH  13  14
ATOM     14  C   UNL d   1      49.869  34.631  52.336  0.00  0.00     0.125 A 
ATOM     15  O   UNL d   1      49.123  34.991  52.407  0.00  0.00    -0.300 OA
ATOM     16  C   UNL d   1      48.717  34.857  51.700  0.00  0.00     0.163 A 
ATOM     17  C   UNL d   1      49.195  34.425  51.200  0.00  0.00     0.032 A 
ATOM     18  C   UNL d   1      49.912  34.283  51.593  0.00  0.00     0.029 A 
BRANCH  16  19
ATOM     19  C   UNL d   1      47.942  35.120  51.522  0.00  0.00     0.319 C 
ATOM     20  O   UNL d   1      47.521  34.774  50.912  0.00  0.00    -0.257 OA
BRANCH  19  21
ATOM     21  O   UNL d   1      47.598  35.739  51.970  0.00  0.00    -0.294 OA
ATOM     22  C   UNL d   1      46.836  36.005  51.797  0.00  0.00     0.185 C 
ENDBRANCH  19  21
ENDBRANCH  16  19
ENDBRANCH  13  14
ENDBRANCH  12  13
ENDBRANCH   8  12
BRANCH   2  23
ATOM     23  C   UNL d   1      53.821  31.509  53.419  0.00  0.00     0.083 C 
BRANCH  23  24
ATOM     24  C   UNL d   1      53.502  30.757  53.533  0.00  0.00     0.018 A 
ATOM     25  C   UNL d   1      53.474  30.435  54.290  0.00  0.00     0.002 A 
ATOM     26  C   UNL d   1      53.155  29.683  54.404  0.00  0.00     0.000 A 
ATOM     27  C   UNL d   1      52.866  29.256  53.759  0.00  0.00     0.000 A 
ATOM     28  C   UNL d   1      52.897  29.582  53.006  0.00  0.00     0.000 A 
ATOM     29  C   UNL d   1      53.216  30.334  52.892  0.00  0.00     0.002 A 
ENDBRANCH  23  24
ENDBRANCH   2  23
TORSDOF 7
ENDMDL
MODEL 2
REMARK VINA RESULT:      -8.6      2.272      6.452
REMARK  7 active torsions:
REMARK  status: ('A' for Active; 'I' for Inactive)
REMARK    1  A    between atoms: C_13  and  N_2 
REMARK    2  A    between atoms: C_7  and  C_4 
REMARK    3  A    between atoms: O_19  and  C_7 
REMARK    4  A    between atoms: C_9  and  C_18 
REMARK    5  A    between atoms: C_20  and  C_13 
REMARK    6  A    between atoms: O_16  and  C_15 
REMARK    7  A    between atoms: C_18  and  O_16 
ROOT
ATOM      1  C   UNL d   1      47.463  35.698  51.939  0.00  0.00     0.265 A 
ATOM      2  N   UNL d   1      47.435  36.036  52.692  0.00  0.00    -0.272 N 
ATOM      3  C   UNL d   1      48.118  35.257  51.712  0.00  0.00     0.059 A 
ATOM      4  C   UNL d   1      48.748  35.152  52.235  0.00  0.00     0.029 A 
ATOM      5  C   UNL d   1      48.723  35.487  52.984  0.00  0.00     0.021 A 
ATOM      6  C   UNL d   1      48.065  35.931  53.214  0.00  0.00     0.083 A 
ATOM      7  O   UNL d   1      46.833  35.803  51.417  0.00  0.00    -0.267 OA
ATOM      8  C   UNL d   1      49.405  34.709  52.005  0.00  0.00     0.100 A 
ATOM      9  C   UNL d   1      48.145  34.919  50.960  0.00  0.00     0.005 A 
ATOM     10  C   UNL d   1      48.802  34.476  50.730  0.00  0.00     0.002 A 
ATOM     11  C   UNL d   1      49.432  34.371  51.252  0.00  0.00     0.025 A 
ENDROOT
BRANCH   8  12
ATOM     12  O   UNL d   1      50.035  34.604  52.527  0.00  0.00    -0.303 OA
BRANCH  12  13
ATOM     13  C   UNL d   1      50.709  34.194  52.283  0.00  0.00     0.147 C 
BRANCH  13  14
ATOM     14  C   UNL d   1      51.323  34.058  52.816  0.00  0.00     0.125 A 
ATOM     15  O   UNL d   1      51.864  34.571  53.184  0.00  0.00    -0.300 OA
ATOM     16  C   UNL d   1      52.353  34.110  53.665  0.00  0.00     0.163 A 
ATOM     17  C   UNL d   1      52.125  33.330  53.600  0.00  0.00     0.032 A 
ATOM     18  C   UNL d   1      51.485  33.294  53.073  0.00  0.00     0.029 A 
BRANCH  16  19
ATOM     19  C   UNL d   1      52.980  34.393  54.141  0.00  0.00     0.319 C 
ATOM     20  O   UNL d   1      53.182  35.186  54.125  0.00  0.00    -0.257 OA
BRANCH  19  21
ATOM     21  O   UNL d   1      53.402  33.864  54.636  0.00  0.00    -0.294 OA
ATOM     22  C   UNL d   1      54.107  34.099  54.994  0.00  0.00     0.185 C 
ENDBRANCH  19  21
ENDBRANCH  16  19
ENDBRANCH  13  14
ENDBRANCH  12  13
ENDBRANCH   8  12
BRANCH   2  23
ATOM     23  C   UNL d   1      46.769  36.483  52.920  0.00  0.00     0.083 C 
BRANCH  23  24
ATOM     24  C   UNL d   1      46.399  36.339  53.643  0.00  0.00     0.018 A 
ATOM     25  C   UNL d   1      46.683  36.703  54.325  0.00  0.00     0.002 A 
ATOM     26  C   UNL d   1      46.313  36.560  55.049  0.00  0.00     0.000 A 
ATOM     27  C   UNL d   1      45.662  36.053  55.087  0.00  0.00     0.000 A 
ATOM     28  C   UNL d   1      45.384  35.693  54.402  0.00  0.00     0.000 A 
ATOM     29  C   UNL d   1      45.754  35.837  53.679  0.00  0.00     0.002 A 
ENDBRANCH  23  24
ENDBRANCH   2  23
TORSDOF 7
ENDMDL
MODEL 3
REMARK VINA RESULT:      -7.9      2.169      3.828
REMARK  7 active torsions:
REMARK  status: ('A' for Active; 'I' for Inactive)
REMARK    1  A    between atoms: C_13  and  N_2 
REMARK    2  A    between atoms: C_7  and  C_4 
REMARK    3  A    between atoms: O_19  and  C_7 
REMARK    4  A    between atoms: C_9  and  C_18 
REMARK    5  A    between atoms: C_20  and  C_13 
REMARK    6  A    between atoms: O_16  and  C_15 
REMARK    7  A    between atoms: C_18  and  O_16 
ROOT
ATOM      1  C   UNL d   1      50.994  34.099  52.028  0.00  0.00     0.265 A 
ATOM      2  N   UNL d   1      51.357  34.137  52.768  0.00  0.00    -0.272 N 
ATOM      3  C   UNL d   1      50.227  34.378  51.933  0.00  0.00     0.059 A 
ATOM      4  C   UNL d   1      49.820  34.695  52.577  0.00  0.00     0.029 A 
ATOM      5  C   UNL d   1      50.178  34.734  53.314  0.00  0.00     0.021 A 
ATOM      6  C   UNL d   1      50.949  34.455  53.411  0.00  0.00     0.083 A 
ATOM      7  O   UNL d   1      51.402  33.782  51.385  0.00  0.00    -0.267 OA
ATOM      8  C   UNL d   1      49.049  34.975  52.480  0.00  0.00     0.100 A 
ATOM      9  C   UNL d   1      49.864  34.340  51.193  0.00  0.00     0.005 A 
ATOM     10  C   UNL d   1      49.094  34.619  51.096  0.00  0.00     0.002 A 
ATOM     11  C   UNL d   1      48.686  34.936  51.739  0.00  0.00     0.025 A 
ENDROOT
BRANCH   8  12
ATOM     12  O   UNL d   1      48.641  35.292  53.123  0.00  0.00    -0.303 OA
BRANCH  12  13
ATOM     13  C   UNL d   1      48.062  35.867  53.000  0.00  0.00     0.147 C 
BRANCH  13  14
ATOM     14  C   UNL d   1      47.525  36.046  53.601  0.00  0.00     0.125 A 
ATOM     15  O   UNL d   1      46.797  35.706  53.813  0.00  0.00    -0.300 OA
ATOM     16  C   UNL d   1      46.512  36.125  54.467  0.00  0.00     0.163 A 
ATOM     17  C   UNL d   1      47.048  36.709  54.658  0.00  0.00     0.032 A 
ATOM     18  C   UNL d   1      47.678  36.663  54.121  0.00  0.00     0.029 A 
BRANCH  16  19
ATOM     19  C   UNL d   1      45.793  35.976  54.869  0.00  0.00     0.319 C 
ATOM     20  O   UNL d   1      45.571  36.446  55.501  0.00  0.00    -0.257 OA
BRANCH  19  21
ATOM     21  O   UNL d   1      45.301  35.344  54.625  0.00  0.00    -0.294 OA
ATOM     22  C   UNL d   1      44.668  35.101  55.096  0.00  0.00     0.185 C 
ENDBRANCH  19  21
ENDBRANCH  16  19
ENDBRANCH  13  14
ENDBRANCH  12  13
ENDBRANCH   8  12
BRANCH   2  23
ATOM     23  C   UNL d   1      52.136  33.854  52.862  0.00  0.00     0.083 C 
BRANCH  23  24
ATOM     24  C   UNL d   1      52.595  34.102  53.501  0.00  0.00     0.018 A 
ATOM     25  C   UNL d   1      52.780  33.571  54.102  0.00  0.00     0.002 A 
ATOM     26  C   UNL d   1      53.239  33.819  54.740  0.00  0.00     0.000 A 
ATOM     27  C   UNL d   1      53.512  34.598  54.775  0.00  0.00     0.000 A 
ATOM     28  C   UNL d   1      53.325  35.123  54.172  0.00  0.00     0.000 A 
ATOM     29  C   UNL d   1      52.865  34.875  53.533  0.00  0.00     0.002 A 
ENDBRANCH  23  24
ENDBRANCH   2  23
TORSDOF 7
ENDMDL
MODEL 4
REMARK VINA RESULT:      -7.6      1.613      5.620
REMARK  7 active torsions:
REMARK  status: ('A' for Active; 'I' for Inactive)
REMARK    1  A    between atoms: C_13  and  N_2 
REMARK    2  A    between atoms: C_7  and  C_4 
REMARK    3  A    between atoms: O_19  and  C_7 
REMARK    4  A    between atoms: C_9  and  C_18 
REMARK    5  A    between atoms: C_20  and  C_13 
REMARK    6  A    between atoms: O_16  and  C_15 
REMARK    7  A    between atoms: C_18  and  O_16 
ROOT
ATOM      1  C   UNL d   1      51.463  34.692  53.262  0.00  0.00     0.265 A 
ATOM      2  N   UNL d   1      50.752  34.344  53.029  0.00  0.00    -0.272 N 
ATOM      3  C   UNL d   1      52.122  34.223  53.400  0.00  0.00     0.059 A 
ATOM      4  C   UNL d   1      52.075  33.405  53.308  0.00  0.00     0.029 A 
ATOM      5  C   UNL d   1      51.368  33.055  53.076  0.00  0.00     0.021 A 
ATOM      6  C   UNL d   1      50.705  33.526  52.936  0.00  0.00     0.083 A 
ATOM      7  O   UNL d   1      51.510  35.510  53.355  0.00  0.00    -0.267 OA
ATOM      8  C   UNL d   1      52.739  32.934  53.448  0.00  0.00     0.100 A 
ATOM      9  C   UNL d   1      52.833  34.571  53.633  0.00  0.00     0.005 A 
ATOM     10  C   UNL d   1      53.497  34.102  53.774  0.00  0.00     0.002 A 
ATOM     11  C   UNL d   1      53.450  33.283  53.681  0.00  0.00     0.025 A 
ENDROOT
BRANCH   8  12
ATOM     12  O   UNL d   1      52.692  32.116  53.355  0.00  0.00    -0.303 OA
BRANCH  12  13
ATOM     13  C   UNL d   1      53.380  31.661  53.357  0.00  0.00     0.147 C 
BRANCH  13  14
ATOM     14  C   UNL d   1      53.336  30.848  53.493  0.00  0.00     0.125 A 
ATOM     15  O   UNL d   1      53.356  30.400  54.193  0.00  0.00    -0.300 OA
ATOM     16  C   UNL d   1      53.288  29.605  53.978  0.00  0.00     0.163 A 
ATOM     17  C   UNL d   1      53.227  29.557  53.167  0.00  0.00     0.032 A 
ATOM     18  C   UNL d   1      53.256  30.328  52.862  0.00  0.00     0.029 A 
BRANCH  16  19
ATOM     19  C   UNL d   1      53.283  28.953  54.504  0.00  0.00     0.319 C 
ATOM     20  O   UNL d   1      53.312  28.190  54.212  0.00  0.00    -0.257 OA
BRANCH  19  21
ATOM     21  O   UNL d   1      53.247  29.085  55.331  0.00  0.00    -0.294 OA
ATOM     22  C   UNL d   1      53.252  28.447  55.855  0.00  0.00     0.185 C 
ENDBRANCH  19  21
ENDBRANCH  16  19
ENDBRANCH  13  14
ENDBRANCH  12  13
ENDBRANCH   8  12
BRANCH   2  23
ATOM     23  C   UNL d   1      50.083  34.823  52.888  0.00  0.00     0.083 C 
BRANCH  23  24
ATOM     24  C   UNL d   1      49.624  34.709  52.212  0.00  0.00     0.018 A 
ATOM     25  C   UNL d   1      48.804  34.754  52.263  0.00  0.00     0.002 A 
ATOM     26  C   UNL d   1      48.345  34.640  51.587  0.00  0.00     0.000 A 
ATOM     27  C   UNL d   1      48.709  34.483  50.863  0.00  0.00     0.000 A 
ATOM     28  C   UNL d   1      49.528  34.440  50.818  0.00  0.00     0.000 A 
ATOM     29  C   UNL d   1      49.987  34.553  51.494  0.00  0.00     0.002 A 
ENDBRANCH  23  24
ENDBRANCH   2  23
TORSDOF 7
ENDMDL
MODEL 5
REMARK VINA RESULT:      -7.3      1.544      2.689
REMARK  7 active torsions:
REMARK  status: ('A' for Active; 'I' for Inactive)
REMARK    1  A    between atoms: C_13  and  N_2 
REMARK    2  A    between atoms: C_7  and  C_4 
REMARK    3  A    between atoms: O_19  and  C_7 
REMARK    4  A    between atoms: C_9  and  C_18 
REMARK    5  A    between atoms: C_20  and  C_13 
REMARK    6  A    between atoms: O_16  and  C_15 
REMARK    7  A    between atoms: C_18  and  O_16 
ROOT
ATOM      1  C   UNL d   1      52.977  32.426  53.424  0.00  0.00     0.265 A 
ATOM      2  N   UNL d   1      53.451  33.087  53.566  0.00  0.00    -0.272 N 
ATOM      3  C   UNL d   1      52.181  32.523  53.248  0.00  0.00     0.059 A 
ATOM      4  C   UNL d   1      51.854  33.280  53.215  0.00  0.00     0.029 A 
ATOM      5  C   UNL d   1      52.323  33.939  53.356  0.00  0.00     0.021 A 
ATOM      6  C   UNL d   1      53.123  33.843  53.533  0.00  0.00     0.083 A 
ATOM      7  O   UNL d   1      53.305  31.670  53.457  0.00  0.00    -0.267 OA
ATOM      8  C   UNL d   1      51.053  33.376  53.038  0.00  0.00     0.100 A 
ATOM      9  C   UNL d   1      51.708  31.863  53.106  0.00  0.00     0.005 A 
ATOM     10  C   UNL d   1      50.907  31.958  52.929  0.00  0.00     0.002 A 
ATOM     11  C   UNL d   1      50.580  32.714  52.895  0.00  0.00     0.025 A 
ENDROOT
BRANCH   8  12
ATOM     12  O   UNL d   1      50.726  34.132  53.005  0.00  0.00    -0.303 OA
BRANCH  12  13
ATOM     13  C   UNL d   1      50.144  34.305  52.446  0.00  0.00     0.147 C 
BRANCH  13  14
ATOM     14  C   UNL d   1      49.535  34.830  52.633  0.00  0.00     0.125 A 
ATOM     15  O   UNL d   1      49.344  35.229  53.337  0.00  0.00    -0.300 OA
ATOM     16  C   UNL d   1      48.668  35.681  53.187  0.00  0.00     0.163 A 
ATOM     17  C   UNL d   1      48.444  35.568  52.411  0.00  0.00     0.032 A 
ATOM     18  C   UNL d   1      48.981  35.039  52.064  0.00  0.00     0.029 A 
BRANCH  16  19
ATOM     19  C   UNL d   1      48.276  36.175  53.737  0.00  0.00     0.319 C 
ATOM     20  O   UNL d   1      48.704  36.709  54.186  0.00  0.00    -0.257 OA
BRANCH  19  21
ATOM     21  O   UNL d   1      47.445  36.122  53.829  0.00  0.00    -0.294 OA
ATOM     22  C   UNL d   1      47.085  36.383  54.524  0.00  0.00     0.185 C 
ENDBRANCH  19  21
ENDBRANCH  16  19
ENDBRANCH  13  14
ENDBRANCH  12  13
ENDBRANCH   8  12
BRANCH   2  23
ATOM     23  C   UNL d   1      54.259  32.985  53.744  0.00  0.00     0.083 C 
BRANCH  23  24
ATOM     24  C   UNL d   1      54.582  33.326  54.423  0.00  0.00     0.018 A 
ATOM     25  C   UNL d   1      55.041  34.006  54.359  0.00  0.00     0.002 A 
ATOM     26  C   UNL d   1      55.364  34.347  55.038  0.00  0.00     0.000 A 
ATOM     27  C   UNL d   1      55.227  34.005  55.777  0.00  0.00     0.000 A 
ATOM     28  C   UNL d   1      54.768  33.326  55.833  0.00  0.00     0.000 A 
ATOM     29  C   UNL d   1      54.445  32.985  55.155  0.00  0.00     0.002 A 
ENDBRANCH  23  24
ENDBRANCH   2  23
TORSDOF 7
ENDMDL
