MODEL 1
REMARK VINA RESULT:      -8.6      0.000      0.000
REMARK  4 active torsions:
REMARK  status: ('A' for Active; 'I' for Inactive)
REMARK    1  A    between atoms: C_6  and  C_1 
REMARK    2  A    between atoms: C_4  and  C_2 
REMARK    3  A    between atoms: C_3  and  N_5 
REMARK    4  A    between atoms: N_5  and  C_7 
ROOT
ATOM      1  C   UNL d   1     -49.846  12.275  22.603  0.00  0.00     0.073 A 
ATOM      2  C   UNL d   1     -48.495  12.585  22.279  0.00  0.00     0.081 A 
ATOM      3  C   UNL d   1     -49.070  12.399  22.839  0.00  0.00     0.023 A 
ATOM      4  C   UNL d   1     -50.048  12.336  21.813  0.00  0.00     0.004 A 
ATOM      5  C   UNL d   1     -49.471  12.523  21.251  0.00  0.00     0.002 A 
ATOM      6  C   UNL d   1     -48.696  12.647  21.483  0.00  0.00     0.019 A 
ENDROOT
BRANCH   2   7
ATOM      7  N   UNL d   1     -47.717  12.710  22.510  0.00  0.00    -0.245 NA
BRANCH   7   8
ATOM      8  C   UNL d   1     -47.440  13.484  22.596  0.00  0.00     0.087 A 
ATOM      9  C   UNL d   1     -46.656  13.618  22.825  0.00  0.00     0.082 A 
ATOM     10  C   UNL d   1     -46.375  14.389  22.912  0.00  0.00     0.008 A 
ATOM     11  C   UNL d   1     -46.876  15.032  22.771  0.00  0.00     0.000 A 
ATOM     12  C   UNL d   1     -47.659  14.903  22.543  0.00  0.00     0.002 A 
ATOM     13  C   UNL d   1     -47.944  14.129  22.455  0.00  0.00     0.019 A 
BRANCH   9  14
ATOM     14  C   UNL d   1     -46.147  12.971  22.967  0.00  0.00     0.212 C 
ATOM     15  O   UNL d   1     -46.171  12.596  23.698  0.00  0.00    -0.644 OA
ATOM     16  O   UNL d   1     -45.633  12.722  22.379  0.00  0.00    -0.644 OA
ENDBRANCH   9  14
ENDBRANCH   7   8
ENDBRANCH   2   7
BRANCH   1  17
ATOM     17  C   UNL d   1     -50.421  12.089  23.163  0.00  0.00     0.419 C 
ATOM     18  F   UNL d   1     -50.988  12.655  23.382  0.00  0.00    -0.166 F 
ATOM     19  F   UNL d   1     -50.436  11.337  23.511  0.00  0.00    -0.166 F 
ATOM     20  F   UNL d   1     -51.062  12.110  23.686  0.00  0.00    -0.166 F 
ENDBRANCH   1  17
TORSDOF 4
ENDMDL
MODEL 2
REMARK VINA RESULT:      -8.5      2.876      3.937
REMARK  4 active torsions:
REMARK  status: ('A' for Active; 'I' for Inactive)
REMARK    1  A    between atoms: C_6  and  C_1 
REMARK    2  A    between atoms: C_4  and  C_2 
REMARK    3  A    between atoms: C_3  and  N_5 
REMARK    4  A    between atoms: N_5  and  C_7 
ROOT
ATOM      1  C   UNL d   1     -46.249  13.185  22.632  0.00  0.00     0.073 A 
ATOM      2  C   UNL d   1     -47.592  13.449  23.024  0.00  0.00     0.081 A 
ATOM      3  C   UNL d   1     -46.924  13.650  22.585  0.00  0.00     0.023 A 
ATOM      4  C   UNL d   1     -46.240  12.524  23.112  0.00  0.00     0.004 A 
ATOM      5  C   UNL d   1     -46.910  12.322  23.552  0.00  0.00     0.002 A 
ATOM      6  C   UNL d   1     -47.585  12.784  23.508  0.00  0.00     0.019 A 
ENDROOT
BRANCH   2   7
ATOM      7  N   UNL d   1     -48.269  13.911  22.981  0.00  0.00    -0.245 NA
BRANCH   7   8
ATOM      8  C   UNL d   1     -48.868  13.702  22.451  0.00  0.00     0.087 A 
ATOM      9  C   UNL d   1     -49.545  14.176  22.387  0.00  0.00     0.082 A 
ATOM     10  C   UNL d   1     -50.146  13.971  21.860  0.00  0.00     0.008 A 
ATOM     11  C   UNL d   1     -50.074  13.292  21.393  0.00  0.00     0.000 A 
ATOM     12  C   UNL d   1     -49.402  12.817  21.453  0.00  0.00     0.002 A 
ATOM     13  C   UNL d   1     -48.797  13.021  21.982  0.00  0.00     0.019 A 
BRANCH   9  14
ATOM     14  C   UNL d   1     -49.620  14.861  22.858  0.00  0.00     0.212 C 
ATOM     15  O   UNL d   1     -49.344  15.579  22.567  0.00  0.00    -0.644 OA
ATOM     16  O   UNL d   1     -49.967  14.809  23.599  0.00  0.00    -0.644 OA
ENDBRANCH   9  14
ENDBRANCH   7   8
ENDBRANCH   2   7
BRANCH   1  17
ATOM     17  C   UNL d   1     -45.581  13.386  22.193  0.00  0.00     0.419 C 
ATOM     18  F   UNL d   1     -45.090  14.008  22.442  0.00  0.00    -0.166 F 
ATOM     19  F   UNL d   1     -45.396  12.968  21.502  0.00  0.00    -0.166 F 
ATOM     20  F   UNL d   1     -44.888  13.739  21.912  0.00  0.00    -0.166 F 
ENDBRANCH   1  17
TORSDOF 4
ENDMDL
MODEL 3
REMARK VINA RESULT:      -8.1      1.477      2.121
REMARK  4 active torsions:
REMARK  status: ('A' for Active; 'I' for Inactive)
REMARK    1  A    between atoms: C_6  and  C_1 
REMARK    2  A    between atoms: C_4  and  C_2 
REMARK    3  A    between atoms: C_3  and  N_5 
REMARK    4  A    between atoms: N_5  and  C_7 
ROOT
ATOM      1  C   UNL d   1     -49.788  13.527  22.096  0.00  0.00     0.073 A 
ATOM      2  C   UNL d   1     -48.515  13.710  22.707  0.00  0.00     0.081 A 
ATOM      3  C   UNL d   1     -48.976  13.410  22.093  0.00  0.00     0.023 A 
ATOM      4  C   UNL d   1     -50.140  13.941  22.707  0.00  0.00     0.004 A 
ATOM      5  C   UNL d   1     -49.678  14.242  23.323  0.00  0.00     0.002 A 
ATOM      6  C   UNL d   1     -48.867  14.127  23.323  0.00  0.00     0.019 A 
ENDROOT
BRANCH   2   7
ATOM      7  N   UNL d   1     -47.702  13.596  22.709  0.00  0.00    -0.245 NA
BRANCH   7   8
ATOM      8  C   UNL d   1     -47.392  12.904  23.039  0.00  0.00     0.087 A 
ATOM      9  C   UNL d   1     -46.573  12.784  23.050  0.00  0.00     0.082 A 
ATOM     10  C   UNL d   1     -46.259  12.095  23.378  0.00  0.00     0.008 A 
ATOM     11  C   UNL d   1     -46.761  11.521  23.698  0.00  0.00     0.000 A 
ATOM     12  C   UNL d   1     -47.579  11.636  23.690  0.00  0.00     0.002 A 
ATOM     13  C   UNL d   1     -47.897  12.328  23.360  0.00  0.00     0.019 A 
BRANCH   9  14
ATOM     14  C   UNL d   1     -46.063  13.362  22.728  0.00  0.00     0.212 C 
ATOM     15  O   UNL d   1     -45.820  13.989  23.200  0.00  0.00    -0.644 OA
ATOM     16  O   UNL d   1     -45.814  13.294  21.950  0.00  0.00    -0.644 OA
ENDBRANCH   9  14
ENDBRANCH   7   8
ENDBRANCH   2   7
BRANCH   1  17
ATOM     17  C   UNL d   1     -50.248  13.227  21.482  0.00  0.00     0.419 C 
ATOM     18  F   UNL d   1     -50.381  12.409  21.422  0.00  0.00    -0.166 F 
ATOM     19  F   UNL d   1     -50.580  13.738  20.921  0.00  0.00    -0.166 F 
ATOM     20  F   UNL d   1     -50.663  12.733  20.964  0.00  0.00    -0.166 F 
ENDBRANCH   1  17
TORSDOF 4
ENDMDL
