MODEL 1
REMARK VINA RESULT:      39.9      0.000      0.000
REMARK  3 active torsions:
REMARK  status: ('A' for Active; 'I' for Inactive)
REMARK       I    between atoms: C_4  and  N_1 
REMARK    1  A    between atoms: C_7  and  C_3 
REMARK    2  A    between atoms: C_9  and  C_4 
REMARK    3  A    between atoms: C_8  and  C_5 
ROOT
ATOM      1  N   UNL d   1      14.106  13.138  -2.336  0.00  0.00    -0.191 N 
ATOM      2  N   UNL d   1      14.400  13.777  -1.921  0.00  0.00    -0.163 NA
ATOM      3  C   UNL d   1      13.891  13.430  -3.098  0.00  0.00     0.110 A 
ATOM      4  C   UNL d   1      14.031  12.374  -2.078  0.00  0.00     0.303 C 
ATOM      5  C   UNL d   1      14.375  14.451  -2.397  0.00  0.00     0.103 A 
ATOM      6  C   UNL d   1      14.064  14.239  -3.114  0.00  0.00     0.042 A 
ATOM      7  O   UNL d   1      13.701  11.779  -2.618  0.00  0.00    -0.263 OA
ENDROOT
BRANCH   3   8
ATOM      8  C   UNL d   1      13.566  12.984  -3.713  0.00  0.00     0.118 A 
ATOM      9  O   UNL d   1      13.862  12.278  -3.989  0.00  0.00    -0.304 OA
ATOM     10  C   UNL d   1      13.367  12.017  -4.611  0.00  0.00     0.123 A 
ATOM     11  C   UNL d   1      12.769  12.578  -4.703  0.00  0.00     0.029 A 
ATOM     12  C   UNL d   1      12.903  13.178  -4.136  0.00  0.00     0.028 A 
ENDBRANCH   3   8
BRANCH   4  13
ATOM     13  C   UNL d   1      14.256  12.142  -1.328  0.00  0.00     0.158 A 
ATOM     14  O   UNL d   1      15.020  12.003  -1.062  0.00  0.00    -0.300 OA
ATOM     15  C   UNL d   1      14.996  11.781  -0.274  0.00  0.00     0.123 A 
ATOM     16  C   UNL d   1      14.207  11.779  -0.040  0.00  0.00     0.029 A 
ATOM     17  C   UNL d   1      13.742  12.003  -0.689  0.00  0.00     0.032 A 
ENDBRANCH   4  13
BRANCH   5  18
ATOM     18  C   UNL d   1      14.631  15.206  -2.154  0.00  0.00     0.019 A 
ATOM     19  C   UNL d   1      14.794  15.318  -1.377  0.00  0.00     0.002 A 
ATOM     20  C   UNL d   1      15.049  16.053  -1.103  0.00  0.00     0.000 A 
ATOM     21  C   UNL d   1      15.137  16.669  -1.633  0.00  0.00     0.000 A 
ATOM     22  C   UNL d   1      14.972  16.570  -2.444  0.00  0.00     0.000 A 
ATOM     23  C   UNL d   1      15.393  17.400  -1.353  0.00  0.00     0.000 C 
ATOM     24  C   UNL d   1      14.711  15.808  -2.707  0.00  0.00     0.002 A 
ENDBRANCH   5  18
TORSDOF 3
ENDMDL
