MODEL 1
REMARK VINA RESULT:      22.7      0.000      0.000
REMARK  6 active torsions:
REMARK  status: ('A' for Active; 'I' for Inactive)
REMARK    1  A    between atoms: N_2  and  S_1 
REMARK    2  A    between atoms: C_6  and  S_1 
REMARK    3  A    between atoms: C_3  and  N_2 
REMARK       I    between atoms: C_7  and  N_13 
REMARK    4  A    between atoms: C_10  and  C_7 
REMARK    5  A    between atoms: C_12  and  C_10 
REMARK    6  A    between atoms: C_11  and  C_12 
ROOT
ATOM      1  C   UNL d   1      45.731 -16.462  43.755  0.00  0.00     0.105 A 
ATOM      2  C   UNL d   1      46.487 -19.456  42.387  0.00  0.00     0.280 C 
ATOM      3  N   UNL d   1      46.221 -18.742  42.068  0.00  0.00    -0.208 NA
ATOM      4  O   UNL d   1      46.628 -20.109  41.909  0.00  0.00    -0.265 OA
ATOM      5  C   UNL d   1      45.605 -16.401  42.948  0.00  0.00     0.015 A 
ATOM      6  C   UNL d   1      45.992 -17.153  44.090  0.00  0.00     0.015 A 
ATOM      7  C   UNL d   1      46.009 -17.762  42.785  0.00  0.00     0.085 A 
ATOM      8  C   UNL d   1      45.745 -17.057  42.457  0.00  0.00     0.020 A 
ATOM      9  C   UNL d   1      46.133 -17.811  43.601  0.00  0.00     0.020 A 
ENDROOT
BRANCH   1  10
ATOM     10  S   UNL d   1      45.584 -15.779  44.255  0.00  0.00     0.285 S 
ATOM     11  O   UNL d   1      45.312 -16.268  44.857  0.00  0.00    -0.198 OA
ATOM     12  O   UNL d   1      45.864 -15.285  43.631  0.00  0.00    -0.198 OA
BRANCH  10  13
ATOM     13  N   UNL d   1      45.446 -15.097  44.730  0.00  0.00    -0.158 NA
BRANCH  13  14
ATOM     14  C   UNL d   1      45.250 -14.384  44.375  0.00  0.00     0.094 A 
ATOM     15  C   UNL d   1      45.827 -13.946  43.991  0.00  0.00     0.018 A 
ATOM     16  C   UNL d   1      45.615 -13.233  43.640  0.00  0.00     0.002 A 
ATOM     17  C   UNL d   1      46.633 -14.231  43.962  0.00  0.00     0.002 C 
ATOM     18  C   UNL d   1      44.857 -12.974  43.673  0.00  0.00     0.000 A 
ATOM     19  C   UNL d   1      44.263 -13.401  44.054  0.00  0.00     0.002 A 
ATOM     20  C   UNL d   1      44.665 -12.236  43.302  0.00  0.00     0.000 C 
ATOM     21  C   UNL d   1      44.457 -14.108  44.406  0.00  0.00     0.018 A 
ATOM     22  C   UNL d   1      43.863 -14.532  44.785  0.00  0.00     0.002 C 
ENDBRANCH  13  14
ENDBRANCH  10  13
ENDBRANCH   1  10
BRANCH   2  23
ATOM     23  C   UNL d   1      46.608 -19.495  43.210  0.00  0.00     0.069 C 
BRANCH  23  24
ATOM     24  C   UNL d   1      46.414 -20.207  43.612  0.00  0.00     0.075 C 
BRANCH  24  25
ATOM     25  C   UNL d   1      45.692 -20.272  44.003  0.00  0.00     0.211 C 
ATOM     26  O   UNL d   1      45.648 -20.287  44.842  0.00  0.00    -0.644 OA
ATOM     27  O   UNL d   1      44.983 -20.324  43.577  0.00  0.00    -0.644 OA
ENDBRANCH  24  25
ENDBRANCH  23  24
ENDBRANCH   2  23
TORSDOF 6
ENDMDL
