MODEL 1
REMARK VINA RESULT:      18.5      0.000      0.000
REMARK  2 active torsions:
REMARK  status: ('A' for Active; 'I' for Inactive)
REMARK    1  A    between atoms: C_11  and  N_1 
REMARK    2  A    between atoms: C_16  and  C_11 
ROOT
ATOM      1  C   UNL d   1      45.446 -15.724  44.954  0.00  0.00     0.086 C 
ENDROOT
BRANCH   1   2
ATOM      2  N   UNL d   1      45.323 -14.989  44.607  0.00  0.00    -0.240 N 
ATOM      3  C   UNL d   1      45.879 -14.382  44.561  0.00  0.00     0.267 A 
ATOM      4  C   UNL d   1      45.524 -13.744  44.170  0.00  0.00     0.061 A 
ATOM      5  O   UNL d   1      46.647 -14.402  44.848  0.00  0.00    -0.267 OA
ATOM      6  C   UNL d   1      45.805 -13.002  43.968  0.00  0.00     0.005 A 
ATOM      7  C   UNL d   1      44.752 -13.959  43.978  0.00  0.00     0.061 A 
ATOM      8  C   UNL d   1      45.313 -12.473  43.572  0.00  0.00     0.000 A 
ATOM      9  C   UNL d   1      44.544 -12.686  43.380  0.00  0.00     0.000 A 
ATOM     10  C   UNL d   1      44.264 -13.437  43.586  0.00  0.00     0.005 A 
ATOM     11  C   UNL d   1      44.631 -14.729  44.249  0.00  0.00     0.267 A 
ATOM     12  O   UNL d   1      43.928 -15.163  44.171  0.00  0.00    -0.267 OA
ENDBRANCH   1   2
BRANCH   1  13
ATOM     13  C   UNL d   1      45.691 -16.373  44.493  0.00  0.00     0.018 A 
ATOM     14  C   UNL d   1      45.808 -17.106  44.852  0.00  0.00     0.003 A 
ATOM     15  C   UNL d   1      46.055 -17.758  44.383  0.00  0.00     0.018 A 
ATOM     16  C   UNL d   1      46.216 -18.544  44.572  0.00  0.00     0.019 A 
ATOM     17  C   UNL d   1      46.177 -17.657  43.570  0.00  0.00     0.064 A 
ATOM     18  C   UNL d   1      46.439 -18.940  43.883  0.00  0.00     0.064 A 
ATOM     19  C   UNL d   1      46.647 -19.736  43.824  0.00  0.00     0.019 C 
ATOM     20  N   UNL d   1      46.413 -18.388  43.268  0.00  0.00    -0.304 N 
ATOM     21  C   UNL d   1      46.597 -18.548  42.469  0.00  0.00     0.099 C 
ATOM     22  C   UNL d   1      46.058 -16.920  43.215  0.00  0.00     0.018 A 
ATOM     23  C   UNL d   1      45.816 -16.280  43.671  0.00  0.00     0.003 A 
ENDBRANCH   1  13
TORSDOF 2
ENDMDL
