MODEL 1
REMARK VINA RESULT:      -5.8      0.000      0.000
REMARK  8 active torsions:
REMARK  status: ('A' for Active; 'I' for Inactive)
REMARK    1  A    between atoms: C_2  and  C_1 
REMARK    2  A    between atoms: C_5  and  C_1 
REMARK    3  A    between atoms: O_11  and  C_2 
REMARK    4  A    between atoms: C_13  and  C_3 
REMARK    5  A    between atoms: C_6  and  C_5 
REMARK    6  A    between atoms: C_23  and  O_11 
REMARK    7  A    between atoms: C_12  and  S_14 
REMARK    8  A    between atoms: S_14  and  C_18 
ROOT
ATOM      1  C   UNL d   1     -49.846  12.772  23.313  0.00  0.00     0.134 C 
ATOM      2  C   UNL d   1     -50.262  12.086  23.503  0.00  0.00     0.106 C 
ATOM      3  N   UNL d   1     -50.674  11.398  23.696  0.00  0.00    -0.191 NA
ENDROOT
BRANCH   1   4
ATOM      4  C   UNL d   1     -50.144  13.281  22.733  0.00  0.00     0.310 C 
ATOM      5  O   UNL d   1     -50.204  13.027  21.950  0.00  0.00    -0.258 OA
BRANCH   4   6
ATOM      6  O   UNL d   1     -50.384  14.047  22.935  0.00  0.00    -0.273 OA
BRANCH   6   7
ATOM      7  C   UNL d   1     -50.550  14.591  22.347  0.00  0.00     0.103 C 
ATOM      8  C   UNL d   1     -50.208  15.341  22.364  0.00  0.00     0.027 C 
ATOM      9  C   UNL d   1     -51.064  14.388  21.732  0.00  0.00     0.027 C 
ENDBRANCH   6   7
ENDBRANCH   4   6
ENDBRANCH   1   4
BRANCH   1  10
ATOM     10  C   UNL d   1     -49.142  12.953  23.692  0.00  0.00     0.040 C 
BRANCH  10  11
ATOM     11  C   UNL d   1     -48.490  12.471  23.585  0.00  0.00     0.101 A 
ATOM     12  O   UNL d   1     -47.810  12.833  23.298  0.00  0.00    -0.307 OA
ATOM     13  C   UNL d   1     -47.224  12.260  23.231  0.00  0.00     0.100 A 
ATOM     14  C   UNL d   1     -47.542  11.540  23.477  0.00  0.00     0.027 A 
ATOM     15  C   UNL d   1     -48.314  11.661  23.695  0.00  0.00     0.027 A 
BRANCH  13  16
ATOM     16  C   UNL d   1     -46.459  12.377  22.966  0.00  0.00     0.023 A 
ATOM     17  C   UNL d   1     -46.414  13.139  22.635  0.00  0.00     0.003 A 
ATOM     18  C   UNL d   1     -45.696  13.410  22.320  0.00  0.00     0.007 A 
ATOM     19  C   UNL d   1     -45.030  12.928  22.334  0.00  0.00     0.034 A 
ATOM     20  C   UNL d   1     -45.074  12.173  22.662  0.00  0.00     0.007 A 
ATOM     21  C   UNL d   1     -45.785  11.893  22.978  0.00  0.00     0.003 A 
BRANCH  19  22
ATOM     22  S   UNL d   1     -44.321  13.200  22.021  0.00  0.00    -0.028 SA
BRANCH  22  23
ATOM     23  C   UNL d   1     -43.896  12.728  21.498  0.00  0.00     0.309 C 
ATOM     24  F   UNL d   1     -44.060  12.756  20.690  0.00  0.00    -0.165 F 
ATOM     25  F   UNL d   1     -43.307  12.226  21.781  0.00  0.00    -0.165 F 
ENDBRANCH  22  23
ENDBRANCH  19  22
ENDBRANCH  13  16
ENDBRANCH  10  11
ENDBRANCH   1  10
TORSDOF 8
ENDMDL
MODEL 2
REMARK VINA RESULT:      -5.7      1.019      1.395
REMARK  8 active torsions:
REMARK  status: ('A' for Active; 'I' for Inactive)
REMARK    1  A    between atoms: C_2  and  C_1 
REMARK    2  A    between atoms: C_5  and  C_1 
REMARK    3  A    between atoms: O_11  and  C_2 
REMARK    4  A    between atoms: C_13  and  C_3 
REMARK    5  A    between atoms: C_6  and  C_5 
REMARK    6  A    between atoms: C_23  and  O_11 
REMARK    7  A    between atoms: C_12  and  S_14 
REMARK    8  A    between atoms: S_14  and  C_18 
ROOT
ATOM      1  C   UNL d   1     -50.433  13.390  22.901  0.00  0.00     0.134 C 
ATOM      2  C   UNL d   1     -50.738  12.979  22.254  0.00  0.00     0.106 C 
ATOM      3  N   UNL d   1     -51.042  12.563  21.610  0.00  0.00    -0.191 NA
ENDROOT
BRANCH   1   4
ATOM      4  C   UNL d   1     -50.388  14.215  22.874  0.00  0.00     0.310 C 
ATOM      5  O   UNL d   1     -50.383  14.605  22.146  0.00  0.00    -0.258 OA
BRANCH   4   6
ATOM      6  O   UNL d   1     -50.348  14.654  23.574  0.00  0.00    -0.273 OA
BRANCH   6   7
ATOM      7  C   UNL d   1     -50.361  15.471  23.545  0.00  0.00     0.103 C 
ATOM      8  C   UNL d   1     -49.674  15.892  23.365  0.00  0.00     0.027 C 
ATOM      9  C   UNL d   1     -51.064  15.878  23.698  0.00  0.00     0.027 C 
ENDBRANCH   6   7
ENDBRANCH   4   6
ENDBRANCH   1   4
BRANCH   1  10
ATOM     10  C   UNL d   1     -50.175  12.989  23.568  0.00  0.00     0.040 C 
BRANCH  10  11
ATOM     11  C   UNL d   1     -49.578  12.433  23.499  0.00  0.00     0.101 A 
ATOM     12  O   UNL d   1     -48.815  12.723  23.409  0.00  0.00    -0.307 OA
ATOM     13  C   UNL d   1     -48.303  12.082  23.351  0.00  0.00     0.100 A 
ATOM     14  C   UNL d   1     -48.751  11.392  23.405  0.00  0.00     0.027 A 
ATOM     15  C   UNL d   1     -49.530  11.598  23.496  0.00  0.00     0.027 A 
BRANCH  13  16
ATOM     16  C   UNL d   1     -47.491  12.118  23.255  0.00  0.00     0.023 A 
ATOM     17  C   UNL d   1     -47.316  12.770  22.769  0.00  0.00     0.003 A 
ATOM     18  C   UNL d   1     -46.527  12.941  22.578  0.00  0.00     0.007 A 
ATOM     19  C   UNL d   1     -45.920  12.468  22.867  0.00  0.00     0.034 A 
ATOM     20  C   UNL d   1     -46.093  11.822  23.348  0.00  0.00     0.007 A 
ATOM     21  C   UNL d   1     -46.875  11.643  23.545  0.00  0.00     0.003 A 
BRANCH  19  22
ATOM     22  S   UNL d   1     -45.140  12.642  22.675  0.00  0.00    -0.028 SA
BRANCH  22  23
ATOM     23  C   UNL d   1     -44.975  13.139  22.040  0.00  0.00     0.309 C 
ATOM     24  F   UNL d   1     -45.150  13.944  22.091  0.00  0.00    -0.165 F 
ATOM     25  F   UNL d   1     -44.635  12.834  21.355  0.00  0.00    -0.165 F 
ENDBRANCH  22  23
ENDBRANCH  19  22
ENDBRANCH  13  16
ENDBRANCH  10  11
ENDBRANCH   1  10
TORSDOF 8
ENDMDL
MODEL 3
REMARK VINA RESULT:      -5.6      1.365      2.127
REMARK  8 active torsions:
REMARK  status: ('A' for Active; 'I' for Inactive)
REMARK    1  A    between atoms: C_2  and  C_1 
REMARK    2  A    between atoms: C_5  and  C_1 
REMARK    3  A    between atoms: O_11  and  C_2 
REMARK    4  A    between atoms: C_13  and  C_3 
REMARK    5  A    between atoms: C_6  and  C_5 
REMARK    6  A    between atoms: C_23  and  O_11 
REMARK    7  A    between atoms: C_12  and  S_14 
REMARK    8  A    between atoms: S_14  and  C_18 
ROOT
ATOM      1  C   UNL d   1     -49.671  14.288  23.179  0.00  0.00     0.134 C 
ATOM      2  C   UNL d   1     -50.078  14.993  23.050  0.00  0.00     0.106 C 
ATOM      3  N   UNL d   1     -50.482  15.701  22.922  0.00  0.00    -0.191 NA
ENDROOT
BRANCH   1   4
ATOM      4  C   UNL d   1     -50.022  13.570  22.967  0.00  0.00     0.310 C 
ATOM      5  O   UNL d   1     -50.398  13.494  22.236  0.00  0.00    -0.258 OA
BRANCH   4   6
ATOM      6  O   UNL d   1     -49.998  12.925  23.484  0.00  0.00    -0.273 OA
BRANCH   6   7
ATOM      7  C   UNL d   1     -50.384  12.230  23.289  0.00  0.00     0.103 C 
ATOM      8  C   UNL d   1     -51.064  12.003  23.697  0.00  0.00     0.027 C 
ATOM      9  C   UNL d   1     -50.092  11.753  22.681  0.00  0.00     0.027 C 
ENDBRANCH   6   7
ENDBRANCH   4   6
ENDBRANCH   1   4
BRANCH   1  10
ATOM     10  C   UNL d   1     -48.923  14.293  23.516  0.00  0.00     0.040 C 
BRANCH  10  11
ATOM     11  C   UNL d   1     -48.274  14.485  23.056  0.00  0.00     0.101 A 
ATOM     12  O   UNL d   1     -47.638  13.966  23.084  0.00  0.00    -0.307 OA
ATOM     13  C   UNL d   1     -47.049  14.256  22.589  0.00  0.00     0.100 A 
ATOM     14  C   UNL d   1     -47.322  14.959  22.253  0.00  0.00     0.027 A 
ATOM     15  C   UNL d   1     -48.069  15.105  22.534  0.00  0.00     0.027 A 
BRANCH  13  16
ATOM     16  C   UNL d   1     -46.319  13.913  22.450  0.00  0.00     0.023 A 
ATOM     17  C   UNL d   1     -46.393  13.093  22.571  0.00  0.00     0.003 A 
ATOM     18  C   UNL d   1     -45.733  12.601  22.468  0.00  0.00     0.007 A 
ATOM     19  C   UNL d   1     -45.008  12.922  22.247  0.00  0.00     0.034 A 
ATOM     20  C   UNL d   1     -44.936  13.734  22.128  0.00  0.00     0.007 A 
ATOM     21  C   UNL d   1     -45.587  14.233  22.228  0.00  0.00     0.003 A 
BRANCH  19  22
ATOM     22  S   UNL d   1     -44.357  12.430  22.147  0.00  0.00    -0.028 SA
BRANCH  22  23
ATOM     23  C   UNL d   1     -43.794  12.610  21.575  0.00  0.00     0.309 C 
ATOM     24  F   UNL d   1     -44.003  12.615  20.777  0.00  0.00    -0.165 F 
ATOM     25  F   UNL d   1     -43.020  12.784  21.798  0.00  0.00    -0.165 F 
ENDBRANCH  22  23
ENDBRANCH  19  22
ENDBRANCH  13  16
ENDBRANCH  10  11
ENDBRANCH   1  10
TORSDOF 8
ENDMDL
MODEL 4
REMARK VINA RESULT:      -5.0      1.641      2.000
REMARK  8 active torsions:
REMARK  status: ('A' for Active; 'I' for Inactive)
REMARK    1  A    between atoms: C_2  and  C_1 
REMARK    2  A    between atoms: C_5  and  C_1 
REMARK    3  A    between atoms: O_11  and  C_2 
REMARK    4  A    between atoms: C_13  and  C_3 
REMARK    5  A    between atoms: C_6  and  C_5 
REMARK    6  A    between atoms: C_23  and  O_11 
REMARK    7  A    between atoms: C_12  and  S_14 
REMARK    8  A    between atoms: S_14  and  C_18 
ROOT
ATOM      1  C   UNL d   1     -49.195  13.625  22.464  0.00  0.00     0.134 C 
ATOM      2  C   UNL d   1     -49.402  13.115  21.849  0.00  0.00     0.106 C 
ATOM      3  N   UNL d   1     -49.604  12.604  21.234  0.00  0.00    -0.191 NA
ENDROOT
BRANCH   1   4
ATOM      4  C   UNL d   1     -49.779  14.082  22.827  0.00  0.00     0.310 C 
ATOM      5  O   UNL d   1     -50.259  13.752  23.413  0.00  0.00    -0.258 OA
BRANCH   4   6
ATOM      6  O   UNL d   1     -49.887  14.872  22.607  0.00  0.00    -0.273 OA
BRANCH   6   7
ATOM      7  C   UNL d   1     -50.229  15.400  23.132  0.00  0.00     0.103 C 
ATOM      8  C   UNL d   1     -49.755  15.878  23.608  0.00  0.00     0.027 C 
ATOM      9  C   UNL d   1     -51.052  15.454  23.185  0.00  0.00     0.027 C 
ENDBRANCH   6   7
ENDBRANCH   4   6
ENDBRANCH   1   4
BRANCH   1  10
ATOM     10  C   UNL d   1     -48.417  13.681  22.716  0.00  0.00     0.040 C 
BRANCH  10  11
ATOM     11  C   UNL d   1     -48.055  13.032  23.059  0.00  0.00     0.101 A 
ATOM     12  O   UNL d   1     -47.258  12.926  22.893  0.00  0.00    -0.307 OA
ATOM     13  C   UNL d   1     -47.002  12.250  23.287  0.00  0.00     0.100 A 
ATOM     14  C   UNL d   1     -47.644  11.937  23.698  0.00  0.00     0.027 A 
ATOM     15  C   UNL d   1     -48.290  12.408  23.564  0.00  0.00     0.027 A 
BRANCH  13  16
ATOM     16  C   UNL d   1     -46.244  11.940  23.276  0.00  0.00     0.023 A 
ATOM     17  C   UNL d   1     -46.268  11.189  23.632  0.00  0.00     0.003 A 
ATOM     18  C   UNL d   1     -45.572  10.742  23.697  0.00  0.00     0.007 A 
ATOM     19  C   UNL d   1     -44.861  11.040  23.411  0.00  0.00     0.034 A 
ATOM     20  C   UNL d   1     -44.838  11.784  23.058  0.00  0.00     0.007 A 
ATOM     21  C   UNL d   1     -45.525  12.237  22.988  0.00  0.00     0.003 A 
BRANCH  19  22
ATOM     22  S   UNL d   1     -44.174  10.593  23.478  0.00  0.00    -0.028 SA
BRANCH  22  23
ATOM     23  C   UNL d   1     -44.183   9.796  23.275  0.00  0.00     0.309 C 
ATOM     24  F   UNL d   1     -44.752   9.294  23.599  0.00  0.00    -0.165 F 
ATOM     25  F   UNL d   1     -43.622   9.498  22.749  0.00  0.00    -0.165 F 
ENDBRANCH  22  23
ENDBRANCH  19  22
ENDBRANCH  13  16
ENDBRANCH  10  11
ENDBRANCH   1  10
TORSDOF 8
ENDMDL
MODEL 5
REMARK VINA RESULT:      -3.9      2.858      4.591
REMARK  8 active torsions:
REMARK  status: ('A' for Active; 'I' for Inactive)
REMARK    1  A    between atoms: C_2  and  C_1 
REMARK    2  A    between atoms: C_5  and  C_1 
REMARK    3  A    between atoms: O_11  and  C_2 
REMARK    4  A    between atoms: C_13  and  C_3 
REMARK    5  A    between atoms: C_6  and  C_5 
REMARK    6  A    between atoms: C_23  and  O_11 
REMARK    7  A    between atoms: C_12  and  S_14 
REMARK    8  A    between atoms: S_14  and  C_18 
ROOT
ATOM      1  C   UNL d   1     -45.454  12.806  22.489  0.00  0.00     0.134 C 
ATOM      2  C   UNL d   1     -45.350  12.118  22.932  0.00  0.00     0.106 C 
ATOM      3  N   UNL d   1     -45.243  11.428  23.372  0.00  0.00    -0.191 NA
ENDROOT
BRANCH   1   4
ATOM      4  C   UNL d   1     -45.954  13.400  22.772  0.00  0.00     0.310 C 
ATOM      5  O   UNL d   1     -45.805  13.754  23.503  0.00  0.00    -0.258 OA
BRANCH   4   6
ATOM      6  O   UNL d   1     -46.606  13.644  22.325  0.00  0.00    -0.273 OA
BRANCH   6   7
ATOM      7  C   UNL d   1     -47.149  14.166  22.645  0.00  0.00     0.103 C 
ATOM      8  C   UNL d   1     -47.869  13.890  22.938  0.00  0.00     0.027 C 
ATOM      9  C   UNL d   1     -46.976  14.973  22.675  0.00  0.00     0.027 C 
ENDBRANCH   6   7
ENDBRANCH   4   6
ENDBRANCH   1   4
BRANCH   1  10
ATOM     10  C   UNL d   1     -45.066  12.905  21.774  0.00  0.00     0.040 C 
BRANCH  10  11
ATOM     11  C   UNL d   1     -44.251  12.830  21.742  0.00  0.00     0.101 A 
ATOM     12  O   UNL d   1     -43.835  13.472  21.443  0.00  0.00    -0.307 OA
ATOM     13  C   UNL d   1     -43.034  13.288  21.457  0.00  0.00     0.100 A 
ATOM     14  C   UNL d   1     -42.953  12.528  21.767  0.00  0.00     0.027 A 
ATOM     15  C   UNL d   1     -43.692  12.242  21.943  0.00  0.00     0.027 A 
BRANCH  13  16
ATOM     16  C   UNL d   1     -42.421  13.769  21.209  0.00  0.00     0.023 A 
ATOM     17  C   UNL d   1     -41.765  13.286  21.042  0.00  0.00     0.003 A 
ATOM     18  C   UNL d   1     -41.057  13.630  20.776  0.00  0.00     0.007 A 
ATOM     19  C   UNL d   1     -41.004  14.445  20.680  0.00  0.00     0.034 A 
ATOM     20  C   UNL d   1     -41.654  14.923  20.846  0.00  0.00     0.007 A 
ATOM     21  C   UNL d   1     -42.363  14.591  21.111  0.00  0.00     0.003 A 
BRANCH  19  22
ATOM     22  S   UNL d   1     -40.302  14.781  20.417  0.00  0.00    -0.028 SA
BRANCH  22  23
ATOM     23  C   UNL d   1     -40.120  14.775  19.615  0.00  0.00     0.309 C 
ATOM     24  F   UNL d   1     -39.655  14.169  19.301  0.00  0.00    -0.165 F 
ATOM     25  F   UNL d   1     -40.402  15.373  19.123  0.00  0.00    -0.165 F 
ENDBRANCH  22  23
ENDBRANCH  19  22
ENDBRANCH  13  16
ENDBRANCH  10  11
ENDBRANCH   1  10
TORSDOF 8
ENDMDL
MODEL 6
REMARK VINA RESULT:      -3.9      3.209      5.482
REMARK  8 active torsions:
REMARK  status: ('A' for Active; 'I' for Inactive)
REMARK    1  A    between atoms: C_2  and  C_1 
REMARK    2  A    between atoms: C_5  and  C_1 
REMARK    3  A    between atoms: O_11  and  C_2 
REMARK    4  A    between atoms: C_13  and  C_3 
REMARK    5  A    between atoms: C_6  and  C_5 
REMARK    6  A    between atoms: C_23  and  O_11 
REMARK    7  A    between atoms: C_12  and  S_14 
REMARK    8  A    between atoms: S_14  and  C_18 
ROOT
ATOM      1  C   UNL d   1     -44.947  12.135  22.829  0.00  0.00     0.134 C 
ATOM      2  C   UNL d   1     -44.464  12.391  22.212  0.00  0.00     0.106 C 
ATOM      3  N   UNL d   1     -43.983  12.653  21.594  0.00  0.00    -0.191 NA
ENDROOT
BRANCH   1   4
ATOM      4  C   UNL d   1     -44.883  11.356  23.099  0.00  0.00     0.310 C 
ATOM      5  O   UNL d   1     -45.515  10.834  23.009  0.00  0.00    -0.258 OA
BRANCH   4   6
ATOM      6  O   UNL d   1     -44.185  11.096  23.460  0.00  0.00    -0.273 OA
BRANCH   6   7
ATOM      7  C   UNL d   1     -44.032  10.295  23.522  0.00  0.00     0.103 C 
ATOM      8  C   UNL d   1     -44.642   9.766  23.694  0.00  0.00     0.027 C 
ATOM      9  C   UNL d   1     -43.262  10.013  23.414  0.00  0.00     0.027 C 
ENDBRANCH   6   7
ENDBRANCH   4   6
ENDBRANCH   1   4
BRANCH   1  10
ATOM     10  C   UNL d   1     -45.487  12.644  23.176  0.00  0.00     0.040 C 
BRANCH  10  11
ATOM     11  C   UNL d   1     -46.044  13.021  22.710  0.00  0.00     0.101 A 
ATOM     12  O   UNL d   1     -46.812  13.046  23.002  0.00  0.00    -0.307 OA
ATOM     13  C   UNL d   1     -47.281  13.444  22.457  0.00  0.00     0.100 A 
ATOM     14  C   UNL d   1     -46.802  13.668  21.824  0.00  0.00     0.027 A 
ATOM     15  C   UNL d   1     -46.046  13.413  21.971  0.00  0.00     0.027 A 
BRANCH  13  16
ATOM     16  C   UNL d   1     -48.082  13.595  22.525  0.00  0.00     0.023 A 
ATOM     17  C   UNL d   1     -48.454  13.334  21.828  0.00  0.00     0.003 A 
ATOM     18  C   UNL d   1     -49.275  13.418  21.743  0.00  0.00     0.007 A 
ATOM     19  C   UNL d   1     -49.721  13.759  22.345  0.00  0.00     0.034 A 
ATOM     20  C   UNL d   1     -49.352  14.017  23.036  0.00  0.00     0.007 A 
ATOM     21  C   UNL d   1     -48.535  13.938  23.130  0.00  0.00     0.003 A 
BRANCH  19  22
ATOM     22  S   UNL d   1     -50.533  13.840  22.257  0.00  0.00    -0.028 SA
BRANCH  22  23
ATOM     23  C   UNL d   1     -50.875  13.758  21.513  0.00  0.00     0.309 C 
ATOM     24  F   UNL d   1     -51.028  13.006  21.210  0.00  0.00    -0.165 F 
ATOM     25  F   UNL d   1     -51.064  14.427  21.070  0.00  0.00    -0.165 F 
ENDBRANCH  22  23
ENDBRANCH  19  22
ENDBRANCH  13  16
ENDBRANCH  10  11
ENDBRANCH   1  10
TORSDOF 8
ENDMDL
