MODEL 1
REMARK VINA RESULT:      -7.7      0.000      0.000
REMARK  6 active torsions:
REMARK  status: ('A' for Active; 'I' for Inactive)
REMARK    1  A    between atoms: C_2  and  S_1 
REMARK    2  A    between atoms: N_5  and  S_1 
REMARK    3  A    between atoms: O_14  and  C_4 
REMARK    4  A    between atoms: C_11  and  N_5 
REMARK    5  A    between atoms: C_15  and  C_11 
REMARK    6  A    between atoms: C_18  and  O_14 
ROOT
ATOM      1  C   UNL d   1      52.663  33.482  53.727  0.00  0.00     0.129 A 
ATOM      2  C   UNL d   1      52.926  34.097  54.206  0.00  0.00     0.026 A 
ATOM      3  C   UNL d   1      53.062  32.762  53.727  0.00  0.00     0.112 A 
ATOM      4  C   UNL d   1      53.589  33.991  54.686  0.00  0.00     0.059 A 
ATOM      5  C   UNL d   1      53.725  32.656  54.206  0.00  0.00     0.026 A 
ATOM      6  C   UNL d   1      53.989  33.272  54.686  0.00  0.00     0.013 A 
ATOM      7 CL   UNL d   1      53.853  34.607  55.166  0.00  0.00    -0.082 Cl
ATOM      8  C   UNL d   1      54.652  33.167  55.166  0.00  0.00     0.001 C 
ENDROOT
BRANCH   1   9
ATOM      9  S   UNL d   1      52.000  33.587  53.247  0.00  0.00     0.287 S 
ATOM     10  O   UNL d   1      51.520  33.279  53.843  0.00  0.00    -0.198 OA
ATOM     11  O   UNL d   1      52.480  33.895  52.651  0.00  0.00    -0.198 OA
BRANCH   9  12
ATOM     12  N   UNL d   1      51.337  33.692  52.767  0.00  0.00    -0.155 NA
BRANCH  12  13
ATOM     13  C   UNL d   1      50.848  34.346  52.877  0.00  0.00     0.137 C 
BRANCH  13  14
ATOM     14  C   UNL d   1      50.181  34.447  52.402  0.00  0.00     0.120 A 
ATOM     15  O   UNL d   1      50.118  34.232  51.613  0.00  0.00    -0.304 OA
ATOM     16  C   UNL d   1      49.361  34.433  51.358  0.00  0.00     0.123 A 
ATOM     17  C   UNL d   1      48.956  34.772  51.992  0.00  0.00     0.029 A 
ATOM     18  C   UNL d   1      49.471  34.779  52.637  0.00  0.00     0.028 A 
ENDBRANCH  13  14
ENDBRANCH  12  13
ENDBRANCH   9  12
ENDBRANCH   1   9
BRANCH   3  19
ATOM     19  O   UNL d   1      52.799  32.142  53.246  0.00  0.00    -0.304 OA
BRANCH  19  20
ATOM     20  C   UNL d   1      53.192  31.420  53.253  0.00  0.00     0.123 C 
ATOM     21  C   UNL d   1      52.869  30.765  52.858  0.00  0.00     0.029 C 
ENDBRANCH  19  20
ENDBRANCH   3  19
TORSDOF 6
ENDMDL
MODEL 2
REMARK VINA RESULT:      -7.5      1.265      3.565
REMARK  6 active torsions:
REMARK  status: ('A' for Active; 'I' for Inactive)
REMARK    1  A    between atoms: C_2  and  S_1 
REMARK    2  A    between atoms: N_5  and  S_1 
REMARK    3  A    between atoms: O_14  and  C_4 
REMARK    4  A    between atoms: C_11  and  N_5 
REMARK    5  A    between atoms: C_15  and  C_11 
REMARK    6  A    between atoms: C_18  and  O_14 
ROOT
ATOM      1  C   UNL d   1      53.000  33.492  53.723  0.00  0.00     0.129 A 
ATOM      2  C   UNL d   1      53.499  33.707  54.340  0.00  0.00     0.026 A 
ATOM      3  C   UNL d   1      52.530  34.060  53.357  0.00  0.00     0.112 A 
ATOM      4  C   UNL d   1      53.528  34.492  54.593  0.00  0.00     0.059 A 
ATOM      5  C   UNL d   1      52.559  34.845  53.610  0.00  0.00     0.026 A 
ATOM      6  C   UNL d   1      53.059  35.061  54.228  0.00  0.00     0.013 A 
ATOM      7 CL   UNL d   1      54.028  34.709  55.211  0.00  0.00    -0.082 Cl
ATOM      8  C   UNL d   1      53.088  35.846  54.480  0.00  0.00     0.001 C 
ENDROOT
BRANCH   1   9
ATOM      9  S   UNL d   1      52.971  32.707  53.470  0.00  0.00     0.287 S 
ATOM     10  O   UNL d   1      52.322  32.573  53.963  0.00  0.00    -0.198 OA
ATOM     11  O   UNL d   1      53.619  32.841  52.978  0.00  0.00    -0.198 OA
BRANCH   9  12
ATOM     12  N   UNL d   1      52.941  31.922  53.218  0.00  0.00    -0.155 NA
BRANCH  12  13
ATOM     13  C   UNL d   1      53.421  31.355  53.574  0.00  0.00     0.137 C 
BRANCH  13  14
ATOM     14  C   UNL d   1      53.258  30.553  53.474  0.00  0.00     0.120 A 
ATOM     15  O   UNL d   1      52.866  30.219  52.835  0.00  0.00    -0.304 OA
ATOM     16  C   UNL d   1      52.824  29.407  52.962  0.00  0.00     0.123 A 
ATOM     17  C   UNL d   1      53.191  29.239  53.682  0.00  0.00     0.029 A 
ATOM     18  C   UNL d   1      53.458  29.954  53.995  0.00  0.00     0.028 A 
ENDBRANCH  13  14
ENDBRANCH  12  13
ENDBRANCH   9  12
ENDBRANCH   1   9
BRANCH   3  19
ATOM     19  O   UNL d   1      52.027  33.845  52.736  0.00  0.00    -0.304 OA
BRANCH  19  20
ATOM     20  C   UNL d   1      51.528  34.405  52.398  0.00  0.00     0.123 C 
ATOM     21  C   UNL d   1      50.978  34.178  51.818  0.00  0.00     0.029 C 
ENDBRANCH  19  20
ENDBRANCH   3  19
TORSDOF 6
ENDMDL
MODEL 3
REMARK VINA RESULT:      -7.3      1.391      2.197
REMARK  6 active torsions:
REMARK  status: ('A' for Active; 'I' for Inactive)
REMARK    1  A    between atoms: C_2  and  S_1 
REMARK    2  A    between atoms: N_5  and  S_1 
REMARK    3  A    between atoms: O_14  and  C_4 
REMARK    4  A    between atoms: C_11  and  N_5 
REMARK    5  A    between atoms: C_15  and  C_11 
REMARK    6  A    between atoms: C_18  and  O_14 
ROOT
ATOM      1  C   UNL d   1      51.990  33.487  53.152  0.00  0.00     0.129 A 
ATOM      2  C   UNL d   1      52.059  32.712  52.884  0.00  0.00     0.026 A 
ATOM      3  C   UNL d   1      52.593  33.821  53.602  0.00  0.00     0.112 A 
ATOM      4  C   UNL d   1      52.732  32.271  53.066  0.00  0.00     0.059 A 
ATOM      5  C   UNL d   1      53.266  33.380  53.784  0.00  0.00     0.026 A 
ATOM      6  C   UNL d   1      53.335  32.604  53.516  0.00  0.00     0.013 A 
ATOM      7 CL   UNL d   1      52.802  31.495  52.798  0.00  0.00    -0.082 Cl
ATOM      8  C   UNL d   1      54.008  32.162  53.697  0.00  0.00     0.001 C 
ENDROOT
BRANCH   1   9
ATOM      9  S   UNL d   1      51.317  33.928  52.970  0.00  0.00     0.287 S 
ATOM     10  O   UNL d   1      51.706  34.254  52.320  0.00  0.00    -0.198 OA
ATOM     11  O   UNL d   1      50.928  33.603  53.621  0.00  0.00    -0.198 OA
BRANCH   9  12
ATOM     12  N   UNL d   1      50.644  34.370  52.789  0.00  0.00    -0.155 NA
BRANCH  12  13
ATOM     13  C   UNL d   1      50.146  34.131  52.177  0.00  0.00     0.137 C 
BRANCH  13  14
ATOM     14  C   UNL d   1      49.457  34.554  52.016  0.00  0.00     0.120 A 
ATOM     15  O   UNL d   1      49.077  35.066  52.533  0.00  0.00    -0.304 OA
ATOM     16  C   UNL d   1      48.415  35.366  52.147  0.00  0.00     0.123 A 
ATOM     17  C   UNL d   1      48.386  35.039  51.390  0.00  0.00     0.029 A 
ATOM     18  C   UNL d   1      49.036  34.536  51.315  0.00  0.00     0.028 A 
ENDBRANCH  13  14
ENDBRANCH  12  13
ENDBRANCH   9  12
ENDBRANCH   1   9
BRANCH   3  19
ATOM     19  O   UNL d   1      52.525  34.600  53.873  0.00  0.00    -0.304 OA
BRANCH  19  20
ATOM     20  C   UNL d   1      53.123  34.929  54.332  0.00  0.00     0.123 C 
ATOM     21  C   UNL d   1      53.052  35.708  54.613  0.00  0.00     0.029 C 
ENDBRANCH  19  20
ENDBRANCH   3  19
TORSDOF 6
ENDMDL
MODEL 4
REMARK VINA RESULT:      -7.0      2.163      3.863
REMARK  6 active torsions:
REMARK  status: ('A' for Active; 'I' for Inactive)
REMARK    1  A    between atoms: C_2  and  S_1 
REMARK    2  A    between atoms: N_5  and  S_1 
REMARK    3  A    between atoms: O_14  and  C_4 
REMARK    4  A    between atoms: C_11  and  N_5 
REMARK    5  A    between atoms: C_15  and  C_11 
REMARK    6  A    between atoms: C_18  and  O_14 
ROOT
ATOM      1  C   UNL d   1      53.215  33.325  53.834  0.00  0.00     0.129 A 
ATOM      2  C   UNL d   1      52.557  33.622  53.440  0.00  0.00     0.026 A 
ATOM      3  C   UNL d   1      53.699  33.832  54.267  0.00  0.00     0.112 A 
ATOM      4  C   UNL d   1      52.382  34.428  53.478  0.00  0.00     0.059 A 
ATOM      5  C   UNL d   1      53.524  34.638  54.304  0.00  0.00     0.026 A 
ATOM      6  C   UNL d   1      52.865  34.936  53.910  0.00  0.00     0.013 A 
ATOM      7 CL   UNL d   1      51.723  34.726  53.084  0.00  0.00    -0.082 Cl
ATOM      8  C   UNL d   1      52.689  35.741  53.947  0.00  0.00     0.001 C 
ENDROOT
BRANCH   1   9
ATOM      9  S   UNL d   1      53.391  32.520  53.797  0.00  0.00     0.287 S 
ATOM     10  O   UNL d   1      53.791  32.640  53.085  0.00  0.00    -0.198 OA
ATOM     11  O   UNL d   1      52.990  32.400  54.508  0.00  0.00    -0.198 OA
BRANCH   9  12
ATOM     12  N   UNL d   1      53.566  31.715  53.759  0.00  0.00    -0.155 NA
BRANCH  12  13
ATOM     13  C   UNL d   1      53.098  31.211  53.305  0.00  0.00     0.137 C 
BRANCH  13  14
ATOM     14  C   UNL d   1      53.098  30.399  53.455  0.00  0.00     0.120 A 
ATOM     15  O   UNL d   1      53.598  30.008  53.974  0.00  0.00    -0.304 OA
ATOM     16  C   UNL d   1      53.408  29.208  53.951  0.00  0.00     0.123 A 
ATOM     17  C   UNL d   1      52.788  29.105  53.416  0.00  0.00     0.029 A 
ATOM     18  C   UNL d   1      52.600  29.849  53.111  0.00  0.00     0.028 A 
ENDBRANCH  13  14
ENDBRANCH  12  13
ENDBRANCH   9  12
ENDBRANCH   1   9
BRANCH   3  19
ATOM     19  O   UNL d   1      54.361  33.536  54.663  0.00  0.00    -0.304 OA
BRANCH  19  20
ATOM     20  C   UNL d   1      54.831  34.039  55.113  0.00  0.00     0.123 C 
ATOM     21  C   UNL d   1      55.557  33.772  55.418  0.00  0.00     0.029 C 
ENDBRANCH  19  20
ENDBRANCH   3  19
TORSDOF 6
ENDMDL
MODEL 5
REMARK VINA RESULT:      -5.0      9.547     10.365
REMARK  6 active torsions:
REMARK  status: ('A' for Active; 'I' for Inactive)
REMARK    1  A    between atoms: C_2  and  S_1 
REMARK    2  A    between atoms: N_5  and  S_1 
REMARK    3  A    between atoms: O_14  and  C_4 
REMARK    4  A    between atoms: C_11  and  N_5 
REMARK    5  A    between atoms: C_15  and  C_11 
REMARK    6  A    between atoms: C_18  and  O_14 
ROOT
ATOM      1  C   UNL d   1      44.970  29.830  58.155  0.00  0.00     0.129 A 
ATOM      2  C   UNL d   1      44.731  30.485  57.718  0.00  0.00     0.026 A 
ATOM      3  C   UNL d   1      45.115  29.114  57.775  0.00  0.00     0.112 A 
ATOM      4  C   UNL d   1      44.637  30.425  56.901  0.00  0.00     0.059 A 
ATOM      5  C   UNL d   1      45.020  29.054  56.958  0.00  0.00     0.026 A 
ATOM      6  C   UNL d   1      44.781  29.710  56.520  0.00  0.00     0.013 A 
ATOM      7 CL   UNL d   1      44.398  31.081  56.463  0.00  0.00    -0.082 Cl
ATOM      8  C   UNL d   1      44.687  29.649  55.703  0.00  0.00     0.001 C 
ENDROOT
BRANCH   1   9
ATOM      9  S   UNL d   1      45.065  29.891  58.972  0.00  0.00     0.287 S 
ATOM     10  O   UNL d   1      45.815  30.214  58.862  0.00  0.00    -0.198 OA
ATOM     11  O   UNL d   1      44.314  29.567  59.083  0.00  0.00    -0.198 OA
BRANCH   9  12
ATOM     12  N   UNL d   1      45.159  29.951  59.790  0.00  0.00    -0.155 NA
BRANCH  12  13
ATOM     13  C   UNL d   1      44.567  30.291  60.250  0.00  0.00     0.137 C 
BRANCH  13  14
ATOM     14  C   UNL d   1      44.663  30.356  61.067  0.00  0.00     0.120 A 
ATOM     15  O   UNL d   1      44.778  29.731  61.586  0.00  0.00    -0.304 OA
ATOM     16  C   UNL d   1      44.847  30.045  62.344  0.00  0.00     0.123 A 
ATOM     17  C   UNL d   1      44.774  30.865  62.292  0.00  0.00     0.029 A 
ATOM     18  C   UNL d   1      44.660  31.052  61.496  0.00  0.00     0.028 A 
ENDBRANCH  13  14
ENDBRANCH  12  13
ENDBRANCH   9  12
ENDBRANCH   1   9
BRANCH   3  19
ATOM     19  O   UNL d   1      45.355  28.454  58.212  0.00  0.00    -0.304 OA
BRANCH  19  20
ATOM     20  C   UNL d   1      45.594  27.769  57.825  0.00  0.00     0.123 C 
ATOM     21  C   UNL d   1      45.454  27.025  58.168  0.00  0.00     0.029 C 
ENDBRANCH  19  20
ENDBRANCH   3  19
TORSDOF 6
ENDMDL
