MODEL 1
REMARK VINA RESULT:      -7.7      0.000      0.000
REMARK  7 active torsions:
REMARK  status: ('A' for Active; 'I' for Inactive)
REMARK    1  A    between atoms: N_7  and  S_1 
REMARK    2  A    between atoms: C_19  and  S_1 
REMARK    3  A    between atoms: N_2  and  C_3 
REMARK    4  A    between atoms: C_3  and  C_6 
REMARK    5  A    between atoms: C_5  and  C_3 
REMARK    6  A    between atoms: C_16  and  N_4 
REMARK    7  A    between atoms: C_6  and  N_7 
ROOT
ATOM      1  C   UNL d   1      52.814  32.528  53.181  0.00  0.00     0.107 C 
ENDROOT
BRANCH   1   2
ATOM      2  N   UNL d   1      52.141  32.981  53.028  0.00  0.00    -0.298 N 
ATOM      3  C   UNL d   1      52.149  33.538  52.418  0.00  0.00     0.100 A 
ATOM      4  C   UNL d   1      51.477  33.988  52.268  0.00  0.00     0.100 A 
ATOM      5  N   UNL d   1      50.796  33.888  52.721  0.00  0.00    -0.301 N 
ATOM      6  C   UNL d   1      50.788  33.332  53.330  0.00  0.00     0.100 A 
ATOM      7  C   UNL d   1      51.461  32.879  53.483  0.00  0.00     0.100 A 
BRANCH   5   8
ATOM      8  C   UNL d   1      50.128  34.338  52.570  0.00  0.00     0.064 A 
ATOM      9  C   UNL d   1      49.825  34.834  53.147  0.00  0.00     0.018 A 
ATOM     10  C   UNL d   1      49.154  35.286  52.997  0.00  0.00     0.002 A 
ATOM     11  C   UNL d   1      48.785  35.239  52.261  0.00  0.00     0.000 A 
ATOM     12  C   UNL d   1      49.089  34.740  51.678  0.00  0.00     0.002 A 
ATOM     13  C   UNL d   1      49.760  34.291  51.833  0.00  0.00     0.018 A 
ENDBRANCH   5   8
ENDBRANCH   1   2
BRANCH   1  14
ATOM     14  C   UNL d   1      53.514  32.877  53.447  0.00  0.00     0.132 C 
BRANCH  14  15
ATOM     15  N   UNL d   1      53.693  32.858  54.266  0.00  0.00    -0.155 NA
BRANCH  15  16
ATOM     16  S   UNL d   1      54.332  33.287  54.554  0.00  0.00     0.286 S 
ATOM     17  O   UNL d   1      54.812  32.989  53.946  0.00  0.00    -0.198 OA
ATOM     18  O   UNL d   1      53.848  33.584  55.161  0.00  0.00    -0.198 OA
BRANCH  16  19
ATOM     19  C   UNL d   1      54.969  33.723  54.852  0.00  0.00     0.117 C 
ATOM     20  C   UNL d   1      55.115  33.733  55.665  0.00  0.00     0.014 C 
ENDBRANCH  16  19
ENDBRANCH  15  16
ENDBRANCH  14  15
ENDBRANCH   1  14
BRANCH   1  21
ATOM     21  C   UNL d   1      52.790  31.698  53.065  0.00  0.00     0.118 A 
ATOM     22  O   UNL d   1      53.043  31.369  52.356  0.00  0.00    -0.304 OA
ATOM     23  C   UNL d   1      52.954  30.546  52.408  0.00  0.00     0.123 A 
ATOM     24  C   UNL d   1      52.648  30.373  53.143  0.00  0.00     0.029 A 
ATOM     25  C   UNL d   1      52.546  31.084  53.553  0.00  0.00     0.028 A 
ENDBRANCH   1  21
TORSDOF 7
ENDMDL
MODEL 2
REMARK VINA RESULT:      -7.6      0.989      2.484
REMARK  7 active torsions:
REMARK  status: ('A' for Active; 'I' for Inactive)
REMARK    1  A    between atoms: N_7  and  S_1 
REMARK    2  A    between atoms: C_19  and  S_1 
REMARK    3  A    between atoms: N_2  and  C_3 
REMARK    4  A    between atoms: C_3  and  C_6 
REMARK    5  A    between atoms: C_5  and  C_3 
REMARK    6  A    between atoms: C_16  and  N_4 
REMARK    7  A    between atoms: C_6  and  N_7 
ROOT
ATOM      1  C   UNL d   1      52.857  32.874  53.366  0.00  0.00     0.107 C 
ENDROOT
BRANCH   1   2
ATOM      2  N   UNL d   1      52.162  33.260  53.145  0.00  0.00    -0.298 N 
ATOM      3  C   UNL d   1      51.478  33.168  53.596  0.00  0.00     0.100 A 
ATOM      4  C   UNL d   1      50.787  33.555  53.372  0.00  0.00     0.100 A 
ATOM      5  N   UNL d   1      50.772  34.032  52.702  0.00  0.00    -0.301 N 
ATOM      6  C   UNL d   1      51.456  34.123  52.250  0.00  0.00     0.100 A 
ATOM      7  C   UNL d   1      52.151  33.737  52.472  0.00  0.00     0.100 A 
BRANCH   5   8
ATOM      8  C   UNL d   1      50.083  34.415  52.481  0.00  0.00     0.064 A 
ATOM      9  C   UNL d   1      49.779  34.317  51.726  0.00  0.00     0.018 A 
ATOM     10  C   UNL d   1      49.087  34.701  51.502  0.00  0.00     0.002 A 
ATOM     11  C   UNL d   1      48.697  35.189  52.041  0.00  0.00     0.000 A 
ATOM     12  C   UNL d   1      49.001  35.289  52.802  0.00  0.00     0.002 A 
ATOM     13  C   UNL d   1      49.693  34.903  53.020  0.00  0.00     0.018 A 
ENDBRANCH   5   8
ENDBRANCH   1   2
BRANCH   1  14
ATOM     14  C   UNL d   1      53.045  32.126  53.070  0.00  0.00     0.132 C 
BRANCH  14  15
ATOM     15  N   UNL d   1      52.704  31.447  53.427  0.00  0.00    -0.155 NA
BRANCH  15  16
ATOM     16  S   UNL d   1      52.964  30.698  53.212  0.00  0.00     0.286 S 
ATOM     17  O   UNL d   1      52.776  30.856  52.419  0.00  0.00    -0.198 OA
ATOM     18  O   UNL d   1      53.150  30.544  54.007  0.00  0.00    -0.198 OA
BRANCH  16  19
ATOM     19  C   UNL d   1      53.228  29.942  53.005  0.00  0.00     0.117 C 
ATOM     20  C   UNL d   1      53.170  29.325  53.551  0.00  0.00     0.014 C 
ENDBRANCH  16  19
ENDBRANCH  15  16
ENDBRANCH  14  15
ENDBRANCH   1  14
BRANCH   1  21
ATOM     21  C   UNL d   1      53.385  33.244  53.903  0.00  0.00     0.118 A 
ATOM     22  O   UNL d   1      54.136  33.473  53.657  0.00  0.00    -0.304 OA
ATOM     23  C   UNL d   1      54.523  33.820  54.303  0.00  0.00     0.123 A 
ATOM     24  C   UNL d   1      54.014  33.803  54.939  0.00  0.00     0.029 A 
ATOM     25  C   UNL d   1      53.309  33.447  54.694  0.00  0.00     0.028 A 
ENDBRANCH   1  21
TORSDOF 7
ENDMDL
MODEL 3
REMARK VINA RESULT:      -6.2      2.042      4.658
REMARK  7 active torsions:
REMARK  status: ('A' for Active; 'I' for Inactive)
REMARK    1  A    between atoms: N_7  and  S_1 
REMARK    2  A    between atoms: C_19  and  S_1 
REMARK    3  A    between atoms: N_2  and  C_3 
REMARK    4  A    between atoms: C_3  and  C_6 
REMARK    5  A    between atoms: C_5  and  C_3 
REMARK    6  A    between atoms: C_16  and  N_4 
REMARK    7  A    between atoms: C_6  and  N_7 
ROOT
ATOM      1  C   UNL d   1      52.095  34.051  53.068  0.00  0.00     0.107 C 
ENDROOT
BRANCH   1   2
ATOM      2  N   UNL d   1      52.312  33.258  53.143  0.00  0.00    -0.298 N 
ATOM      3  C   UNL d   1      52.942  32.960  52.702  0.00  0.00     0.100 A 
ATOM      4  C   UNL d   1      53.155  32.168  52.779  0.00  0.00     0.100 A 
ATOM      5  N   UNL d   1      52.745  31.672  53.292  0.00  0.00    -0.301 N 
ATOM      6  C   UNL d   1      52.115  31.970  53.733  0.00  0.00     0.100 A 
ATOM      7  C   UNL d   1      51.899  32.763  53.658  0.00  0.00     0.100 A 
BRANCH   5   8
ATOM      8  C   UNL d   1      52.959  30.885  53.367  0.00  0.00     0.064 A 
ATOM      9  C   UNL d   1      52.600  30.313  52.902  0.00  0.00     0.018 A 
ATOM     10  C   UNL d   1      52.813  29.522  52.976  0.00  0.00     0.002 A 
ATOM     11  C   UNL d   1      53.393  29.303  53.521  0.00  0.00     0.000 A 
ATOM     12  C   UNL d   1      53.756  29.878  53.990  0.00  0.00     0.002 A 
ATOM     13  C   UNL d   1      53.538  30.667  53.912  0.00  0.00     0.018 A 
ENDBRANCH   5   8
ENDBRANCH   1   2
BRANCH   1  14
ATOM     14  C   UNL d   1      51.513  34.287  52.532  0.00  0.00     0.132 C 
BRANCH  14  15
ATOM     15  N   UNL d   1      50.706  34.182  52.732  0.00  0.00    -0.155 NA
BRANCH  15  16
ATOM     16  S   UNL d   1      50.120  34.476  52.237  0.00  0.00     0.286 S 
ATOM     17  O   UNL d   1      50.533  34.196  51.575  0.00  0.00    -0.198 OA
ATOM     18  O   UNL d   1      49.710  34.756  52.904  0.00  0.00    -0.198 OA
BRANCH  16  19
ATOM     19  C   UNL d   1      49.524  34.777  51.747  0.00  0.00     0.117 C 
ATOM     20  C   UNL d   1      48.743  34.789  52.013  0.00  0.00     0.014 C 
ENDBRANCH  16  19
ENDBRANCH  15  16
ENDBRANCH  14  15
ENDBRANCH   1  14
BRANCH   1  21
ATOM     21  C   UNL d   1      52.471  34.631  53.544  0.00  0.00     0.118 A 
ATOM     22  O   UNL d   1      53.012  35.155  53.213  0.00  0.00    -0.304 OA
ATOM     23  C   UNL d   1      53.286  35.655  53.814  0.00  0.00     0.123 A 
ATOM     24  C   UNL d   1      52.916  35.439  54.508  0.00  0.00     0.029 A 
ATOM     25  C   UNL d   1      52.412  34.805  54.343  0.00  0.00     0.028 A 
ENDBRANCH   1  21
TORSDOF 7
ENDMDL
MODEL 4
REMARK VINA RESULT:      -5.9      1.579      4.573
REMARK  7 active torsions:
REMARK  status: ('A' for Active; 'I' for Inactive)
REMARK    1  A    between atoms: N_7  and  S_1 
REMARK    2  A    between atoms: C_19  and  S_1 
REMARK    3  A    between atoms: N_2  and  C_3 
REMARK    4  A    between atoms: C_3  and  C_6 
REMARK    5  A    between atoms: C_5  and  C_3 
REMARK    6  A    between atoms: C_16  and  N_4 
REMARK    7  A    between atoms: C_6  and  N_7 
ROOT
ATOM      1  C   UNL d   1      53.847  33.136  53.963  0.00  0.00     0.107 C 
ENDROOT
BRANCH   1   2
ATOM      2  N   UNL d   1      53.717  32.321  53.986  0.00  0.00    -0.298 N 
ATOM      3  C   UNL d   1      53.867  31.861  53.318  0.00  0.00     0.100 A 
ATOM      4  C   UNL d   1      53.736  31.049  53.345  0.00  0.00     0.100 A 
ATOM      5  N   UNL d   1      53.457  30.692  54.032  0.00  0.00    -0.301 N 
ATOM      6  C   UNL d   1      53.307  31.152  54.700  0.00  0.00     0.100 A 
ATOM      7  C   UNL d   1      53.438  31.966  54.677  0.00  0.00     0.100 A 
BRANCH   5   8
ATOM      8  C   UNL d   1      53.327  29.883  54.056  0.00  0.00     0.064 A 
ATOM      9  C   UNL d   1      53.624  29.436  54.675  0.00  0.00     0.018 A 
ATOM     10  C   UNL d   1      53.495  28.623  54.702  0.00  0.00     0.002 A 
ATOM     11  C   UNL d   1      53.064  28.258  54.100  0.00  0.00     0.000 A 
ATOM     12  C   UNL d   1      52.764  28.707  53.476  0.00  0.00     0.002 A 
ATOM     13  C   UNL d   1      52.896  29.518  53.455  0.00  0.00     0.018 A 
ENDBRANCH   5   8
ENDBRANCH   1   2
BRANCH   1  14
ATOM     14  C   UNL d   1      53.395  33.628  53.478  0.00  0.00     0.132 C 
BRANCH  14  15
ATOM     15  N   UNL d   1      52.678  33.948  53.776  0.00  0.00    -0.155 NA
BRANCH  15  16
ATOM     16  S   UNL d   1      52.142  34.296  53.261  0.00  0.00     0.286 S 
ATOM     17  O   UNL d   1      52.743  34.774  52.949  0.00  0.00    -0.198 OA
ATOM     18  O   UNL d   1      51.542  33.814  53.576  0.00  0.00    -0.198 OA
BRANCH  16  19
ATOM     19  C   UNL d   1      51.592  34.640  52.746  0.00  0.00     0.117 C 
ATOM     20  C   UNL d   1      50.798  34.415  52.784  0.00  0.00     0.014 C 
ENDBRANCH  16  19
ENDBRANCH  15  16
ENDBRANCH  14  15
ENDBRANCH   1  14
BRANCH   1  21
ATOM     21  C   UNL d   1      54.450  33.474  54.439  0.00  0.00     0.118 A 
ATOM     22  O   UNL d   1      55.197  33.615  54.127  0.00  0.00    -0.304 OA
ATOM     23  C   UNL d   1      55.667  33.948  54.724  0.00  0.00     0.123 A 
ATOM     24  C   UNL d   1      55.209  34.010  55.396  0.00  0.00     0.029 A 
ATOM     25  C   UNL d   1      54.456  33.717  55.223  0.00  0.00     0.028 A 
ENDBRANCH   1  21
TORSDOF 7
ENDMDL
MODEL 5
REMARK VINA RESULT:      -5.7      1.614      3.933
REMARK  7 active torsions:
REMARK  status: ('A' for Active; 'I' for Inactive)
REMARK    1  A    between atoms: N_7  and  S_1 
REMARK    2  A    between atoms: C_19  and  S_1 
REMARK    3  A    between atoms: N_2  and  C_3 
REMARK    4  A    between atoms: C_3  and  C_6 
REMARK    5  A    between atoms: C_5  and  C_3 
REMARK    6  A    between atoms: C_16  and  N_4 
REMARK    7  A    between atoms: C_6  and  N_7 
ROOT
ATOM      1  C   UNL d   1      52.063  33.889  52.966  0.00  0.00     0.107 C 
ENDROOT
BRANCH   1   2
ATOM      2  N   UNL d   1      52.276  33.098  53.070  0.00  0.00    -0.298 N 
ATOM      3  C   UNL d   1      52.987  32.819  52.757  0.00  0.00     0.100 A 
ATOM      4  C   UNL d   1      53.197  32.030  52.862  0.00  0.00     0.100 A 
ATOM      5  N   UNL d   1      52.704  31.517  53.276  0.00  0.00    -0.301 N 
ATOM      6  C   UNL d   1      51.993  31.796  53.589  0.00  0.00     0.100 A 
ATOM      7  C   UNL d   1      51.780  32.587  53.485  0.00  0.00     0.100 A 
BRANCH   5   8
ATOM      8  C   UNL d   1      52.915  30.733  53.380  0.00  0.00     0.064 A 
ATOM      9  C   UNL d   1      53.431  30.519  53.979  0.00  0.00     0.018 A 
ATOM     10  C   UNL d   1      53.645  29.731  54.085  0.00  0.00     0.002 A 
ATOM     11  C   UNL d   1      53.336  29.153  53.584  0.00  0.00     0.000 A 
ATOM     12  C   UNL d   1      52.816  29.366  52.979  0.00  0.00     0.002 A 
ATOM     13  C   UNL d   1      52.606  30.155  52.878  0.00  0.00     0.018 A 
ENDBRANCH   5   8
ENDBRANCH   1   2
BRANCH   1  14
ATOM     14  C   UNL d   1      52.536  34.502  53.255  0.00  0.00     0.132 C 
BRANCH  14  15
ATOM     15  N   UNL d   1      52.431  34.761  54.046  0.00  0.00    -0.155 NA
BRANCH  15  16
ATOM     16  S   UNL d   1      52.946  35.315  54.365  0.00  0.00     0.286 S 
ATOM     17  O   UNL d   1      52.855  35.793  53.694  0.00  0.00    -0.198 OA
ATOM     18  O   UNL d   1      53.035  34.832  55.036  0.00  0.00    -0.198 OA
BRANCH  16  19
ATOM     19  C   UNL d   1      53.467  35.867  54.697  0.00  0.00     0.117 C 
ATOM     20  C   UNL d   1      53.178  36.592  54.965  0.00  0.00     0.014 C 
ENDBRANCH  16  19
ENDBRANCH  15  16
ENDBRANCH  14  15
ENDBRANCH   1  14
BRANCH   1  21
ATOM     21  C   UNL d   1      51.353  34.078  52.561  0.00  0.00     0.118 A 
ATOM     22  O   UNL d   1      51.359  34.207  51.749  0.00  0.00    -0.304 OA
ATOM     23  C   UNL d   1      50.584  34.381  51.510  0.00  0.00     0.123 A 
ATOM     24  C   UNL d   1      50.108  34.358  52.171  0.00  0.00     0.029 A 
ATOM     25  C   UNL d   1      50.581  34.171  52.823  0.00  0.00     0.028 A 
ENDBRANCH   1  21
TORSDOF 7
ENDMDL
