MODEL 1
REMARK VINA RESULT:      -3.4      0.000      0.000
REMARK  9 active torsions:
REMARK  status: ('A' for Active; 'I' for Inactive)
REMARK    1  A    between atoms: C_10  and  N_1 
REMARK    2  A    between atoms: C_7  and  N_3 
REMARK    3  A    between atoms: C_8  and  C_7 
REMARK       I    between atoms: N_12  and  C_8 
REMARK    4  A    between atoms: C_13  and  C_10 
REMARK    5  A    between atoms: C_21  and  N_12 
REMARK    6  A    between atoms: C_28  and  N_12 
REMARK       I    between atoms: N_19  and  C_13 
REMARK    7  A    between atoms: C_17  and  C_26 
REMARK    8  A    between atoms: C_26  and  N_19 
REMARK    9  A    between atoms: C_27  and  C_21 
ROOT
ATOM      1  N   UNL d   1     -45.125  12.750  22.853  0.00  0.00    -0.220 N 
ATOM      2  C   UNL d   1     -45.776  13.253  22.802  0.00  0.00     0.342 A 
ATOM      3  N   UNL d   1     -46.545  12.980  23.006  0.00  0.00    -0.254 N 
ATOM      4  C   UNL d   1     -45.970  11.694  23.310  0.00  0.00     0.102 A 
ATOM      5  C   UNL d   1     -45.229  11.978  23.106  0.00  0.00     0.276 A 
ATOM      6  C   UNL d   1     -46.634  12.206  23.257  0.00  0.00     0.080 A 
ATOM      7  S   UNL d   1     -46.238  10.944  23.582  0.00  0.00    -0.080 SA
ATOM      8  C   UNL d   1     -47.318  11.769  23.499  0.00  0.00     0.025 A 
ATOM      9  O   UNL d   1     -45.685  14.021  22.552  0.00  0.00    -0.245 OA
ATOM     10  C   UNL d   1     -47.064  10.989  23.698  0.00  0.00     0.037 A 
ATOM     11  O   UNL d   1     -44.585  11.480  23.157  0.00  0.00    -0.266 OA
ENDROOT
BRANCH   3  12
ATOM     12  C   UNL d   1     -47.196  13.468  22.959  0.00  0.00     0.146 C 
BRANCH  12  13
ATOM     13  C   UNL d   1     -47.646  13.500  22.265  0.00  0.00     0.283 C 
ATOM     14  N   UNL d   1     -48.341  13.942  22.248  0.00  0.00    -0.271 N 
ATOM     15  O   UNL d   1     -47.391  13.090  21.601  0.00  0.00    -0.265 OA
BRANCH  14  16
ATOM     16  C   UNL d   1     -48.785  13.969  21.550  0.00  0.00     0.083 C 
BRANCH  16  17
ATOM     17  C   UNL d   1     -49.544  13.649  21.539  0.00  0.00     0.018 A 
ATOM     18  C   UNL d   1     -49.648  12.840  21.441  0.00  0.00     0.002 A 
ATOM     19  C   UNL d   1     -50.415  12.515  21.429  0.00  0.00     0.000 A 
ATOM     20  C   UNL d   1     -51.065  13.003  21.515  0.00  0.00     0.000 A 
ATOM     21  C   UNL d   1     -50.966  13.818  21.613  0.00  0.00     0.000 A 
ATOM     22  C   UNL d   1     -50.204  14.143  21.625  0.00  0.00     0.002 A 
ENDBRANCH  16  17
ENDBRANCH  14  16
BRANCH  14  23
ATOM     23  C   UNL d   1     -48.589  14.347  22.912  0.00  0.00     0.083 C 
ATOM     24  C   UNL d   1     -48.490  15.164  22.962  0.00  0.00     0.021 C 
ENDBRANCH  14  23
ENDBRANCH  12  13
ENDBRANCH   3  12
BRANCH   1  25
ATOM     25  C   UNL d   1     -44.393  13.022  22.654  0.00  0.00     0.150 C 
BRANCH  25  26
ATOM     26  C   UNL d   1     -44.101  12.900  21.893  0.00  0.00     0.297 C 
ATOM     27  N   UNL d   1     -43.345  13.160  21.688  0.00  0.00    -0.203 NA
ATOM     28  O   UNL d   1     -44.564  12.515  21.330  0.00  0.00    -0.264 OA
BRANCH  27  29
ATOM     29  C   UNL d   1     -43.051  13.039  20.929  0.00  0.00     0.127 C 
BRANCH  29  30
ATOM     30  C   UNL d   1     -42.340  13.380  20.698  0.00  0.00     0.119 A 
ATOM     31  O   UNL d   1     -42.087  13.492  19.918  0.00  0.00    -0.304 OA
ATOM     32  C   UNL d   1     -41.347  13.850  19.946  0.00  0.00     0.123 A 
ATOM     33  C   UNL d   1     -41.140  13.961  20.743  0.00  0.00     0.029 A 
ATOM     34  C   UNL d   1     -41.762  13.667  21.196  0.00  0.00     0.028 A 
ENDBRANCH  29  30
ENDBRANCH  27  29
ENDBRANCH  25  26
ENDBRANCH   1  25
TORSDOF 9
ENDMDL
MODEL 2
REMARK VINA RESULT:      -3.0      1.411      2.134
REMARK  9 active torsions:
REMARK  status: ('A' for Active; 'I' for Inactive)
REMARK    1  A    between atoms: C_10  and  N_1 
REMARK    2  A    between atoms: C_7  and  N_3 
REMARK    3  A    between atoms: C_8  and  C_7 
REMARK       I    between atoms: N_12  and  C_8 
REMARK    4  A    between atoms: C_13  and  C_10 
REMARK    5  A    between atoms: C_21  and  N_12 
REMARK    6  A    between atoms: C_28  and  N_12 
REMARK       I    between atoms: N_19  and  C_13 
REMARK    7  A    between atoms: C_17  and  C_26 
REMARK    8  A    between atoms: C_26  and  N_19 
REMARK    9  A    between atoms: C_27  and  C_21 
ROOT
ATOM      1  N   UNL d   1     -43.997  12.399  21.693  0.00  0.00    -0.220 N 
ATOM      2  C   UNL d   1     -44.803  12.519  21.815  0.00  0.00     0.342 A 
ATOM      3  N   UNL d   1     -45.219  12.074  22.396  0.00  0.00    -0.254 N 
ATOM      4  C   UNL d   1     -43.986  11.399  22.712  0.00  0.00     0.102 A 
ATOM      5  C   UNL d   1     -43.598  11.842  22.141  0.00  0.00     0.276 A 
ATOM      6  C   UNL d   1     -44.808  11.521  22.836  0.00  0.00     0.080 A 
ATOM      7  S   UNL d   1     -43.726  10.801  23.244  0.00  0.00    -0.080 SA
ATOM      8  C   UNL d   1     -45.058  10.993  23.451  0.00  0.00     0.025 A 
ATOM      9  O   UNL d   1     -45.210  13.069  21.376  0.00  0.00    -0.245 OA
ATOM     10  C   UNL d   1     -44.382  10.552  23.697  0.00  0.00     0.037 A 
ATOM     11  O   UNL d   1     -42.801  11.723  22.021  0.00  0.00    -0.266 OA
ENDROOT
BRANCH   3  12
ATOM     12  C   UNL d   1     -46.017  12.184  22.525  0.00  0.00     0.146 C 
BRANCH  12  13
ATOM     13  C   UNL d   1     -46.285  12.843  22.948  0.00  0.00     0.283 C 
ATOM     14  N   UNL d   1     -47.094  12.991  23.006  0.00  0.00    -0.271 N 
ATOM     15  O   UNL d   1     -45.740  13.343  23.304  0.00  0.00    -0.265 OA
BRANCH  14  16
ATOM     16  C   UNL d   1     -47.354  13.652  23.430  0.00  0.00     0.083 C 
BRANCH  16  17
ATOM     17  C   UNL d   1     -47.869  14.187  23.073  0.00  0.00     0.018 A 
ATOM     18  C   UNL d   1     -47.571  14.840  22.674  0.00  0.00     0.002 A 
ATOM     19  C   UNL d   1     -48.089  15.383  22.312  0.00  0.00     0.000 A 
ATOM     20  C   UNL d   1     -48.896  15.263  22.355  0.00  0.00     0.000 A 
ATOM     21  C   UNL d   1     -49.202  14.607  22.754  0.00  0.00     0.000 A 
ATOM     22  C   UNL d   1     -48.688  14.067  23.115  0.00  0.00     0.002 A 
ENDBRANCH  16  17
ENDBRANCH  14  16
BRANCH  14  23
ATOM     23  C   UNL d   1     -47.631  12.490  22.650  0.00  0.00     0.083 C 
ATOM     24  C   UNL d   1     -47.977  11.877  23.078  0.00  0.00     0.021 C 
ENDBRANCH  14  23
ENDBRANCH  12  13
ENDBRANCH   3  12
BRANCH   1  25
ATOM     25  C   UNL d   1     -43.609  12.830  21.134  0.00  0.00     0.150 C 
BRANCH  25  26
ATOM     26  C   UNL d   1     -43.091  13.429  21.363  0.00  0.00     0.297 C 
ATOM     27  N   UNL d   1     -42.380  13.545  20.959  0.00  0.00    -0.203 NA
ATOM     28  O   UNL d   1     -43.279  13.918  22.000  0.00  0.00    -0.264 OA
BRANCH  27  29
ATOM     29  C   UNL d   1     -41.861  14.141  21.185  0.00  0.00     0.127 C 
BRANCH  29  30
ATOM     30  C   UNL d   1     -41.200  14.313  20.729  0.00  0.00     0.119 A 
ATOM     31  O   UNL d   1     -41.113  14.155  19.921  0.00  0.00    -0.304 OA
ATOM     32  C   UNL d   1     -40.367  14.418  19.694  0.00  0.00     0.123 A 
ATOM     33  C   UNL d   1     -39.990  14.741  20.361  0.00  0.00     0.029 A 
ATOM     34  C   UNL d   1     -40.515  14.669  20.992  0.00  0.00     0.028 A 
ENDBRANCH  29  30
ENDBRANCH  27  29
ENDBRANCH  25  26
ENDBRANCH   1  25
TORSDOF 9
ENDMDL
MODEL 3
REMARK VINA RESULT:      -1.4      1.346      5.728
REMARK  9 active torsions:
REMARK  status: ('A' for Active; 'I' for Inactive)
REMARK    1  A    between atoms: C_10  and  N_1 
REMARK    2  A    between atoms: C_7  and  N_3 
REMARK    3  A    between atoms: C_8  and  C_7 
REMARK       I    between atoms: N_12  and  C_8 
REMARK    4  A    between atoms: C_13  and  C_10 
REMARK    5  A    between atoms: C_21  and  N_12 
REMARK    6  A    between atoms: C_28  and  N_12 
REMARK       I    between atoms: N_19  and  C_13 
REMARK    7  A    between atoms: C_17  and  C_26 
REMARK    8  A    between atoms: C_26  and  N_19 
REMARK    9  A    between atoms: C_27  and  C_21 
ROOT
ATOM      1  N   UNL d   1     -46.792  13.377  23.209  0.00  0.00    -0.220 N 
ATOM      2  C   UNL d   1     -46.004  13.251  23.001  0.00  0.00     0.342 A 
ATOM      3  N   UNL d   1     -45.672  12.478  23.030  0.00  0.00    -0.254 N 
ATOM      4  C   UNL d   1     -46.949  11.984  23.480  0.00  0.00     0.102 A 
ATOM      5  C   UNL d   1     -47.254  12.743  23.446  0.00  0.00     0.276 A 
ATOM      6  C   UNL d   1     -46.146  11.855  23.269  0.00  0.00     0.080 A 
ATOM      7  S   UNL d   1     -47.284  11.244  23.698  0.00  0.00    -0.080 SA
ATOM      8  C   UNL d   1     -45.984  11.028  23.356  0.00  0.00     0.025 A 
ATOM      9  O   UNL d   1     -45.536  13.871  22.765  0.00  0.00    -0.245 OA
ATOM     10  C   UNL d   1     -46.694  10.657  23.622  0.00  0.00     0.037 A 
ATOM     11  O   UNL d   1     -48.034  12.867  23.651  0.00  0.00    -0.266 OA
ENDROOT
BRANCH   3  12
ATOM     12  C   UNL d   1     -44.895  12.342  22.827  0.00  0.00     0.146 C 
BRANCH  12  13
ATOM     13  C   UNL d   1     -44.609  12.570  22.085  0.00  0.00     0.283 C 
ATOM     14  N   UNL d   1     -43.810  12.481  21.908  0.00  0.00    -0.271 N 
ATOM     15  O   UNL d   1     -45.130  12.884  21.533  0.00  0.00    -0.265 OA
BRANCH  14  16
ATOM     16  C   UNL d   1     -43.533  12.711  21.163  0.00  0.00     0.083 C 
BRANCH  16  17
ATOM     17  C   UNL d   1     -42.854  13.176  21.108  0.00  0.00     0.018 A 
ATOM     18  C   UNL d   1     -42.916  13.995  21.108  0.00  0.00     0.002 A 
ATOM     19  C   UNL d   1     -42.232  14.467  21.052  0.00  0.00     0.000 A 
ATOM     20  C   UNL d   1     -41.498  14.113  20.998  0.00  0.00     0.000 A 
ATOM     21  C   UNL d   1     -41.429  13.288  20.997  0.00  0.00     0.000 A 
ATOM     22  C   UNL d   1     -42.109  12.818  21.052  0.00  0.00     0.002 A 
ENDBRANCH  16  17
ENDBRANCH  14  16
BRANCH  14  23
ATOM     23  C   UNL d   1     -43.297  12.168  22.461  0.00  0.00     0.083 C 
ATOM     24  C   UNL d   1     -43.241  11.352  22.562  0.00  0.00     0.021 C 
ENDBRANCH  14  23
ENDBRANCH  12  13
ENDBRANCH   3  12
BRANCH   1  25
ATOM     25  C   UNL d   1     -47.099  14.120  23.177  0.00  0.00     0.150 C 
BRANCH  25  26
ATOM     26  C   UNL d   1     -47.720  14.287  22.660  0.00  0.00     0.297 C 
ATOM     27  N   UNL d   1     -48.330  14.794  22.889  0.00  0.00    -0.203 NA
ATOM     28  O   UNL d   1     -47.736  13.948  21.909  0.00  0.00    -0.264 OA
BRANCH  27  29
ATOM     29  C   UNL d   1     -48.951  14.963  22.376  0.00  0.00     0.127 C 
BRANCH  29  30
ATOM     30  C   UNL d   1     -49.688  15.173  22.669  0.00  0.00     0.119 A 
ATOM     31  O   UNL d   1     -50.418  14.912  22.377  0.00  0.00    -0.304 OA
ATOM     32  C   UNL d   1     -51.008  15.259  22.834  0.00  0.00     0.123 A 
ATOM     33  C   UNL d   1     -50.645  15.736  23.410  0.00  0.00     0.029 A 
ATOM     34  C   UNL d   1     -49.832  15.673  23.296  0.00  0.00     0.028 A 
ENDBRANCH  29  30
ENDBRANCH  27  29
ENDBRANCH  25  26
ENDBRANCH   1  25
TORSDOF 9
ENDMDL
