MODEL 1
REMARK VINA RESULT:      11.1      0.000      0.000
REMARK  5 active torsions:
REMARK  status: ('A' for Active; 'I' for Inactive)
REMARK    1  A    between atoms: C_12  and  N_3 
REMARK    2  A    between atoms: C_11  and  C_5 
REMARK       I    between atoms: N_16  and  C_11 
REMARK    3  A    between atoms: C_15  and  C_12 
REMARK    4  A    between atoms: C_26  and  N_16 
REMARK    5  A    between atoms: C_27  and  C_26 
ROOT
ATOM      1  C   UNL d   1     -41.267-121.013 -52.767  0.00  0.00     0.155 A 
ATOM      2  C   UNL d   1     -41.237-120.969 -51.934  0.00  0.00     0.091 A 
ATOM      3  N   UNL d   1     -41.311-121.747 -53.133  0.00  0.00    -0.272 N 
ATOM      4  N   UNL d   1     -41.254-120.322 -53.210  0.00  0.00    -0.210 NA
ATOM      5  C   UNL d   1     -41.294-122.397 -51.856  0.00  0.00     0.094 A 
ATOM      6  C   UNL d   1     -41.324-122.441 -52.681  0.00  0.00     0.175 A 
ATOM      7  C   UNL d   1     -41.193-120.234 -51.561  0.00  0.00     0.269 A 
ATOM      8  N   UNL d   1     -41.180-119.544 -52.020  0.00  0.00    -0.258 N 
ATOM      9  C   UNL d   1     -41.210-119.592 -52.845  0.00  0.00     0.152 A 
ATOM     10  C   UNL d   1     -41.250-121.659 -51.483  0.00  0.00     0.016 A 
ATOM     11  N   UNL d   1     -41.368-123.176 -53.055  0.00  0.00    -0.128 N 
ATOM     12  C   UNL d   1     -41.136-118.810 -51.639  0.00  0.00     0.084 A 
ATOM     13  O   UNL d   1     -41.162-120.183 -50.736  0.00  0.00    -0.266 OA
ATOM     14  C   UNL d   1     -41.197-118.897 -53.288  0.00  0.00     0.038 A 
ATOM     15  C   UNL d   1     -41.123-118.124 -52.097  0.00  0.00     0.019 A 
ATOM     16  C   UNL d   1     -41.153-118.168 -52.923  0.00  0.00     0.005 A 
ENDROOT
BRANCH   5  17
ATOM     17  C   UNL d   1     -41.307-123.088 -51.405  0.00  0.00     0.282 C 
ATOM     18  N   UNL d   1     -41.504-123.053 -50.605  0.00  0.00    -0.206 NA
ATOM     19  O   UNL d   1     -41.123-123.814 -51.755  0.00  0.00    -0.265 OA
BRANCH  18  20
ATOM     20  C   UNL d   1     -41.519-123.747 -50.147  0.00  0.00     0.102 C 
BRANCH  20  21
ATOM     21  C   UNL d   1     -41.724-123.713 -49.349  0.00  0.00     0.019 A 
ATOM     22  C   UNL d   1     -41.135-123.662 -48.771  0.00  0.00     0.002 A 
ATOM     23  C   UNL d   1     -41.340-123.628 -47.973  0.00  0.00     0.000 A 
ATOM     24  C   UNL d   1     -42.137-123.645 -47.749  0.00  0.00     0.000 A 
ATOM     25  C   UNL d   1     -42.724-123.696 -48.329  0.00  0.00     0.000 A 
ATOM     26  C   UNL d   1     -42.343-123.611 -46.951  0.00  0.00     0.000 C 
ATOM     27  C   UNL d   1     -42.519-123.730 -49.128  0.00  0.00     0.002 A 
ENDBRANCH  20  21
ENDBRANCH  18  20
ENDBRANCH   5  17
BRANCH   3  28
ATOM     28  C   UNL d   1     -41.341-121.791 -53.958  0.00  0.00     0.107 C 
BRANCH  28  29
ATOM     29  C   UNL d   1     -42.067-121.873 -54.341  0.00  0.00     0.118 A 
ATOM     30  O   UNL d   1     -42.884-121.846 -54.283  0.00  0.00    -0.304 OA
ATOM     31  C   UNL d   1     -43.208-122.020 -55.018  0.00  0.00     0.123 A 
ATOM     32  C   UNL d   1     -42.585-122.158 -55.541  0.00  0.00     0.029 A 
ATOM     33  C   UNL d   1     -41.879-122.067 -55.125  0.00  0.00     0.028 A 
ENDBRANCH  28  29
ENDBRANCH   3  28
TORSDOF 5
ENDMDL
