MODEL 1
REMARK VINA RESULT:      -7.9      0.000      0.000
REMARK  5 active torsions:
REMARK  status: ('A' for Active; 'I' for Inactive)
REMARK    1  A    between atoms: N_10  and  C_2 
REMARK    2  A    between atoms: C_7  and  C_5 
REMARK    3  A    between atoms: C_6  and  C_9 
REMARK    4  A    between atoms: C_8  and  C_7 
REMARK       I    between atoms: N_11  and  C_8 
REMARK    5  A    between atoms: C_14  and  N_11 
ROOT
ATOM      1  C   UNL d   1     -47.852  14.320  22.502  0.00  0.00     0.280 C 
ATOM      2  N   UNL d   1     -47.174  14.284  22.967  0.00  0.00    -0.208 NA
ATOM      3  O   UNL d   1     -48.041  13.689  22.006  0.00  0.00    -0.265 OA
ENDROOT
BRANCH   1   4
ATOM      4  C   UNL d   1     -48.340  14.982  22.529  0.00  0.00     0.074 C 
BRANCH   4   5
ATOM      5  C   UNL d   1     -49.155  14.895  22.618  0.00  0.00     0.093 A 
ATOM      6  C   UNL d   1     -49.631  15.324  23.136  0.00  0.00     0.272 A 
ATOM      7  N   UNL d   1     -50.402  15.061  23.044  0.00  0.00    -0.251 N 
ATOM      8  O   UNL d   1     -49.377  15.913  23.655  0.00  0.00    -0.266 OA
ATOM      9  C   UNL d   1     -50.404  14.469  22.469  0.00  0.00     0.182 A 
ATOM     10  C   UNL d   1     -51.064  15.338  23.455  0.00  0.00     0.104 C 
ATOM     11  S   UNL d   1     -49.632  14.369  22.207  0.00  0.00    -0.045 SA
BRANCH   9  12
ATOM     12  N   UNL d   1     -51.064  14.053  22.204  0.00  0.00    -0.219 NA
ATOM     13  C   UNL d   1     -51.053  13.687  21.463  0.00  0.00     0.122 C 
ENDBRANCH   9  12
ENDBRANCH   4   5
ENDBRANCH   1   4
BRANCH   2  14
ATOM     14  C   UNL d   1     -46.688  13.617  22.935  0.00  0.00     0.085 A 
ATOM     15  C   UNL d   1     -46.019  13.609  22.447  0.00  0.00     0.023 A 
ATOM     16  C   UNL d   1     -45.537  12.938  22.420  0.00  0.00     0.073 A 
ATOM     17  C   UNL d   1     -45.722  12.282  22.877  0.00  0.00     0.004 A 
ATOM     18  C   UNL d   1     -46.391  12.291  23.365  0.00  0.00     0.002 A 
ATOM     19  C   UNL d   1     -46.873  12.955  23.396  0.00  0.00     0.019 A 
BRANCH  16  20
ATOM     20  C   UNL d   1     -44.870  12.930  21.932  0.00  0.00     0.419 C 
ATOM     21  F   UNL d   1     -44.264  12.922  21.489  0.00  0.00    -0.166 F 
ATOM     22  F   UNL d   1     -44.037  12.967  22.145  0.00  0.00    -0.166 F 
ATOM     23  F   UNL d   1     -44.823  12.881  21.071  0.00  0.00    -0.166 F 
ENDBRANCH  16  20
ENDBRANCH   2  14
TORSDOF 5
ENDMDL
MODEL 2
REMARK VINA RESULT:      -7.4      1.297      1.816
REMARK  5 active torsions:
REMARK  status: ('A' for Active; 'I' for Inactive)
REMARK    1  A    between atoms: N_10  and  C_2 
REMARK    2  A    between atoms: C_7  and  C_5 
REMARK    3  A    between atoms: C_6  and  C_9 
REMARK    4  A    between atoms: C_8  and  C_7 
REMARK       I    between atoms: N_11  and  C_8 
REMARK    5  A    between atoms: C_14  and  N_11 
ROOT
ATOM      1  C   UNL d   1     -48.544  12.377  23.058  0.00  0.00     0.280 C 
ATOM      2  N   UNL d   1     -47.957  12.481  23.625  0.00  0.00    -0.208 NA
ATOM      3  O   UNL d   1     -48.344  12.086  22.313  0.00  0.00    -0.265 OA
ENDROOT
BRANCH   1   4
ATOM      4  C   UNL d   1     -49.327  12.560  23.231  0.00  0.00     0.074 C 
BRANCH   4   5
ATOM      5  C   UNL d   1     -49.682  13.225  22.899  0.00  0.00     0.093 A 
ATOM      6  C   UNL d   1     -50.298  13.219  22.350  0.00  0.00     0.272 A 
ATOM      7  N   UNL d   1     -50.480  13.997  22.170  0.00  0.00    -0.251 N 
ATOM      8  O   UNL d   1     -50.664  12.549  22.039  0.00  0.00    -0.266 OA
ATOM      9  C   UNL d   1     -49.978  14.486  22.606  0.00  0.00     0.182 A 
ATOM     10  C   UNL d   1     -51.064  14.252  21.643  0.00  0.00     0.104 C 
ATOM     11  S   UNL d   1     -49.487  14.006  23.056  0.00  0.00    -0.045 SA
BRANCH   9  12
ATOM     12  N   UNL d   1     -49.972  15.311  22.593  0.00  0.00    -0.219 NA
ATOM     13  C   UNL d   1     -49.910  15.736  23.299  0.00  0.00     0.122 C 
ENDBRANCH   9  12
ENDBRANCH   4   5
ENDBRANCH   1   4
BRANCH   2  14
ATOM     14  C   UNL d   1     -47.173  12.296  23.445  0.00  0.00     0.085 A 
ATOM     15  C   UNL d   1     -46.704  12.826  23.015  0.00  0.00     0.023 A 
ATOM     16  C   UNL d   1     -45.921  12.634  22.838  0.00  0.00     0.073 A 
ATOM     17  C   UNL d   1     -45.608  11.917  23.090  0.00  0.00     0.004 A 
ATOM     18  C   UNL d   1     -46.076  11.387  23.520  0.00  0.00     0.002 A 
ATOM     19  C   UNL d   1     -46.856  11.574  23.698  0.00  0.00     0.019 A 
BRANCH  16  20
ATOM     20  C   UNL d   1     -45.453  13.163  22.409  0.00  0.00     0.419 C 
ATOM     21  F   UNL d   1     -45.029  13.643  22.019  0.00  0.00    -0.166 F 
ATOM     22  F   UNL d   1     -44.817  13.002  21.851  0.00  0.00    -0.166 F 
ATOM     23  F   UNL d   1     -45.473  14.026  22.400  0.00  0.00    -0.166 F 
ENDBRANCH  16  20
ENDBRANCH   2  14
TORSDOF 5
ENDMDL
MODEL 3
REMARK VINA RESULT:      -7.3      1.590      2.187
REMARK  5 active torsions:
REMARK  status: ('A' for Active; 'I' for Inactive)
REMARK    1  A    between atoms: N_10  and  C_2 
REMARK    2  A    between atoms: C_7  and  C_5 
REMARK    3  A    between atoms: C_6  and  C_9 
REMARK    4  A    between atoms: C_8  and  C_7 
REMARK       I    between atoms: N_11  and  C_8 
REMARK    5  A    between atoms: C_14  and  N_11 
ROOT
ATOM      1  C   UNL d   1     -47.604  12.497  23.018  0.00  0.00     0.280 C 
ATOM      2  N   UNL d   1     -46.926  12.761  23.403  0.00  0.00    -0.208 NA
ATOM      3  O   UNL d   1     -47.715  12.671  22.220  0.00  0.00    -0.265 OA
ENDROOT
BRANCH   1   4
ATOM      4  C   UNL d   1     -48.170  12.061  23.426  0.00  0.00     0.074 C 
BRANCH   4   5
ATOM      5  C   UNL d   1     -48.951  12.322  23.461  0.00  0.00     0.093 A 
ATOM      6  C   UNL d   1     -49.616  11.842  23.545  0.00  0.00     0.272 A 
ATOM      7  N   UNL d   1     -50.277  12.326  23.554  0.00  0.00    -0.251 N 
ATOM      8  O   UNL d   1     -49.616  11.019  23.610  0.00  0.00    -0.266 OA
ATOM      9  C   UNL d   1     -50.022  13.108  23.474  0.00  0.00     0.182 A 
ATOM     10  C   UNL d   1     -51.062  12.080  23.628  0.00  0.00     0.104 C 
ATOM     11  S   UNL d   1     -49.203  13.102  23.417  0.00  0.00    -0.045 SA
BRANCH   9  12
ATOM     12  N   UNL d   1     -50.505  13.776  23.456  0.00  0.00    -0.219 NA
ATOM     13  C   UNL d   1     -50.208  14.508  23.698  0.00  0.00     0.122 C 
ENDBRANCH   9  12
ENDBRANCH   4   5
ENDBRANCH   1   4
BRANCH   2  14
ATOM     14  C   UNL d   1     -46.361  13.198  22.988  0.00  0.00     0.085 A 
ATOM     15  C   UNL d   1     -45.760  12.814  22.567  0.00  0.00     0.023 A 
ATOM     16  C   UNL d   1     -45.199  13.257  22.155  0.00  0.00     0.073 A 
ATOM     17  C   UNL d   1     -45.237  14.077  22.162  0.00  0.00     0.004 A 
ATOM     18  C   UNL d   1     -45.838  14.461  22.583  0.00  0.00     0.002 A 
ATOM     19  C   UNL d   1     -46.399  14.024  22.995  0.00  0.00     0.019 A 
BRANCH  16  20
ATOM     20  C   UNL d   1     -44.598  12.873  21.734  0.00  0.00     0.419 C 
ATOM     21  F   UNL d   1     -44.054  12.526  21.353  0.00  0.00    -0.166 F 
ATOM     22  F   UNL d   1     -44.518  12.751  20.886  0.00  0.00    -0.166 F 
ATOM     23  F   UNL d   1     -43.884  12.489  22.030  0.00  0.00    -0.166 F 
ENDBRANCH  16  20
ENDBRANCH   2  14
TORSDOF 5
ENDMDL
MODEL 4
REMARK VINA RESULT:      -7.0      3.015      4.929
REMARK  5 active torsions:
REMARK  status: ('A' for Active; 'I' for Inactive)
REMARK    1  A    between atoms: N_10  and  C_2 
REMARK    2  A    between atoms: C_7  and  C_5 
REMARK    3  A    between atoms: C_6  and  C_9 
REMARK    4  A    between atoms: C_8  and  C_7 
REMARK       I    between atoms: N_11  and  C_8 
REMARK    5  A    between atoms: C_14  and  N_11 
ROOT
ATOM      1  C   UNL d   1     -48.444  12.151  23.280  0.00  0.00     0.280 C 
ATOM      2  N   UNL d   1     -49.020  12.620  23.635  0.00  0.00    -0.208 NA
ATOM      3  O   UNL d   1     -48.552  11.888  22.506  0.00  0.00    -0.265 OA
ENDROOT
BRANCH   1   4
ATOM      4  C   UNL d   1     -47.763  11.945  23.693  0.00  0.00     0.074 C 
BRANCH   4   5
ATOM      5  C   UNL d   1     -47.020  12.160  23.407  0.00  0.00     0.093 A 
ATOM      6  C   UNL d   1     -46.366  11.663  23.345  0.00  0.00     0.272 A 
ATOM      7  N   UNL d   1     -45.747  12.101  23.034  0.00  0.00    -0.251 N 
ATOM      8  O   UNL d   1     -46.339  10.867  23.557  0.00  0.00    -0.266 OA
ATOM      9  C   UNL d   1     -46.017  12.870  22.903  0.00  0.00     0.182 A 
ATOM     10  C   UNL d   1     -44.983  11.825  22.878  0.00  0.00     0.104 C 
ATOM     11  S   UNL d   1     -46.805  12.903  23.135  0.00  0.00    -0.045 SA
BRANCH   9  12
ATOM     12  N   UNL d   1     -45.575  13.494  22.595  0.00  0.00    -0.219 NA
ATOM     13  C   UNL d   1     -45.951  14.189  22.354  0.00  0.00     0.122 C 
ENDBRANCH   9  12
ENDBRANCH   4   5
ENDBRANCH   1   4
BRANCH   2  14
ATOM     14  C   UNL d   1     -49.701  12.824  23.215  0.00  0.00     0.085 A 
ATOM     15  C   UNL d   1     -49.826  13.606  22.974  0.00  0.00     0.023 A 
ATOM     16  C   UNL d   1     -50.510  13.803  22.555  0.00  0.00     0.073 A 
ATOM     17  C   UNL d   1     -51.064  13.224  22.377  0.00  0.00     0.004 A 
ATOM     18  C   UNL d   1     -50.938  12.442  22.618  0.00  0.00     0.002 A 
ATOM     19  C   UNL d   1     -50.259  12.241  23.036  0.00  0.00     0.019 A 
BRANCH  16  20
ATOM     20  C   UNL d   1     -50.635  14.585  22.314  0.00  0.00     0.419 C 
ATOM     21  F   UNL d   1     -50.749  15.293  22.096  0.00  0.00    -0.166 F 
ATOM     22  F   UNL d   1     -50.768  14.898  21.523  0.00  0.00    -0.166 F 
ATOM     23  F   UNL d   1     -50.668  15.304  22.790  0.00  0.00    -0.166 F 
ENDBRANCH  16  20
ENDBRANCH   2  14
TORSDOF 5
ENDMDL
MODEL 5
REMARK VINA RESULT:      -6.2      8.256      9.781
REMARK  5 active torsions:
REMARK  status: ('A' for Active; 'I' for Inactive)
REMARK    1  A    between atoms: N_10  and  C_2 
REMARK    2  A    between atoms: C_7  and  C_5 
REMARK    3  A    between atoms: C_6  and  C_9 
REMARK    4  A    between atoms: C_8  and  C_7 
REMARK       I    between atoms: N_11  and  C_8 
REMARK    5  A    between atoms: C_14  and  N_11 
ROOT
ATOM      1  C   UNL d   1     -40.101  15.141  18.497  0.00  0.00     0.280 C 
ATOM      2  N   UNL d   1     -40.663  14.877  19.037  0.00  0.00    -0.208 NA
ATOM      3  O   UNL d   1     -39.443  15.561  18.763  0.00  0.00    -0.265 OA
ENDROOT
BRANCH   1   4
ATOM      4  C   UNL d   1     -40.193  14.989  17.693  0.00  0.00     0.074 C 
BRANCH   4   5
ATOM      5  C   UNL d   1     -39.581  14.645  17.262  0.00  0.00     0.093 A 
ATOM      6  C   UNL d   1     -39.246  14.951  16.573  0.00  0.00     0.272 A 
ATOM      7  N   UNL d   1     -38.658  14.435  16.329  0.00  0.00    -0.251 N 
ATOM      8  O   UNL d   1     -39.464  15.653  16.198  0.00  0.00    -0.266 OA
ATOM      9  C   UNL d   1     -38.629  13.808  16.866  0.00  0.00     0.182 A 
ATOM     10  C   UNL d   1     -38.177  14.523  15.662  0.00  0.00     0.104 C 
ATOM     11  S   UNL d   1     -39.200  13.941  17.441  0.00  0.00    -0.045 SA
BRANCH   9  12
ATOM     12  N   UNL d   1     -38.116  13.163  16.830  0.00  0.00    -0.219 NA
ATOM     13  C   UNL d   1     -38.187  12.547  17.376  0.00  0.00     0.122 C 
ENDBRANCH   9  12
ENDBRANCH   4   5
ENDBRANCH   1   4
BRANCH   2  14
ATOM     14  C   UNL d   1     -40.565  15.034  19.842  0.00  0.00     0.085 A 
ATOM     15  C   UNL d   1     -40.230  14.465  20.342  0.00  0.00     0.023 A 
ATOM     16  C   UNL d   1     -40.134  14.628  21.146  0.00  0.00     0.073 A 
ATOM     17  C   UNL d   1     -40.372  15.353  21.448  0.00  0.00     0.004 A 
ATOM     18  C   UNL d   1     -40.707  15.922  20.948  0.00  0.00     0.002 A 
ATOM     19  C   UNL d   1     -40.803  15.764  20.147  0.00  0.00     0.019 A 
BRANCH  16  20
ATOM     20  C   UNL d   1     -39.800  14.060  21.645  0.00  0.00     0.419 C 
ATOM     21  F   UNL d   1     -39.496  13.544  22.098  0.00  0.00    -0.166 F 
ATOM     22  F   UNL d   1     -38.974  13.932  21.851  0.00  0.00    -0.166 F 
ATOM     23  F   UNL d   1     -40.187  13.435  22.099  0.00  0.00    -0.166 F 
ENDBRANCH  16  20
ENDBRANCH   2  14
TORSDOF 5
ENDMDL
MODEL 6
REMARK VINA RESULT:      -5.9      8.401      9.228
REMARK  5 active torsions:
REMARK  status: ('A' for Active; 'I' for Inactive)
REMARK    1  A    between atoms: N_10  and  C_2 
REMARK    2  A    between atoms: C_7  and  C_5 
REMARK    3  A    between atoms: C_6  and  C_9 
REMARK    4  A    between atoms: C_8  and  C_7 
REMARK       I    between atoms: N_11  and  C_8 
REMARK    5  A    between atoms: C_14  and  N_11 
ROOT
ATOM      1  C   UNL d   1     -40.150  14.702  19.611  0.00  0.00     0.280 C 
ATOM      2  N   UNL d   1     -40.473  14.586  20.359  0.00  0.00    -0.208 NA
ATOM      3  O   UNL d   1     -39.360  14.925  19.538  0.00  0.00    -0.265 OA
ENDROOT
BRANCH   1   4
ATOM      4  C   UNL d   1     -40.611  14.596  18.938  0.00  0.00     0.074 C 
BRANCH   4   5
ATOM      5  C   UNL d   1     -40.322  14.811  18.197  0.00  0.00     0.093 A 
ATOM      6  C   UNL d   1     -40.643  15.388  17.703  0.00  0.00     0.272 A 
ATOM      7  N   UNL d   1     -40.185  15.420  17.025  0.00  0.00    -0.251 N 
ATOM      8  O   UNL d   1     -41.308  15.849  17.864  0.00  0.00    -0.266 OA
ATOM      9  C   UNL d   1     -39.580  14.864  17.097  0.00  0.00     0.182 A 
ATOM     10  C   UNL d   1     -40.305  15.922  16.378  0.00  0.00     0.104 C 
ATOM     11  S   UNL d   1     -39.667  14.489  17.822  0.00  0.00    -0.045 SA
BRANCH   9  12
ATOM     12  N   UNL d   1     -38.991  14.712  16.540  0.00  0.00    -0.219 NA
ATOM     13  C   UNL d   1     -38.697  13.945  16.446  0.00  0.00     0.122 C 
ENDBRANCH   9  12
ENDBRANCH   4   5
ENDBRANCH   1   4
BRANCH   2  14
ATOM     14  C   UNL d   1     -40.005  14.694  21.031  0.00  0.00     0.085 A 
ATOM     15  C   UNL d   1     -39.656  14.044  21.407  0.00  0.00     0.023 A 
ATOM     16  C   UNL d   1     -39.189  14.159  22.078  0.00  0.00     0.073 A 
ATOM     17  C   UNL d   1     -39.072  14.917  22.372  0.00  0.00     0.004 A 
ATOM     18  C   UNL d   1     -39.421  15.567  21.995  0.00  0.00     0.002 A 
ATOM     19  C   UNL d   1     -39.887  15.457  21.327  0.00  0.00     0.019 A 
BRANCH  16  20
ATOM     20  C   UNL d   1     -38.839  13.511  22.454  0.00  0.00     0.419 C 
ATOM     21  F   UNL d   1     -38.523  12.922  22.795  0.00  0.00    -0.166 F 
ATOM     22  F   UNL d   1     -39.128  13.043  23.116  0.00  0.00    -0.166 F 
ATOM     23  F   UNL d   1     -38.087  13.122  22.286  0.00  0.00    -0.166 F 
ENDBRANCH  16  20
ENDBRANCH   2  14
TORSDOF 5
ENDMDL
MODEL 7
REMARK VINA RESULT:      -5.9      8.420      9.457
REMARK  5 active torsions:
REMARK  status: ('A' for Active; 'I' for Inactive)
REMARK    1  A    between atoms: N_10  and  C_2 
REMARK    2  A    between atoms: C_7  and  C_5 
REMARK    3  A    between atoms: C_6  and  C_9 
REMARK    4  A    between atoms: C_8  and  C_7 
REMARK       I    between atoms: N_11  and  C_8 
REMARK    5  A    between atoms: C_14  and  N_11 
ROOT
ATOM      1  C   UNL d   1     -40.218  14.924  19.780  0.00  0.00     0.280 C 
ATOM      2  N   UNL d   1     -40.554  14.430  19.214  0.00  0.00    -0.208 NA
ATOM      3  O   UNL d   1     -39.680  15.504  19.549  0.00  0.00    -0.265 OA
ENDROOT
BRANCH   1   4
ATOM      4  C   UNL d   1     -40.416  14.841  20.575  0.00  0.00     0.074 C 
BRANCH   4   5
ATOM      5  C   UNL d   1     -39.826  14.770  21.146  0.00  0.00     0.093 A 
ATOM      6  C   UNL d   1     -39.722  15.268  21.795  0.00  0.00     0.272 A 
ATOM      7  N   UNL d   1     -39.074  14.998  22.217  0.00  0.00    -0.251 N 
ATOM      8  O   UNL d   1     -40.188  15.922  21.985  0.00  0.00    -0.266 OA
ATOM      9  C   UNL d   1     -38.776  14.332  21.830  0.00  0.00     0.182 A 
ATOM     10  C   UNL d   1     -38.769  15.331  22.910  0.00  0.00     0.104 C 
ATOM     11  S   UNL d   1     -39.243  14.194  21.169  0.00  0.00    -0.045 SA
BRANCH   9  12
ATOM     12  N   UNL d   1     -38.124  13.885  22.066  0.00  0.00    -0.219 NA
ATOM     13  C   UNL d   1     -37.998  13.135  21.743  0.00  0.00     0.122 C 
ENDBRANCH   9  12
ENDBRANCH   4   5
ENDBRANCH   1   4
BRANCH   2  14
ATOM     14  C   UNL d   1     -40.351  14.518  18.419  0.00  0.00     0.085 A 
ATOM     15  C   UNL d   1     -39.762  14.044  18.082  0.00  0.00     0.023 A 
ATOM     16  C   UNL d   1     -39.564  14.137  17.285  0.00  0.00     0.073 A 
ATOM     17  C   UNL d   1     -39.951  14.700  16.830  0.00  0.00     0.004 A 
ATOM     18  C   UNL d   1     -40.539  15.174  17.167  0.00  0.00     0.002 A 
ATOM     19  C   UNL d   1     -40.740  15.085  17.959  0.00  0.00     0.019 A 
BRANCH  16  20
ATOM     20  C   UNL d   1     -38.976  13.663  16.948  0.00  0.00     0.419 C 
ATOM     21  F   UNL d   1     -38.442  13.234  16.643  0.00  0.00    -0.166 F 
ATOM     22  F   UNL d   1     -38.290  13.893  16.482  0.00  0.00    -0.166 F 
ATOM     23  F   UNL d   1     -38.886  12.805  16.971  0.00  0.00    -0.166 F 
ENDBRANCH  16  20
ENDBRANCH   2  14
TORSDOF 5
ENDMDL
MODEL 8
REMARK VINA RESULT:      -5.6      8.791      9.758
REMARK  5 active torsions:
REMARK  status: ('A' for Active; 'I' for Inactive)
REMARK    1  A    between atoms: N_10  and  C_2 
REMARK    2  A    between atoms: C_7  and  C_5 
REMARK    3  A    between atoms: C_6  and  C_9 
REMARK    4  A    between atoms: C_8  and  C_7 
REMARK       I    between atoms: N_11  and  C_8 
REMARK    5  A    between atoms: C_14  and  N_11 
ROOT
ATOM      1  C   UNL d   1     -38.566  14.021  19.404  0.00  0.00     0.280 C 
ATOM      2  N   UNL d   1     -39.108  13.657  18.902  0.00  0.00    -0.208 NA
ATOM      3  O   UNL d   1     -38.229  14.741  19.187  0.00  0.00    -0.265 OA
ENDROOT
BRANCH   1   4
ATOM      4  C   UNL d   1     -38.360  13.669  20.118  0.00  0.00     0.074 C 
BRANCH   4   5
ATOM      5  C   UNL d   1     -38.578  14.018  20.832  0.00  0.00     0.093 A 
ATOM      6  C   UNL d   1     -38.476  13.687  21.581  0.00  0.00     0.272 A 
ATOM      7  N   UNL d   1     -38.768  14.218  22.132  0.00  0.00    -0.251 N 
ATOM      8  O   UNL d   1     -38.141  12.951  21.745  0.00  0.00    -0.266 OA
ATOM      9  C   UNL d   1     -39.050  14.879  21.726  0.00  0.00     0.182 A 
ATOM     10  C   UNL d   1     -38.779  14.115  22.952  0.00  0.00     0.104 C 
ATOM     11  S   UNL d   1     -38.931  14.752  20.923  0.00  0.00    -0.045 SA
BRANCH   9  12
ATOM     12  N   UNL d   1     -39.391  15.549  22.066  0.00  0.00    -0.219 NA
ATOM     13  C   UNL d   1     -40.033  15.919  21.699  0.00  0.00     0.122 C 
ENDBRANCH   9  12
ENDBRANCH   4   5
ENDBRANCH   1   4
BRANCH   2  14
ATOM     14  C   UNL d   1     -39.311  14.016  18.186  0.00  0.00     0.085 A 
ATOM     15  C   UNL d   1     -40.019  14.439  18.115  0.00  0.00     0.023 A 
ATOM     16  C   UNL d   1     -40.215  14.795  17.396  0.00  0.00     0.073 A 
ATOM     17  C   UNL d   1     -39.708  14.728  16.753  0.00  0.00     0.004 A 
ATOM     18  C   UNL d   1     -39.001  14.305  16.825  0.00  0.00     0.002 A 
ATOM     19  C   UNL d   1     -38.801  13.949  17.538  0.00  0.00     0.019 A 
BRANCH  16  20
ATOM     20  C   UNL d   1     -40.922  15.219  17.325  0.00  0.00     0.419 C 
ATOM     21  F   UNL d   1     -41.563  15.603  17.260  0.00  0.00    -0.166 F 
ATOM     22  F   UNL d   1     -41.183  15.920  17.749  0.00  0.00    -0.166 F 
ATOM     23  F   UNL d   1     -41.595  15.074  16.803  0.00  0.00    -0.166 F 
ENDBRANCH  16  20
ENDBRANCH   2  14
TORSDOF 5
ENDMDL
MODEL 9
REMARK VINA RESULT:      -5.0      7.481      9.099
REMARK  5 active torsions:
REMARK  status: ('A' for Active; 'I' for Inactive)
REMARK    1  A    between atoms: N_10  and  C_2 
REMARK    2  A    between atoms: C_7  and  C_5 
REMARK    3  A    between atoms: C_6  and  C_9 
REMARK    4  A    between atoms: C_8  and  C_7 
REMARK       I    between atoms: N_11  and  C_8 
REMARK    5  A    between atoms: C_14  and  N_11 
ROOT
ATOM      1  C   UNL d   1     -39.467  15.328  19.322  0.00  0.00     0.280 C 
ATOM      2  N   UNL d   1     -39.697  15.515  20.091  0.00  0.00    -0.208 NA
ATOM      3  O   UNL d   1     -39.462  14.541  19.078  0.00  0.00    -0.265 OA
ENDROOT
BRANCH   1   4
ATOM      4  C   UNL d   1     -39.243  15.922  18.799  0.00  0.00     0.074 C 
BRANCH   4   5
ATOM      5  C   UNL d   1     -39.481  15.893  18.010  0.00  0.00     0.093 A 
ATOM      6  C   UNL d   1     -38.979  15.893  17.356  0.00  0.00     0.272 A 
ATOM      7  N   UNL d   1     -39.445  15.860  16.683  0.00  0.00    -0.251 N 
ATOM      8  O   UNL d   1     -38.155  15.921  17.376  0.00  0.00    -0.266 OA
ATOM      9  C   UNL d   1     -40.236  15.840  16.919  0.00  0.00     0.182 A 
ATOM     10  C   UNL d   1     -39.175  15.849  15.902  0.00  0.00     0.104 C 
ATOM     11  S   UNL d   1     -40.255  15.861  17.740  0.00  0.00    -0.045 SA
BRANCH   9  12
ATOM     12  N   UNL d   1     -40.891  15.805  16.419  0.00  0.00    -0.219 NA
ATOM     13  C   UNL d   1     -41.651  15.922  16.723  0.00  0.00     0.122 C 
ENDBRANCH   9  12
ENDBRANCH   4   5
ENDBRANCH   1   4
BRANCH   2  14
ATOM     14  C   UNL d   1     -39.920  14.914  20.611  0.00  0.00     0.085 A 
ATOM     15  C   UNL d   1     -40.705  14.652  20.636  0.00  0.00     0.023 A 
ATOM     16  C   UNL d   1     -40.922  14.051  21.160  0.00  0.00     0.073 A 
ATOM     17  C   UNL d   1     -40.359  13.715  21.654  0.00  0.00     0.004 A 
ATOM     18  C   UNL d   1     -39.574  13.977  21.628  0.00  0.00     0.002 A 
ATOM     19  C   UNL d   1     -39.354  14.575  21.109  0.00  0.00     0.019 A 
BRANCH  16  20
ATOM     20  C   UNL d   1     -41.706  13.789  21.185  0.00  0.00     0.419 C 
ATOM     21  F   UNL d   1     -42.417  13.551  21.207  0.00  0.00    -0.166 F 
ATOM     22  F   UNL d   1     -42.404  14.185  21.492  0.00  0.00    -0.166 F 
ATOM     23  F   UNL d   1     -42.041  13.042  20.908  0.00  0.00    -0.166 F 
ENDBRANCH  16  20
ENDBRANCH   2  14
TORSDOF 5
ENDMDL
