MODEL 1
REMARK VINA RESULT:       9.0      0.000      0.000
REMARK  5 active torsions:
REMARK  status: ('A' for Active; 'I' for Inactive)
REMARK    1  A    between atoms: N_2  and  S_1 
REMARK    2  A    between atoms: C_3  and  S_1 
REMARK    3  A    between atoms: C_4  and  N_2 
REMARK    4  A    between atoms: C_5  and  C_4 
REMARK       I    between atoms: C_8  and  N_9 
REMARK    5  A    between atoms: N_9  and  C_14 
ROOT
ATOM      1  C   UNL d   1      45.549 -13.986  44.445  0.00  0.00     0.105 A 
ATOM      2  C   UNL d   1      44.828 -14.403  44.434  0.00  0.00     0.015 A 
ATOM      3  C   UNL d   1      46.249 -14.379  44.626  0.00  0.00     0.015 A 
ATOM      4  C   UNL d   1      45.516 -15.601  44.784  0.00  0.00     0.085 A 
ATOM      5  C   UNL d   1      46.230 -15.188  44.795  0.00  0.00     0.020 A 
ATOM      6  C   UNL d   1      44.814 -15.209  44.603  0.00  0.00     0.020 A 
ENDROOT
BRANCH   1   7
ATOM      7  S   UNL d   1      45.562 -13.180  44.276  0.00  0.00     0.285 S 
ATOM      8  O   UNL d   1      45.528 -12.629  44.889  0.00  0.00    -0.198 OA
ATOM      9  O   UNL d   1      45.604 -13.548  43.537  0.00  0.00    -0.198 OA
BRANCH   7  10
ATOM     10  N   UNL d   1      45.609 -12.917  43.492  0.00  0.00    -0.150 NA
BRANCH  10  11
ATOM     11  C   UNL d   1      45.294 -12.187  43.278  0.00  0.00     0.182 C 
BRANCH  11  12
ATOM     12  C   UNL d   1      44.798 -12.122  42.625  0.00  0.00     0.232 C 
ATOM     13  O   UNL d   1      45.125 -12.097  41.868  0.00  0.00    -0.643 OA
ATOM     14  O   UNL d   1      43.981 -12.081  42.723  0.00  0.00    -0.643 OA
ENDBRANCH  11  12
ENDBRANCH  10  11
ENDBRANCH   7  10
ENDBRANCH   1   7
BRANCH   4  15
ATOM     15  N   UNL d   1      45.504 -16.411  44.954  0.00  0.00    -0.208 NA
ATOM     16  C   UNL d   1      45.885 -16.942  44.453  0.00  0.00     0.279 C 
ATOM     17  O   UNL d   1      46.278 -16.668  43.782  0.00  0.00    -0.265 OA
ATOM     18  C   UNL d   1      45.875 -17.755  44.622  0.00  0.00     0.068 C 
ENDBRANCH   4  15
TORSDOF 5
ENDMDL
