MODEL 1
REMARK VINA RESULT:      26.4      0.000      0.000
REMARK  2 active torsions:
REMARK  status: ('A' for Active; 'I' for Inactive)
REMARK    1  A    between atoms: S_2  and  N_1 
REMARK    2  A    between atoms: N_6  and  S_2 
ROOT
ATOM      1  N   UNL d   1      59.308  49.691  50.124  0.00  0.00    -0.199 N 
ATOM      2  C   UNL d   1      58.489  49.691  50.175  0.00  0.00     0.095 A 
ATOM      3  C   UNL d   1      59.510  49.701  49.310  0.00  0.00     0.194 A 
ATOM      4  N   UNL d   1      58.804  49.707  48.878  0.00  0.00    -0.223 NA
ATOM      5  C   UNL d   1      58.177  49.700  49.411  0.00  0.00     0.100 A 
ATOM      6  C   UNL d   1      57.990  49.683  50.829  0.00  0.00     0.020 A 
ATOM      7  C   UNL d   1      57.360  49.701  49.306  0.00  0.00     0.021 A 
ATOM      8  C   UNL d   1      57.172  49.684  50.725  0.00  0.00     0.002 A 
ATOM      9  C   UNL d   1      56.854  49.693  49.960  0.00  0.00     0.002 A 
ATOM     10  C   UNL d   1      56.669  49.676  51.381  0.00  0.00     0.000 C 
ATOM     11  C   UNL d   1      56.034  49.695  49.852  0.00  0.00     0.000 C 
ENDROOT
BRANCH   1  12
ATOM     12  S   UNL d   1      59.834  49.683  50.747  0.00  0.00     0.339 S 
ATOM     13  O   UNL d   1      59.210  49.692  51.284  0.00  0.00    -0.181 OA
ATOM     14  O   UNL d   1      60.459  49.675  50.214  0.00  0.00    -0.181 OA
BRANCH  12  15
ATOM     15  N   UNL d   1      60.373  49.675  51.368  0.00  0.00    -0.212 N 
ATOM     16  C   UNL d   1      61.182  49.638  51.210  0.00  0.00     0.120 A 
ATOM     17  C   UNL d   1      61.719  49.630  51.828  0.00  0.00     0.142 A 
ATOM     18  O   UNL d   1      61.462  49.659  52.601  0.00  0.00    -0.300 OA
ATOM     19  C   UNL d   1      60.656  49.697  52.768  0.00  0.00     0.142 A 
ATOM     20  C   UNL d   1      60.108  49.705  52.144  0.00  0.00     0.120 A 
ENDBRANCH  12  15
ENDBRANCH   1  12
TORSDOF 2
ENDMDL
