MODEL 1
REMARK VINA RESULT:      18.4      0.000      0.000
REMARK  3 active torsions:
REMARK  status: ('A' for Active; 'I' for Inactive)
REMARK    1  A    between atoms: C_13  and  C_5 
REMARK       I    between atoms: C_7  and  N_12 
REMARK    2  A    between atoms: C_10  and  C_7 
REMARK    3  A    between atoms: N_12  and  C_15 
ROOT
ATOM      1  C   UNL d   1      46.100 -17.194  43.605  0.00  0.00     0.021 A 
ATOM      2  C   UNL d   1      45.951 -15.811  43.960  0.00  0.00     0.085 A 
ATOM      3  C   UNL d   1      46.100 -16.390  43.393  0.00  0.00     0.021 A 
ATOM      4  C   UNL d   1      45.952 -17.406  44.385  0.00  0.00     0.002 A 
ATOM      5  C   UNL d   1      45.804 -16.838  44.955  0.00  0.00     0.002 A 
ATOM      6  C   UNL d   1      45.803 -16.035  44.743  0.00  0.00     0.019 A 
ENDROOT
BRANCH   1   7
ATOM      7  C   UNL d   1      46.250 -17.764  43.028  0.00  0.00     0.102 A 
ATOM      8  N   UNL d   1      46.170 -18.566  43.232  0.00  0.00    -0.162 NA
ATOM      9  N   UNL d   1      46.320 -19.149  42.654  0.00  0.00    -0.189 N 
ATOM     10  C   UNL d   1      46.547 -18.930  41.883  0.00  0.00     0.187 A 
ATOM     11  C   UNL d   1      46.288 -19.963  42.688  0.00  0.00     0.224 A 
ATOM     12  N   UNL d   1      46.647 -19.614  41.469  0.00  0.00    -0.127 NA
ATOM     13  C   UNL d   1      46.621 -18.118  41.701  0.00  0.00     0.042 A 
ATOM     14  N   UNL d   1      46.489 -20.256  41.957  0.00  0.00    -0.124 NA
ATOM     15  C   UNL d   1      46.472 -17.540  42.277  0.00  0.00     0.024 A 
ENDBRANCH   1   7
BRANCH   2  16
ATOM     16  N   UNL d   1      45.950 -15.018  43.751  0.00  0.00    -0.206 NA
ATOM     17  C   UNL d   1      45.375 -14.517  44.053  0.00  0.00     0.302 C 
ATOM     18  O   UNL d   1      44.794 -14.804  44.567  0.00  0.00    -0.263 OA
BRANCH  17  19
ATOM     19  C   UNL d   1      45.374 -13.721  43.843  0.00  0.00     0.158 A 
ATOM     20  O   UNL d   1      44.972 -13.385  43.211  0.00  0.00    -0.300 OA
ATOM     21  C   UNL d   1      45.126 -12.577  43.206  0.00  0.00     0.123 A 
ATOM     22  C   UNL d   1      45.631 -12.408  43.846  0.00  0.00     0.029 A 
ATOM     23  C   UNL d   1      45.782 -13.113  44.237  0.00  0.00     0.032 A 
ENDBRANCH  17  19
ENDBRANCH   2  16
TORSDOF 3
ENDMDL
