MODEL 1
REMARK VINA RESULT:      -8.9      0.000      0.000
REMARK  3 active torsions:
REMARK  status: ('A' for Active; 'I' for Inactive)
REMARK    1  A    between atoms: O_9  and  C_1 
REMARK    2  A    between atoms: C_13  and  O_9 
REMARK    3  A    between atoms: C_16  and  C_11 
ROOT
ATOM      1  C   UNL d   1     -48.524  13.940  23.074  0.00  0.00     0.161 A 
ATOM      2  C   UNL d   1     -47.338  13.145  23.106  0.00  0.00     0.064 A 
ATOM      3  C   UNL d   1     -48.128  13.235  23.288  0.00  0.00     0.222 A 
ATOM      4  C   UNL d   1     -46.921  13.736  22.715  0.00  0.00     0.106 A 
ATOM      5  C   UNL d   1     -48.099  14.542  22.676  0.00  0.00     0.126 A 
ATOM      6  O   UNL d   1     -47.293  14.417  22.506  0.00  0.00    -0.305 OA
ATOM      7  C   UNL d   1     -46.968  12.441  23.326  0.00  0.00     0.008 A 
ATOM      8  C   UNL d   1     -46.133  13.624  22.545  0.00  0.00     0.067 A 
ATOM      9  C   UNL d   1     -45.749  12.934  22.754  0.00  0.00     0.198 A 
ATOM     10  C   UNL d   1     -46.174  12.332  23.152  0.00  0.00     0.039 A 
ATOM     11  O   UNL d   1     -48.546  12.643  23.679  0.00  0.00    -0.284 OA
ATOM     12  O   UNL d   1     -44.934  12.848  22.564  0.00  0.00    -0.286 OA
ATOM     13  C   UNL d   1     -48.465  15.264  22.447  0.00  0.00     0.029 C 
ENDROOT
BRANCH   1  14
ATOM     14  O   UNL d   1     -49.339  14.026  23.265  0.00  0.00    -0.302 OA
BRANCH  14  15
ATOM     15  C   UNL d   1     -49.917  13.713  22.753  0.00  0.00     0.100 A 
ATOM     16  C   UNL d   1     -50.061  14.075  22.027  0.00  0.00     0.025 A 
ATOM     17  C   UNL d   1     -50.626  13.765  21.532  0.00  0.00     0.002 A 
ATOM     18  C   UNL d   1     -51.064  13.080  21.753  0.00  0.00     0.000 A 
ATOM     19  C   UNL d   1     -50.909  12.730  22.483  0.00  0.00     0.002 A 
ATOM     20  C   UNL d   1     -50.332  13.048  22.985  0.00  0.00     0.025 A 
ENDBRANCH  14  15
ENDBRANCH   1  14
BRANCH  10  21
ATOM     21  C   UNL d   1     -45.808  11.610  23.382  0.00  0.00     0.003 C 
ATOM     22  C   UNL d   1     -46.266  10.983  23.698  0.00  0.00     0.000 C 
ENDBRANCH  10  21
TORSDOF 3
ENDMDL
MODEL 2
REMARK VINA RESULT:      -7.8      0.922      3.843
REMARK  3 active torsions:
REMARK  status: ('A' for Active; 'I' for Inactive)
REMARK    1  A    between atoms: O_9  and  C_1 
REMARK    2  A    between atoms: C_13  and  O_9 
REMARK    3  A    between atoms: C_16  and  C_11 
ROOT
ATOM      1  C   UNL d   1     -47.608  13.912  23.035  0.00  0.00     0.161 A 
ATOM      2  C   UNL d   1     -48.942  13.539  22.685  0.00  0.00     0.064 A 
ATOM      3  C   UNL d   1     -48.248  13.375  23.081  0.00  0.00     0.222 A 
ATOM      4  C   UNL d   1     -49.026  14.224  22.238  0.00  0.00     0.106 A 
ATOM      5  C   UNL d   1     -47.694  14.610  22.580  0.00  0.00     0.126 A 
ATOM      6  O   UNL d   1     -48.417  14.746  22.188  0.00  0.00    -0.305 OA
ATOM      7  C   UNL d   1     -49.560  12.995  22.745  0.00  0.00     0.008 A 
ATOM      8  C   UNL d   1     -49.728  14.366  21.851  0.00  0.00     0.067 A 
ATOM      9  C   UNL d   1     -50.351  13.840  21.898  0.00  0.00     0.198 A 
ATOM     10  C   UNL d   1     -50.265  13.142  22.353  0.00  0.00     0.039 A 
ATOM     11  O   UNL d   1     -48.164  12.689  23.528  0.00  0.00    -0.284 OA
ATOM     12  O   UNL d   1     -51.064  14.015  21.487  0.00  0.00    -0.286 OA
ATOM     13  C   UNL d   1     -47.071  15.172  22.511  0.00  0.00     0.029 C 
ENDROOT
BRANCH   1  14
ATOM     14  O   UNL d   1     -46.895  13.737  23.446  0.00  0.00    -0.302 OA
BRANCH  14  15
ATOM     15  C   UNL d   1     -46.300  13.292  23.069  0.00  0.00     0.100 A 
ATOM     16  C   UNL d   1     -46.206  12.496  23.253  0.00  0.00     0.025 A 
ATOM     17  C   UNL d   1     -45.624  12.067  22.881  0.00  0.00     0.002 A 
ATOM     18  C   UNL d   1     -45.118  12.429  22.312  0.00  0.00     0.000 A 
ATOM     19  C   UNL d   1     -45.226  13.227  22.139  0.00  0.00     0.002 A 
ATOM     20  C   UNL d   1     -45.820  13.661  22.519  0.00  0.00     0.025 A 
ENDBRANCH  14  15
ENDBRANCH   1  14
BRANCH  10  21
ATOM     21  C   UNL d   1     -50.888  12.580  22.422  0.00  0.00     0.003 C 
ATOM     22  C   UNL d   1     -51.064  12.231  23.164  0.00  0.00     0.000 C 
ENDBRANCH  10  21
TORSDOF 3
ENDMDL
MODEL 3
REMARK VINA RESULT:      -6.5      8.280      9.840
REMARK  3 active torsions:
REMARK  status: ('A' for Active; 'I' for Inactive)
REMARK    1  A    between atoms: O_9  and  C_1 
REMARK    2  A    between atoms: C_13  and  O_9 
REMARK    3  A    between atoms: C_16  and  C_11 
ROOT
ATOM      1  C   UNL d   1     -39.632  15.536  20.086  0.00  0.00     0.161 A 
ATOM      2  C   UNL d   1     -39.745  15.286  18.684  0.00  0.00     0.064 A 
ATOM      3  C   UNL d   1     -39.284  15.324  19.355  0.00  0.00     0.222 A 
ATOM      4  C   UNL d   1     -40.550  15.453  18.710  0.00  0.00     0.106 A 
ATOM      5  C   UNL d   1     -40.452  15.706  20.112  0.00  0.00     0.126 A 
ATOM      6  O   UNL d   1     -40.894  15.657  19.407  0.00  0.00    -0.305 OA
ATOM      7  C   UNL d   1     -39.379  15.075  17.975  0.00  0.00     0.008 A 
ATOM      8  C   UNL d   1     -40.990  15.409  18.027  0.00  0.00     0.067 A 
ATOM      9  C   UNL d   1     -40.647  15.201  17.315  0.00  0.00     0.198 A 
ATOM     10  C   UNL d   1     -39.826  15.031  17.289  0.00  0.00     0.039 A 
ATOM     11  O   UNL d   1     -38.478  15.157  19.330  0.00  0.00    -0.284 OA
ATOM     12  O   UNL d   1     -41.128  15.164  16.626  0.00  0.00    -0.286 OA
ATOM     13  C   UNL d   1     -40.836  15.922  20.829  0.00  0.00     0.029 C 
ENDROOT
BRANCH   1  14
ATOM     14  O   UNL d   1     -39.151  15.573  20.775  0.00  0.00    -0.302 OA
BRANCH  14  15
ATOM     15  C   UNL d   1     -39.002  14.879  21.211  0.00  0.00     0.100 A 
ATOM     16  C   UNL d   1     -39.613  14.520  21.630  0.00  0.00     0.025 A 
ATOM     17  C   UNL d   1     -39.462  13.843  22.054  0.00  0.00     0.002 A 
ATOM     18  C   UNL d   1     -38.688  13.506  22.068  0.00  0.00     0.000 A 
ATOM     19  C   UNL d   1     -38.089  13.878  21.644  0.00  0.00     0.002 A 
ATOM     20  C   UNL d   1     -38.246  14.568  21.213  0.00  0.00     0.025 A 
ENDBRANCH  14  15
ENDBRANCH   1  14
BRANCH  10  21
ATOM     21  C   UNL d   1     -39.443  14.815  16.572  0.00  0.00     0.003 C 
ATOM     22  C   UNL d   1     -38.958  14.132  16.540  0.00  0.00     0.000 C 
ENDBRANCH  10  21
TORSDOF 3
ENDMDL
MODEL 4
REMARK VINA RESULT:      -6.3      8.355      9.755
REMARK  3 active torsions:
REMARK  status: ('A' for Active; 'I' for Inactive)
REMARK    1  A    between atoms: O_9  and  C_1 
REMARK    2  A    between atoms: C_13  and  O_9 
REMARK    3  A    between atoms: C_16  and  C_11 
ROOT
ATOM      1  C   UNL d   1     -40.393  14.772  18.015  0.00  0.00     0.161 A 
ATOM      2  C   UNL d   1     -40.258  14.787  19.436  0.00  0.00     0.064 A 
ATOM      3  C   UNL d   1     -40.142  14.407  18.724  0.00  0.00     0.222 A 
ATOM      4  C   UNL d   1     -40.617  15.525  19.472  0.00  0.00     0.106 A 
ATOM      5  C   UNL d   1     -40.760  15.525  18.051  0.00  0.00     0.126 A 
ATOM      6  O   UNL d   1     -40.862  15.884  18.796  0.00  0.00    -0.305 OA
ATOM      7  C   UNL d   1     -40.002  14.407  20.123  0.00  0.00     0.008 A 
ATOM      8  C   UNL d   1     -40.722  15.884  20.195  0.00  0.00     0.067 A 
ATOM      9  C   UNL d   1     -40.476  15.525  20.886  0.00  0.00     0.198 A 
ATOM     10  C   UNL d   1     -40.109  14.772  20.849  0.00  0.00     0.039 A 
ATOM     11  O   UNL d   1     -39.782  13.668  18.688  0.00  0.00    -0.284 OA
ATOM     12  O   UNL d   1     -40.598  15.922  21.618  0.00  0.00    -0.286 OA
ATOM     13  C   UNL d   1     -41.024  15.922  17.358  0.00  0.00     0.029 C 
ENDROOT
BRANCH   1  14
ATOM     14  O   UNL d   1     -40.271  14.375  17.283  0.00  0.00    -0.302 OA
BRANCH  14  15
ATOM     15  C   UNL d   1     -39.533  14.436  16.899  0.00  0.00     0.100 A 
ATOM     16  C   UNL d   1     -39.301  15.154  16.572  0.00  0.00     0.025 A 
ATOM     17  C   UNL d   1     -38.580  15.208  16.199  0.00  0.00     0.002 A 
ATOM     18  C   UNL d   1     -38.072  14.537  16.145  0.00  0.00     0.000 A 
ATOM     19  C   UNL d   1     -38.320  13.826  16.478  0.00  0.00     0.002 A 
ATOM     20  C   UNL d   1     -39.054  13.775  16.857  0.00  0.00     0.025 A 
ENDBRANCH  14  15
ENDBRANCH   1  14
BRANCH  10  21
ATOM     21  C   UNL d   1     -39.844  14.376  21.543  0.00  0.00     0.003 C 
ATOM     22  C   UNL d   1     -39.038  14.161  21.627  0.00  0.00     0.000 C 
ENDBRANCH  10  21
TORSDOF 3
ENDMDL
MODEL 5
REMARK VINA RESULT:      -6.1      7.785     10.163
REMARK  3 active torsions:
REMARK  status: ('A' for Active; 'I' for Inactive)
REMARK    1  A    between atoms: O_9  and  C_1 
REMARK    2  A    between atoms: C_13  and  O_9 
REMARK    3  A    between atoms: C_16  and  C_11 
ROOT
ATOM      1  C   UNL d   1     -39.239  13.671  18.656  0.00  0.00     0.161 A 
ATOM      2  C   UNL d   1     -39.707  14.538  19.689  0.00  0.00     0.064 A 
ATOM      3  C   UNL d   1     -39.821  14.188  18.962  0.00  0.00     0.222 A 
ATOM      4  C   UNL d   1     -39.029  14.393  20.131  0.00  0.00     0.106 A 
ATOM      5  C   UNL d   1     -38.548  13.523  19.106  0.00  0.00     0.126 A 
ATOM      6  O   UNL d   1     -38.464  13.898  19.845  0.00  0.00    -0.305 OA
ATOM      7  C   UNL d   1     -40.295  15.045  19.971  0.00  0.00     0.008 A 
ATOM      8  C   UNL d   1     -38.938  14.755  20.854  0.00  0.00     0.067 A 
ATOM      9  C   UNL d   1     -39.508  15.259  21.151  0.00  0.00     0.198 A 
ATOM     10  C   UNL d   1     -40.199  15.407  20.701  0.00  0.00     0.039 A 
ATOM     11  O   UNL d   1     -40.501  14.333  18.520  0.00  0.00    -0.284 OA
ATOM     12  O   UNL d   1     -39.384  15.618  21.902  0.00  0.00    -0.286 OA
ATOM     13  C   UNL d   1     -37.942  13.009  18.829  0.00  0.00     0.029 C 
ENDROOT
BRANCH   1  14
ATOM     14  O   UNL d   1     -39.363  13.313  17.904  0.00  0.00    -0.302 OA
BRANCH  14  15
ATOM     15  C   UNL d   1     -39.027  13.656  17.224  0.00  0.00     0.100 A 
ATOM     16  C   UNL d   1     -39.339  14.356  16.922  0.00  0.00     0.025 A 
ATOM     17  C   UNL d   1     -39.007  14.687  16.258  0.00  0.00     0.002 A 
ATOM     18  C   UNL d   1     -38.349  14.322  15.877  0.00  0.00     0.000 A 
ATOM     19  C   UNL d   1     -38.049  13.622  16.192  0.00  0.00     0.002 A 
ATOM     20  C   UNL d   1     -38.389  13.288  16.869  0.00  0.00     0.025 A 
ENDBRANCH  14  15
ENDBRANCH   1  14
BRANCH  10  21
ATOM     21  C   UNL d   1     -40.805  15.921  20.977  0.00  0.00     0.003 C 
ATOM     22  C   UNL d   1     -41.612  15.719  20.876  0.00  0.00     0.000 C 
ENDBRANCH  10  21
TORSDOF 3
ENDMDL
