MODEL 1
REMARK VINA RESULT:      50.7      0.000      0.000
REMARK  8 active torsions:
REMARK  status: ('A' for Active; 'I' for Inactive)
REMARK    1  A    between atoms: C_2  and  P_1 
REMARK    2  A    between atoms: O_5  and  P_1 
REMARK    3  A    between atoms: O_6  and  P_1 
REMARK    4  A    between atoms: N_3  and  C_2 
REMARK       I    between atoms: C_4  and  N_3 
REMARK    5  A    between atoms: C_9  and  C_4 
REMARK    6  A    between atoms: C_12  and  O_5 
REMARK    7  A    between atoms: C_11  and  O_6 
REMARK    8  A    between atoms: C_10  and  C_9 
ROOT
ATOM      1  C   UNL d   1     -51.417  25.600  33.838  0.00  0.00     0.165 C 
ATOM      2  C   UNL d   1     -51.677  26.175  33.307  0.00  0.00     0.029 C 
ENDROOT
BRANCH   1   3
ATOM      3  P   UNL d   1     -51.699  24.825  33.791  0.00  0.00     0.392 P 
ATOM      4  O   UNL d   1     -52.352  25.042  34.289  0.00  0.00    -0.251 OA
BRANCH   3   5
ATOM      5  O   UNL d   1     -51.998  24.031  33.749  0.00  0.00    -0.265 OA
BRANCH   5   6
ATOM      6  C   UNL d   1     -52.810  23.898  33.692  0.00  0.00     0.103 C 
ATOM      7  C   UNL d   1     -53.128  23.188  33.948  0.00  0.00     0.027 C 
ATOM      8  C   UNL d   1     -53.317  24.467  33.379  0.00  0.00     0.027 C 
ENDBRANCH   5   6
ENDBRANCH   3   5
BRANCH   3   9
ATOM      9  O   UNL d   1     -51.060  24.622  33.306  0.00  0.00    -0.265 OA
BRANCH   9  10
ATOM     10  C   UNL d   1     -50.569  23.995  33.515  0.00  0.00     0.103 C 
ATOM     11  C   UNL d   1     -50.879  23.251  33.614  0.00  0.00     0.027 C 
ATOM     12  C   UNL d   1     -49.782  24.119  33.619  0.00  0.00     0.027 C 
ENDBRANCH   9  10
ENDBRANCH   3   9
ENDBRANCH   1   3
BRANCH   1  13
ATOM     13  N   UNL d   1     -50.871  25.804  34.420  0.00  0.00    -0.200 NA
ATOM     14  C   UNL d   1     -50.734  26.608  34.593  0.00  0.00     0.280 C 
ATOM     15  O   UNL d   1     -51.143  27.199  34.185  0.00  0.00    -0.265 OA
BRANCH  14  16
ATOM     16  C   UNL d   1     -50.171  26.804  35.193  0.00  0.00     0.062 C 
BRANCH  16  17
ATOM     17  C   UNL d   1     -49.591  27.404  35.013  0.00  0.00     0.005 A 
ATOM     18  C   UNL d   1     -49.040  27.614  35.603  0.00  0.00     0.000 A 
ATOM     19  C   UNL d   1     -48.463  28.197  35.454  0.00  0.00     0.000 A 
ATOM     20  C   UNL d   1     -48.447  28.562  34.715  0.00  0.00     0.000 A 
ATOM     21  C   UNL d   1     -49.008  28.343  34.127  0.00  0.00     0.000 A 
ATOM     22  C   UNL d   1     -49.575  27.769  34.274  0.00  0.00     0.000 A 
ENDBRANCH  16  17
ENDBRANCH  14  16
ENDBRANCH   1  13
TORSDOF 8
ENDMDL
MODEL 2
REMARK VINA RESULT:      51.3      1.347      4.096
REMARK  8 active torsions:
REMARK  status: ('A' for Active; 'I' for Inactive)
REMARK    1  A    between atoms: C_2  and  P_1 
REMARK    2  A    between atoms: O_5  and  P_1 
REMARK    3  A    between atoms: O_6  and  P_1 
REMARK    4  A    between atoms: N_3  and  C_2 
REMARK       I    between atoms: C_4  and  N_3 
REMARK    5  A    between atoms: C_9  and  C_4 
REMARK    6  A    between atoms: C_12  and  O_5 
REMARK    7  A    between atoms: C_11  and  O_6 
REMARK    8  A    between atoms: C_10  and  C_9 
ROOT
ATOM      1  C   UNL d   1     -50.623  25.199  33.478  0.00  0.00     0.165 C 
ATOM      2  C   UNL d   1     -49.859  24.909  33.370  0.00  0.00     0.029 C 
ENDROOT
BRANCH   1   3
ATOM      3  P   UNL d   1     -50.745  25.970  33.753  0.00  0.00     0.392 P 
ATOM      4  O   UNL d   1     -51.532  25.949  33.431  0.00  0.00    -0.251 OA
BRANCH   3   5
ATOM      5  O   UNL d   1     -50.882  26.760  34.030  0.00  0.00    -0.265 OA
BRANCH   5   6
ATOM      6  C   UNL d   1     -51.465  26.906  34.595  0.00  0.00     0.103 C 
ATOM      7  C   UNL d   1     -51.636  27.675  34.819  0.00  0.00     0.027 C 
ATOM      8  C   UNL d   1     -51.886  26.291  34.944  0.00  0.00     0.027 C 
ENDBRANCH   5   6
ENDBRANCH   3   5
BRANCH   3   9
ATOM      9  O   UNL d   1     -49.978  25.981  34.062  0.00  0.00    -0.265 OA
BRANCH   9  10
ATOM     10  C   UNL d   1     -49.429  26.526  33.782  0.00  0.00     0.103 C 
ATOM     11  C   UNL d   1     -49.674  27.147  33.317  0.00  0.00     0.027 C 
ATOM     12  C   UNL d   1     -48.652  26.445  33.967  0.00  0.00     0.027 C 
ENDBRANCH   9  10
ENDBRANCH   3   9
ENDBRANCH   1   3
BRANCH   1  13
ATOM     13  N   UNL d   1     -51.269  24.716  33.310  0.00  0.00    -0.200 NA
ATOM     14  C   UNL d   1     -51.272  23.926  33.579  0.00  0.00     0.280 C 
ATOM     15  O   UNL d   1     -50.634  23.628  34.011  0.00  0.00    -0.265 OA
BRANCH  14  16
ATOM     16  C   UNL d   1     -51.941  23.441  33.400  0.00  0.00     0.062 C 
BRANCH  16  17
ATOM     17  C   UNL d   1     -52.674  23.610  33.803  0.00  0.00     0.005 A 
ATOM     18  C   UNL d   1     -52.848  23.193  34.504  0.00  0.00     0.000 A 
ATOM     19  C   UNL d   1     -53.557  23.339  34.918  0.00  0.00     0.000 A 
ATOM     20  C   UNL d   1     -54.083  23.900  34.622  0.00  0.00     0.000 A 
ATOM     21  C   UNL d   1     -53.898  24.315  33.913  0.00  0.00     0.000 A 
ATOM     22  C   UNL d   1     -53.199  24.171  33.506  0.00  0.00     0.000 A 
ENDBRANCH  16  17
ENDBRANCH  14  16
ENDBRANCH   1  13
TORSDOF 8
ENDMDL
MODEL 3
REMARK VINA RESULT:      51.4      1.371      1.960
REMARK  8 active torsions:
REMARK  status: ('A' for Active; 'I' for Inactive)
REMARK    1  A    between atoms: C_2  and  P_1 
REMARK    2  A    between atoms: O_5  and  P_1 
REMARK    3  A    between atoms: O_6  and  P_1 
REMARK    4  A    between atoms: N_3  and  C_2 
REMARK       I    between atoms: C_4  and  N_3 
REMARK    5  A    between atoms: C_9  and  C_4 
REMARK    6  A    between atoms: C_12  and  O_5 
REMARK    7  A    between atoms: C_11  and  O_6 
REMARK    8  A    between atoms: C_10  and  C_9 
ROOT
ATOM      1  C   UNL d   1     -51.117  25.622  33.727  0.00  0.00     0.165 C 
ATOM      2  C   UNL d   1     -50.474  25.950  33.326  0.00  0.00     0.029 C 
ENDROOT
BRANCH   1   3
ATOM      3  P   UNL d   1     -51.403  24.874  33.521  0.00  0.00     0.392 P 
ATOM      4  O   UNL d   1     -52.179  25.209  33.423  0.00  0.00    -0.251 OA
BRANCH   3   5
ATOM      5  O   UNL d   1     -51.709  24.111  33.309  0.00  0.00    -0.265 OA
BRANCH   5   6
ATOM      6  C   UNL d   1     -52.520  23.964  33.349  0.00  0.00     0.103 C 
ATOM      7  C   UNL d   1     -52.799  23.195  33.316  0.00  0.00     0.027 C 
ATOM      8  C   UNL d   1     -53.063  24.578  33.423  0.00  0.00     0.027 C 
ENDBRANCH   5   6
ENDBRANCH   3   5
BRANCH   3   9
ATOM      9  O   UNL d   1     -50.646  24.557  33.619  0.00  0.00    -0.265 OA
BRANCH   9  10
ATOM     10  C   UNL d   1     -50.503  23.769  33.430  0.00  0.00     0.103 C 
ATOM     11  C   UNL d   1     -51.125  23.259  33.312  0.00  0.00     0.027 C 
ATOM     12  C   UNL d   1     -49.748  23.502  33.363  0.00  0.00     0.027 C 
ENDBRANCH   9  10
ENDBRANCH   3   9
ENDBRANCH   1   3
BRANCH   1  13
ATOM     13  N   UNL d   1     -51.474  26.046  34.336  0.00  0.00    -0.200 NA
ATOM     14  C   UNL d   1     -51.060  26.670  34.701  0.00  0.00     0.280 C 
ATOM     15  O   UNL d   1     -50.295  26.865  34.456  0.00  0.00    -0.265 OA
BRANCH  14  16
ATOM     16  C   UNL d   1     -51.437  27.097  35.325  0.00  0.00     0.062 C 
BRANCH  16  17
ATOM     17  C   UNL d   1     -51.311  26.827  36.125  0.00  0.00     0.005 A 
ATOM     18  C   UNL d   1     -51.938  26.441  36.517  0.00  0.00     0.000 A 
ATOM     19  C   UNL d   1     -51.842  26.166  37.299  0.00  0.00     0.000 A 
ATOM     20  C   UNL d   1     -51.119  26.283  37.676  0.00  0.00     0.000 A 
ATOM     21  C   UNL d   1     -50.493  26.674  37.271  0.00  0.00     0.000 A 
ATOM     22  C   UNL d   1     -50.588  26.944  36.502  0.00  0.00     0.000 A 
ENDBRANCH  16  17
ENDBRANCH  14  16
ENDBRANCH   1  13
TORSDOF 8
ENDMDL
MODEL 4
REMARK VINA RESULT:      53.2      2.313      3.497
REMARK  8 active torsions:
REMARK  status: ('A' for Active; 'I' for Inactive)
REMARK    1  A    between atoms: C_2  and  P_1 
REMARK    2  A    between atoms: O_5  and  P_1 
REMARK    3  A    between atoms: O_6  and  P_1 
REMARK    4  A    between atoms: N_3  and  C_2 
REMARK       I    between atoms: C_4  and  N_3 
REMARK    5  A    between atoms: C_9  and  C_4 
REMARK    6  A    between atoms: C_12  and  O_5 
REMARK    7  A    between atoms: C_11  and  O_6 
REMARK    8  A    between atoms: C_10  and  C_9 
ROOT
ATOM      1  C   UNL d   1     -50.920  26.435  34.905  0.00  0.00     0.165 C 
ATOM      2  C   UNL d   1     -50.207  26.786  35.128  0.00  0.00     0.029 C 
ENDROOT
BRANCH   1   3
ATOM      3  P   UNL d   1     -50.992  26.058  34.173  0.00  0.00     0.392 P 
ATOM      4  O   UNL d   1     -50.239  25.686  34.300  0.00  0.00    -0.251 OA
BRANCH   3   5
ATOM      5  O   UNL d   1     -51.056  25.665  33.423  0.00  0.00    -0.265 OA
BRANCH   5   6
ATOM      6  C   UNL d   1     -50.868  24.864  33.358  0.00  0.00     0.103 C 
ATOM      7  C   UNL d   1     -50.086  24.629  33.307  0.00  0.00     0.027 C 
ATOM      8  C   UNL d   1     -51.455  24.287  33.342  0.00  0.00     0.027 C 
ENDBRANCH   5   6
ENDBRANCH   3   5
BRANCH   3   9
ATOM      9  O   UNL d   1     -51.725  26.423  34.057  0.00  0.00    -0.265 OA
BRANCH   9  10
ATOM     10  C   UNL d   1     -51.786  27.073  33.556  0.00  0.00     0.103 C 
ATOM     11  C   UNL d   1     -51.116  27.461  33.310  0.00  0.00     0.027 C 
ATOM     12  C   UNL d   1     -52.508  27.323  33.308  0.00  0.00     0.027 C 
ENDBRANCH   9  10
ENDBRANCH   3   9
ENDBRANCH   1   3
BRANCH   1  13
ATOM     13  N   UNL d   1     -51.563  26.462  35.419  0.00  0.00    -0.200 NA
ATOM     14  C   UNL d   1     -51.432  26.511  36.241  0.00  0.00     0.280 C 
ATOM     15  O   UNL d   1     -50.662  26.533  36.541  0.00  0.00    -0.265 OA
BRANCH  14  16
ATOM     16  C   UNL d   1     -52.100  26.539  36.757  0.00  0.00     0.062 C 
BRANCH  16  17
ATOM     17  C   UNL d   1     -52.025  26.172  37.525  0.00  0.00     0.005 A 
ATOM     18  C   UNL d   1     -52.649  25.689  37.797  0.00  0.00     0.000 A 
ATOM     19  C   UNL d   1     -52.602  25.319  38.543  0.00  0.00     0.000 A 
ATOM     20  C   UNL d   1     -51.930  25.438  39.005  0.00  0.00     0.000 A 
ATOM     21  C   UNL d   1     -51.306  25.927  38.720  0.00  0.00     0.000 A 
ATOM     22  C   UNL d   1     -51.353  26.291  37.986  0.00  0.00     0.000 A 
ENDBRANCH  16  17
ENDBRANCH  14  16
ENDBRANCH   1  13
TORSDOF 8
ENDMDL
MODEL 5
REMARK VINA RESULT:      53.3      2.842      5.786
REMARK  8 active torsions:
REMARK  status: ('A' for Active; 'I' for Inactive)
REMARK    1  A    between atoms: C_2  and  P_1 
REMARK    2  A    between atoms: O_5  and  P_1 
REMARK    3  A    between atoms: O_6  and  P_1 
REMARK    4  A    between atoms: N_3  and  C_2 
REMARK       I    between atoms: C_4  and  N_3 
REMARK    5  A    between atoms: C_9  and  C_4 
REMARK    6  A    between atoms: C_12  and  O_5 
REMARK    7  A    between atoms: C_11  and  O_6 
REMARK    8  A    between atoms: C_10  and  C_9 
ROOT
ATOM      1  C   UNL d   1     -48.396  29.142  35.116  0.00  0.00     0.165 C 
ATOM      2  C   UNL d   1     -48.646  28.758  35.802  0.00  0.00     0.029 C 
ENDROOT
BRANCH   1   3
ATOM      3  P   UNL d   1     -47.987  29.859  35.161  0.00  0.00     0.392 P 
ATOM      4  O   UNL d   1     -48.698  30.267  34.936  0.00  0.00    -0.251 OA
BRANCH   3   5
ATOM      5  O   UNL d   1     -47.578  30.602  35.204  0.00  0.00    -0.265 OA
BRANCH   5   6
ATOM      6  C   UNL d   1     -47.826  31.238  34.741  0.00  0.00     0.103 C 
ATOM      7  C   UNL d   1     -47.592  31.293  33.959  0.00  0.00     0.027 C 
ATOM      8  C   UNL d   1     -48.310  31.829  35.050  0.00  0.00     0.027 C 
ENDBRANCH   5   6
ENDBRANCH   3   5
BRANCH   3   9
ATOM      9  O   UNL d   1     -47.300  29.454  35.379  0.00  0.00    -0.265 OA
BRANCH   9  10
ATOM     10  C   UNL d   1     -46.911  29.651  36.078  0.00  0.00     0.103 C 
ATOM     11  C   UNL d   1     -46.099  29.661  36.101  0.00  0.00     0.027 C 
ATOM     12  C   UNL d   1     -47.335  29.832  36.736  0.00  0.00     0.027 C 
ENDBRANCH   9  10
ENDBRANCH   3   9
ENDBRANCH   1   3
BRANCH   1  13
ATOM     13  N   UNL d   1     -48.556  28.805  34.381  0.00  0.00    -0.200 NA
ATOM     14  C   UNL d   1     -48.964  28.079  34.341  0.00  0.00     0.280 C 
ATOM     15  O   UNL d   1     -49.207  27.697  35.032  0.00  0.00    -0.265 OA
BRANCH  14  16
ATOM     16  C   UNL d   1     -49.122  27.744  33.581  0.00  0.00     0.062 C 
BRANCH  16  17
ATOM     17  C   UNL d   1     -49.834  27.283  33.490  0.00  0.00     0.005 A 
ATOM     18  C   UNL d   1     -49.774  26.451  33.503  0.00  0.00     0.000 A 
ATOM     19  C   UNL d   1     -50.453  25.976  33.417  0.00  0.00     0.000 A 
ATOM     20  C   UNL d   1     -51.185  26.342  33.319  0.00  0.00     0.000 A 
ATOM     21  C   UNL d   1     -51.235  27.183  33.307  0.00  0.00     0.000 A 
ATOM     22  C   UNL d   1     -50.565  27.649  33.392  0.00  0.00     0.000 A 
ENDBRANCH  16  17
ENDBRANCH  14  16
ENDBRANCH   1  13
TORSDOF 8
ENDMDL
