MODEL 1
REMARK VINA RESULT:      25.7      0.000      0.000
REMARK  6 active torsions:
REMARK  status: ('A' for Active; 'I' for Inactive)
REMARK    1  A    between atoms: N_2  and  S_1 
REMARK    2  A    between atoms: C_5  and  S_1 
REMARK    3  A    between atoms: C_4  and  C_3 
REMARK       I    between atoms: N_6  and  C_4 
REMARK    4  A    between atoms: C_15  and  N_6 
REMARK    5  A    between atoms: C_9  and  C_10 
REMARK    6  A    between atoms: O_20  and  C_9 
ROOT
ATOM      1  N   UNL d   1      46.212 -19.177  43.627  0.00  0.00    -0.226 N 
ATOM      2  C   UNL d   1      46.239 -18.636  44.253  0.00  0.00     0.133 A 
ATOM      3  C   UNL d   1      46.283 -19.936  43.938  0.00  0.00     0.092 A 
ATOM      4  C   UNL d   1      46.328 -19.070  44.952  0.00  0.00     0.025 A 
ATOM      5  C   UNL d   1      46.354 -19.869  44.753  0.00  0.00     0.021 A 
ENDROOT
BRANCH   2   6
ATOM      6  C   UNL d   1      46.188 -17.815  44.188  0.00  0.00     0.296 C 
ATOM      7  N   UNL d   1      45.709 -17.406  44.717  0.00  0.00    -0.207 NA
ATOM      8  O   UNL d   1      46.608 -17.419  43.604  0.00  0.00    -0.264 OA
BRANCH   7   9
ATOM      9  C   UNL d   1      45.656 -16.581  44.654  0.00  0.00     0.085 A 
ATOM     10  C   UNL d   1      44.998 -16.231  44.289  0.00  0.00     0.019 A 
ATOM     11  C   UNL d   1      44.946 -15.414  44.226  0.00  0.00     0.007 A 
ATOM     12  C   UNL d   1      45.550 -14.935  44.528  0.00  0.00     0.063 A 
ATOM     13  C   UNL d   1      46.209 -15.284  44.893  0.00  0.00     0.007 A 
ATOM     14  C   UNL d   1      46.259 -16.109  44.955  0.00  0.00     0.019 A 
BRANCH  12  15
ATOM     15  C   UNL d   1      45.502 -14.119  44.467  0.00  0.00     0.296 C 
ATOM     16  O   UNL d   1      44.822 -13.761  44.154  0.00  0.00    -0.259 OA
BRANCH  15  17
ATOM     17  O   UNL d   1      46.134 -13.643  44.719  0.00  0.00    -0.296 OA
ATOM     18  C   UNL d   1      46.037 -12.828  44.799  0.00  0.00     0.185 C 
ENDBRANCH  15  17
ENDBRANCH  12  15
ENDBRANCH   7   9
ENDBRANCH   2   6
BRANCH   1  19
ATOM     19  S   UNL d   1      46.126 -18.926  42.844  0.00  0.00     0.271 S 
ATOM     20  O   UNL d   1      45.616 -19.563  42.756  0.00  0.00    -0.200 OA
ATOM     21  O   UNL d   1      46.642 -18.285  42.945  0.00  0.00    -0.200 OA
BRANCH  19  22
ATOM     22  C   UNL d   1      46.007 -18.717  42.059  0.00  0.00     0.104 A 
ATOM     23  C   UNL d   1      46.647 -18.490  41.591  0.00  0.00     0.013 A 
ATOM     24  C   UNL d   1      46.523 -18.281  40.803  0.00  0.00     0.001 A 
ATOM     25  C   UNL d   1      45.763 -18.298  40.483  0.00  0.00     0.000 A 
ATOM     26  C   UNL d   1      45.124 -18.526  40.955  0.00  0.00     0.001 A 
ATOM     27  C   UNL d   1      45.639 -18.089  39.695  0.00  0.00     0.000 C 
ATOM     28  C   UNL d   1      45.239 -18.736  41.744  0.00  0.00     0.013 A 
ENDBRANCH  19  22
ENDBRANCH   1  19
TORSDOF 6
ENDMDL
