MODEL 1
REMARK VINA RESULT:      -4.4      0.000      0.000
REMARK  6 active torsions:
REMARK  status: ('A' for Active; 'I' for Inactive)
REMARK    1  A    between atoms: C_9  and  S_1 
REMARK    2  A    between atoms: N_10  and  S_1 
REMARK    3  A    between atoms: C_2  and  N_6 
REMARK       I    between atoms: N_6  and  C_8 
REMARK    4  A    between atoms: C_8  and  C_15 
REMARK    5  A    between atoms: O_24  and  C_13 
REMARK    6  A    between atoms: O_23  and  C_14 
ROOT
ATOM      1  N   UNL d   1      53.955  34.476  54.740  0.00  0.00    -0.183 NA
ATOM      2  C   UNL d   1      54.392  33.798  54.935  0.00  0.00     0.281 C 
ATOM      3  O   UNL d   1      55.030  33.865  55.450  0.00  0.00    -0.265 OA
ENDROOT
BRANCH   1   4
ATOM      4  C   UNL d   1      53.305  34.419  54.219  0.00  0.00     0.197 A 
ATOM      5  N   UNL d   1      52.539  34.196  54.421  0.00  0.00    -0.218 NA
ATOM      6  C   UNL d   1      52.081  34.217  53.739  0.00  0.00     0.114 A 
ATOM      7  C   UNL d   1      51.289  34.054  53.596  0.00  0.00     0.112 A 
ATOM      8  C   UNL d   1      52.567  34.453  53.117  0.00  0.00     0.074 A 
ATOM      9  C   UNL d   1      50.976  34.124  52.836  0.00  0.00     0.028 A 
ATOM     10  C   UNL d   1      51.472  34.363  52.213  0.00  0.00     0.027 A 
ATOM     11  C   UNL d   1      52.261  34.526  52.353  0.00  0.00     0.102 A 
ATOM     12  S   UNL d   1      53.328  34.577  53.424  0.00  0.00    -0.045 SA
BRANCH   7  13
ATOM     13  O   UNL d   1      50.789  33.814  54.222  0.00  0.00    -0.327 OA
ATOM     14  C   UNL d   1      49.985  33.691  54.084  0.00  0.00     0.181 C 
ENDBRANCH   7  13
BRANCH  11  15
ATOM     15  O   UNL d   1      52.761  34.767  51.727  0.00  0.00    -0.328 OA
ATOM     16  C   UNL d   1      52.491  34.729  50.951  0.00  0.00     0.181 C 
ENDBRANCH  11  15
ENDBRANCH   1   4
BRANCH   2  17
ATOM     17  C   UNL d   1      54.180  33.085  54.616  0.00  0.00     0.058 A 
ATOM     18  C   UNL d   1      54.463  32.849  53.884  0.00  0.00     0.005 A 
ATOM     19  C   UNL d   1      54.247  32.125  53.560  0.00  0.00     0.013 A 
ATOM     20  C   UNL d   1      53.736  31.625  53.979  0.00  0.00     0.104 A 
ATOM     21  C   UNL d   1      53.447  31.857  54.718  0.00  0.00     0.013 A 
ATOM     22  C   UNL d   1      53.669  32.585  55.035  0.00  0.00     0.005 A 
BRANCH  20  23
ATOM     23  S   UNL d   1      53.518  30.897  53.657  0.00  0.00     0.271 S 
ATOM     24  O   UNL d   1      53.443  31.252  52.913  0.00  0.00    -0.200 OA
ATOM     25  O   UNL d   1      53.594  30.550  54.400  0.00  0.00    -0.200 OA
BRANCH  23  26
ATOM     26  N   UNL d   1      53.300  30.170  53.340  0.00  0.00    -0.226 N 
ATOM     27  C   UNL d   1      53.434  29.480  53.760  0.00  0.00     0.111 C 
ATOM     28  C   UNL d   1      52.947  30.140  52.597  0.00  0.00     0.111 C 
ENDBRANCH  23  26
ENDBRANCH  20  23
ENDBRANCH   2  17
TORSDOF 6
ENDMDL
MODEL 2
REMARK VINA RESULT:      -3.4      1.387      3.523
REMARK  6 active torsions:
REMARK  status: ('A' for Active; 'I' for Inactive)
REMARK    1  A    between atoms: C_9  and  S_1 
REMARK    2  A    between atoms: N_10  and  S_1 
REMARK    3  A    between atoms: C_2  and  N_6 
REMARK       I    between atoms: N_6  and  C_8 
REMARK    4  A    between atoms: C_8  and  C_15 
REMARK    5  A    between atoms: O_24  and  C_13 
REMARK    6  A    between atoms: O_23  and  C_14 
ROOT
ATOM      1  N   UNL d   1      53.907  34.266  55.452  0.00  0.00    -0.183 NA
ATOM      2  C   UNL d   1      53.287  34.800  55.317  0.00  0.00     0.281 C 
ATOM      3  O   UNL d   1      53.172  35.424  55.840  0.00  0.00    -0.265 OA
ENDROOT
BRANCH   1   4
ATOM      4  C   UNL d   1      54.033  33.629  54.927  0.00  0.00     0.197 A 
ATOM      5  N   UNL d   1      53.654  32.898  54.951  0.00  0.00    -0.218 NA
ATOM      6  C   UNL d   1      53.947  32.442  54.333  0.00  0.00     0.114 A 
ATOM      7  C   UNL d   1      53.782  31.678  54.081  0.00  0.00     0.112 A 
ATOM      8  C   UNL d   1      54.506  32.893  53.930  0.00  0.00     0.074 A 
ATOM      9  C   UNL d   1      54.172  31.358  53.428  0.00  0.00     0.028 A 
ATOM     10  C   UNL d   1      54.735  31.819  53.025  0.00  0.00     0.027 A 
ATOM     11  C   UNL d   1      54.901  32.581  53.275  0.00  0.00     0.102 A 
ATOM     12  S   UNL d   1      54.554  33.631  54.306  0.00  0.00    -0.045 SA
BRANCH   7  13
ATOM     13  O   UNL d   1      53.217  31.214  54.485  0.00  0.00    -0.327 OA
ATOM     14  C   UNL d   1      53.146  30.409  54.315  0.00  0.00     0.181 C 
ENDBRANCH   7  13
BRANCH  11  15
ATOM     15  O   UNL d   1      55.467  33.044  52.871  0.00  0.00    -0.328 OA
ATOM     16  C   UNL d   1      55.937  32.702  52.290  0.00  0.00     0.181 C 
ENDBRANCH  11  15
ENDBRANCH   1   4
BRANCH   2  17
ATOM     17  C   UNL d   1      52.808  34.695  54.673  0.00  0.00     0.058 A 
ATOM     18  C   UNL d   1      52.155  34.201  54.708  0.00  0.00     0.005 A 
ATOM     19  C   UNL d   1      51.669  34.095  54.053  0.00  0.00     0.013 A 
ATOM     20  C   UNL d   1      51.840  34.493  53.347  0.00  0.00     0.104 A 
ATOM     21  C   UNL d   1      52.497  34.994  53.305  0.00  0.00     0.013 A 
ATOM     22  C   UNL d   1      52.979  35.094  53.966  0.00  0.00     0.005 A 
BRANCH  20  23
ATOM     23  S   UNL d   1      51.354  34.390  52.688  0.00  0.00     0.271 S 
ATOM     24  O   UNL d   1      52.015  34.463  52.193  0.00  0.00    -0.200 OA
ATOM     25  O   UNL d   1      50.702  34.318  53.185  0.00  0.00    -0.200 OA
BRANCH  23  26
ATOM     26  N   UNL d   1      50.868  34.286  52.033  0.00  0.00    -0.226 N 
ATOM     27  C   UNL d   1      51.189  34.081  51.309  0.00  0.00     0.111 C 
ATOM     28  C   UNL d   1      50.054  34.390  52.111  0.00  0.00     0.111 C 
ENDBRANCH  23  26
ENDBRANCH  20  23
ENDBRANCH   2  17
TORSDOF 6
ENDMDL
MODEL 3
REMARK VINA RESULT:      -3.4      1.470      3.844
REMARK  6 active torsions:
REMARK  status: ('A' for Active; 'I' for Inactive)
REMARK    1  A    between atoms: C_9  and  S_1 
REMARK    2  A    between atoms: N_10  and  S_1 
REMARK    3  A    between atoms: C_2  and  N_6 
REMARK       I    between atoms: N_6  and  C_8 
REMARK    4  A    between atoms: C_8  and  C_15 
REMARK    5  A    between atoms: O_24  and  C_13 
REMARK    6  A    between atoms: O_23  and  C_14 
ROOT
ATOM      1  N   UNL d   1      53.951  34.424  55.420  0.00  0.00    -0.183 NA
ATOM      2  C   UNL d   1      53.339  34.961  55.259  0.00  0.00     0.281 C 
ATOM      3  O   UNL d   1      53.244  35.619  55.743  0.00  0.00    -0.265 OA
ENDROOT
BRANCH   1   4
ATOM      4  C   UNL d   1      54.056  33.752  54.935  0.00  0.00     0.197 A 
ATOM      5  N   UNL d   1      54.511  33.714  54.249  0.00  0.00    -0.218 NA
ATOM      6  C   UNL d   1      54.457  32.949  53.953  0.00  0.00     0.114 A 
ATOM      7  C   UNL d   1      54.784  32.585  53.293  0.00  0.00     0.112 A 
ATOM      8  C   UNL d   1      53.969  32.518  54.457  0.00  0.00     0.074 A 
ATOM      9  C   UNL d   1      54.629  31.792  53.131  0.00  0.00     0.028 A 
ATOM     10  C   UNL d   1      54.136  31.361  53.645  0.00  0.00     0.027 A 
ATOM     11  C   UNL d   1      53.809  31.722  54.302  0.00  0.00     0.102 A 
ATOM     12  S   UNL d   1      53.724  33.025  55.066  0.00  0.00    -0.045 SA
BRANCH   7  13
ATOM     13  O   UNL d   1      55.280  33.017  52.777  0.00  0.00    -0.327 OA
ATOM     14  C   UNL d   1      55.935  32.652  52.434  0.00  0.00     0.181 C 
ENDBRANCH   7  13
BRANCH  11  15
ATOM     15  O   UNL d   1      53.313  31.290  54.818  0.00  0.00    -0.328 OA
ATOM     16  C   UNL d   1      53.147  30.500  54.661  0.00  0.00     0.181 C 
ENDBRANCH  11  15
ENDBRANCH   1   4
BRANCH   2  17
ATOM     17  C   UNL d   1      52.849  34.825  54.630  0.00  0.00     0.058 A 
ATOM     18  C   UNL d   1      52.176  34.364  54.710  0.00  0.00     0.005 A 
ATOM     19  C   UNL d   1      51.678  34.226  54.071  0.00  0.00     0.013 A 
ATOM     20  C   UNL d   1      51.857  34.559  53.333  0.00  0.00     0.104 A 
ATOM     21  C   UNL d   1      52.535  35.025  53.245  0.00  0.00     0.013 A 
ATOM     22  C   UNL d   1      53.028  35.157  53.892  0.00  0.00     0.005 A 
BRANCH  20  23
ATOM     23  S   UNL d   1      51.360  34.423  52.689  0.00  0.00     0.271 S 
ATOM     24  O   UNL d   1      52.015  34.438  52.183  0.00  0.00    -0.200 OA
ATOM     25  O   UNL d   1      50.712  34.409  53.197  0.00  0.00    -0.200 OA
BRANCH  23  26
ATOM     26  N   UNL d   1      50.861  34.288  52.049  0.00  0.00    -0.226 N 
ATOM     27  C   UNL d   1      51.173  34.118  51.311  0.00  0.00     0.111 C 
ATOM     28  C   UNL d   1      50.045  34.324  52.155  0.00  0.00     0.111 C 
ENDBRANCH  23  26
ENDBRANCH  20  23
ENDBRANCH   2  17
TORSDOF 6
ENDMDL
MODEL 4
REMARK VINA RESULT:      -3.3      1.260      3.120
REMARK  6 active torsions:
REMARK  status: ('A' for Active; 'I' for Inactive)
REMARK    1  A    between atoms: C_9  and  S_1 
REMARK    2  A    between atoms: N_10  and  S_1 
REMARK    3  A    between atoms: C_2  and  N_6 
REMARK       I    between atoms: N_6  and  C_8 
REMARK    4  A    between atoms: C_8  and  C_15 
REMARK    5  A    between atoms: O_24  and  C_13 
REMARK    6  A    between atoms: O_23  and  C_14 
ROOT
ATOM      1  N   UNL d   1      52.452  31.132  52.729  0.00  0.00    -0.183 NA
ATOM      2  C   UNL d   1      53.118  30.909  53.171  0.00  0.00     0.281 C 
ATOM      3  O   UNL d   1      53.366  30.124  53.157  0.00  0.00    -0.265 OA
ENDROOT
BRANCH   1   4
ATOM      4  C   UNL d   1      52.192  31.925  52.736  0.00  0.00     0.197 A 
ATOM      5  N   UNL d   1      52.541  32.554  52.336  0.00  0.00    -0.218 NA
ATOM      6  C   UNL d   1      52.103  33.231  52.498  0.00  0.00     0.114 A 
ATOM      7  C   UNL d   1      52.182  34.013  52.260  0.00  0.00     0.112 A 
ATOM      8  C   UNL d   1      51.485  33.016  52.998  0.00  0.00     0.074 A 
ATOM      9  C   UNL d   1      51.647  34.586  52.518  0.00  0.00     0.028 A 
ATOM     10  C   UNL d   1      51.025  34.363  53.023  0.00  0.00     0.027 A 
ATOM     11  C   UNL d   1      50.945  33.584  53.261  0.00  0.00     0.102 A 
ATOM     12  S   UNL d   1      51.547  32.202  53.142  0.00  0.00    -0.045 SA
BRANCH   7  13
ATOM     13  O   UNL d   1      52.807  34.238  51.753  0.00  0.00    -0.327 OA
ATOM     14  C   UNL d   1      53.136  34.992  51.814  0.00  0.00     0.181 C 
ENDBRANCH   7  13
BRANCH  11  15
ATOM     15  O   UNL d   1      50.320  33.359  53.768  0.00  0.00    -0.328 OA
ATOM     16  C   UNL d   1      49.727  33.899  53.952  0.00  0.00     0.181 C 
ENDBRANCH  11  15
ENDBRANCH   1   4
BRANCH   2  17
ATOM     17  C   UNL d   1      53.510  31.468  53.606  0.00  0.00     0.058 A 
ATOM     18  C   UNL d   1      53.274  31.650  54.370  0.00  0.00     0.005 A 
ATOM     19  C   UNL d   1      53.672  32.218  54.811  0.00  0.00     0.013 A 
ATOM     20  C   UNL d   1      54.321  32.613  54.481  0.00  0.00     0.104 A 
ATOM     21  C   UNL d   1      54.564  32.434  53.711  0.00  0.00     0.013 A 
ATOM     22  C   UNL d   1      54.159  31.863  53.276  0.00  0.00     0.005 A 
BRANCH  20  23
ATOM     23  S   UNL d   1      54.723  33.184  54.921  0.00  0.00     0.271 S 
ATOM     24  O   UNL d   1      54.278  32.979  55.588  0.00  0.00    -0.200 OA
ATOM     25  O   UNL d   1      55.164  33.382  54.254  0.00  0.00    -0.200 OA
BRANCH  23  26
ATOM     26  N   UNL d   1      55.126  33.753  55.356  0.00  0.00    -0.226 N 
ATOM     27  C   UNL d   1      54.886  33.936  56.118  0.00  0.00     0.111 C 
ATOM     28  C   UNL d   1      55.773  34.139  55.022  0.00  0.00     0.111 C 
ENDBRANCH  23  26
ENDBRANCH  20  23
ENDBRANCH   2  17
TORSDOF 6
ENDMDL
MODEL 5
REMARK VINA RESULT:      -3.2      1.516      3.746
REMARK  6 active torsions:
REMARK  status: ('A' for Active; 'I' for Inactive)
REMARK    1  A    between atoms: C_9  and  S_1 
REMARK    2  A    between atoms: N_10  and  S_1 
REMARK    3  A    between atoms: C_2  and  N_6 
REMARK       I    between atoms: N_6  and  C_8 
REMARK    4  A    between atoms: C_8  and  C_15 
REMARK    5  A    between atoms: O_24  and  C_13 
REMARK    6  A    between atoms: O_23  and  C_14 
ROOT
ATOM      1  N   UNL d   1      53.363  30.719  53.647  0.00  0.00    -0.183 NA
ATOM      2  C   UNL d   1      52.610  30.735  53.297  0.00  0.00     0.281 C 
ATOM      3  O   UNL d   1      52.244  30.026  53.096  0.00  0.00    -0.265 OA
ENDROOT
BRANCH   1   4
ATOM      4  C   UNL d   1      53.744  31.432  53.855  0.00  0.00     0.197 A 
ATOM      5  N   UNL d   1      53.575  31.899  54.512  0.00  0.00    -0.218 NA
ATOM      6  C   UNL d   1      54.082  32.545  54.499  0.00  0.00     0.114 A 
ATOM      7  C   UNL d   1      54.174  33.189  55.001  0.00  0.00     0.112 A 
ATOM      8  C   UNL d   1      54.562  32.475  53.833  0.00  0.00     0.074 A 
ATOM      9  C   UNL d   1      54.742  33.766  54.844  0.00  0.00     0.028 A 
ATOM     10  C   UNL d   1      55.224  33.689  54.170  0.00  0.00     0.027 A 
ATOM     11  C   UNL d   1      55.134  33.049  53.669  0.00  0.00     0.102 A 
ATOM     12  S   UNL d   1      54.345  31.779  53.438  0.00  0.00    -0.045 SA
BRANCH   7  13
ATOM     13  O   UNL d   1      53.690  33.267  55.678  0.00  0.00    -0.327 OA
ATOM     14  C   UNL d   1      53.481  34.017  55.951  0.00  0.00     0.181 C 
ENDBRANCH   7  13
BRANCH  11  15
ATOM     15  O   UNL d   1      55.618  32.970  52.992  0.00  0.00    -0.328 OA
ATOM     16  C   UNL d   1      55.938  33.641  52.638  0.00  0.00     0.181 C 
ENDBRANCH  11  15
ENDBRANCH   1   4
BRANCH   2  17
ATOM     17  C   UNL d   1      52.253  31.448  53.161  0.00  0.00     0.058 A 
ATOM     18  C   UNL d   1      52.469  31.914  52.522  0.00  0.00     0.005 A 
ATOM     19  C   UNL d   1      52.105  32.638  52.384  0.00  0.00     0.013 A 
ATOM     20  C   UNL d   1      51.512  32.903  52.898  0.00  0.00     0.104 A 
ATOM     21  C   UNL d   1      51.289  32.438  53.545  0.00  0.00     0.013 A 
ATOM     22  C   UNL d   1      51.659  31.713  53.675  0.00  0.00     0.005 A 
BRANCH  20  23
ATOM     23  S   UNL d   1      51.144  33.630  52.763  0.00  0.00     0.271 S 
ATOM     24  O   UNL d   1      50.587  33.454  53.350  0.00  0.00    -0.200 OA
ATOM     25  O   UNL d   1      51.702  33.799  52.181  0.00  0.00    -0.200 OA
BRANCH  23  26
ATOM     26  N   UNL d   1      50.781  34.355  52.626  0.00  0.00    -0.226 N 
ATOM     27  C   UNL d   1      50.151  34.408  52.106  0.00  0.00     0.111 C 
ATOM     28  C   UNL d   1      51.055  35.027  53.015  0.00  0.00     0.111 C 
ENDBRANCH  23  26
ENDBRANCH  20  23
ENDBRANCH   2  17
TORSDOF 6
ENDMDL
MODEL 6
REMARK VINA RESULT:      -2.5      1.390      3.163
REMARK  6 active torsions:
REMARK  status: ('A' for Active; 'I' for Inactive)
REMARK    1  A    between atoms: C_9  and  S_1 
REMARK    2  A    between atoms: N_10  and  S_1 
REMARK    3  A    between atoms: C_2  and  N_6 
REMARK       I    between atoms: N_6  and  C_8 
REMARK    4  A    between atoms: C_8  and  C_15 
REMARK    5  A    between atoms: O_24  and  C_13 
REMARK    6  A    between atoms: O_23  and  C_14 
ROOT
ATOM      1  N   UNL d   1      52.108  34.363  52.818  0.00  0.00    -0.183 NA
ATOM      2  C   UNL d   1      51.648  33.736  52.528  0.00  0.00     0.281 C 
ATOM      3  O   UNL d   1      50.998  33.901  52.051  0.00  0.00    -0.265 OA
ENDROOT
BRANCH   1   4
ATOM      4  C   UNL d   1      52.770  34.208  53.303  0.00  0.00     0.197 A 
ATOM      5  N   UNL d   1      53.501  33.923  53.050  0.00  0.00    -0.218 NA
ATOM      6  C   UNL d   1      53.985  33.853  53.710  0.00  0.00     0.114 A 
ATOM      7  C   UNL d   1      54.762  33.603  53.804  0.00  0.00     0.112 A 
ATOM      8  C   UNL d   1      53.552  34.095  54.368  0.00  0.00     0.074 A 
ATOM      9  C   UNL d   1      55.112  33.591  54.551  0.00  0.00     0.028 A 
ATOM     10  C   UNL d   1      54.669  33.836  55.211  0.00  0.00     0.027 A 
ATOM     11  C   UNL d   1      53.895  34.086  55.120  0.00  0.00     0.102 A 
ATOM     12  S   UNL d   1      52.796  34.314  54.105  0.00  0.00    -0.045 SA
BRANCH   7  13
ATOM     13  O   UNL d   1      55.208  33.357  53.142  0.00  0.00    -0.327 OA
ATOM     14  C   UNL d   1      55.939  32.988  53.251  0.00  0.00     0.181 C 
ENDBRANCH   7  13
BRANCH  11  15
ATOM     15  O   UNL d   1      53.449  34.332  55.782  0.00  0.00    -0.328 OA
ATOM     16  C   UNL d   1      53.787  34.833  56.340  0.00  0.00     0.181 C 
ENDBRANCH  11  15
ENDBRANCH   1   4
BRANCH   2  17
ATOM     17  C   UNL d   1      51.849  32.976  52.720  0.00  0.00     0.058 A 
ATOM     18  C   UNL d   1      51.554  32.620  53.397  0.00  0.00     0.005 A 
ATOM     19  C   UNL d   1      51.759  31.848  53.591  0.00  0.00     0.013 A 
ATOM     20  C   UNL d   1      52.271  31.422  53.098  0.00  0.00     0.104 A 
ATOM     21  C   UNL d   1      52.572  31.776  52.413  0.00  0.00     0.013 A 
ATOM     22  C   UNL d   1      52.361  32.551  52.226  0.00  0.00     0.005 A 
BRANCH  20  23
ATOM     23  S   UNL d   1      52.478  30.647  53.290  0.00  0.00     0.271 S 
ATOM     24  O   UNL d   1      51.722  30.526  53.606  0.00  0.00    -0.200 OA
ATOM     25  O   UNL d   1      53.228  30.773  52.974  0.00  0.00    -0.200 OA
BRANCH  23  26
ATOM     26  N   UNL d   1      52.688  29.875  53.480  0.00  0.00    -0.226 N 
ATOM     27  C   UNL d   1      53.386  29.724  53.880  0.00  0.00     0.111 C 
ATOM     28  C   UNL d   1      52.192  29.254  53.265  0.00  0.00     0.111 C 
ENDBRANCH  23  26
ENDBRANCH  20  23
ENDBRANCH   2  17
TORSDOF 6
ENDMDL
MODEL 7
REMARK VINA RESULT:      -1.7      1.533      4.345
REMARK  6 active torsions:
REMARK  status: ('A' for Active; 'I' for Inactive)
REMARK    1  A    between atoms: C_9  and  S_1 
REMARK    2  A    between atoms: N_10  and  S_1 
REMARK    3  A    between atoms: C_2  and  N_6 
REMARK       I    between atoms: N_6  and  C_8 
REMARK    4  A    between atoms: C_8  and  C_15 
REMARK    5  A    between atoms: O_24  and  C_13 
REMARK    6  A    between atoms: O_23  and  C_14 
ROOT
ATOM      1  N   UNL d   1      51.585  32.818  52.000  0.00  0.00    -0.183 NA
ATOM      2  C   UNL d   1      51.329  33.585  52.183  0.00  0.00     0.281 C 
ATOM      3  O   UNL d   1      50.712  33.917  51.751  0.00  0.00    -0.265 OA
ENDROOT
BRANCH   1   4
ATOM      4  C   UNL d   1      52.210  32.471  52.432  0.00  0.00     0.197 A 
ATOM      5  N   UNL d   1      52.993  32.728  52.443  0.00  0.00    -0.218 NA
ATOM      6  C   UNL d   1      53.415  32.226  52.940  0.00  0.00     0.114 A 
ATOM      7  C   UNL d   1      54.204  32.205  53.166  0.00  0.00     0.112 A 
ATOM      8  C   UNL d   1      52.891  31.663  53.233  0.00  0.00     0.074 A 
ATOM      9  C   UNL d   1      54.477  31.624  53.684  0.00  0.00     0.028 A 
ATOM     10  C   UNL d   1      53.942  31.057  53.977  0.00  0.00     0.027 A 
ATOM     11  C   UNL d   1      53.156  31.077  53.752  0.00  0.00     0.102 A 
ATOM     12  S   UNL d   1      52.143  31.822  52.912  0.00  0.00    -0.045 SA
BRANCH   7  13
ATOM     13  O   UNL d   1      54.742  32.774  52.873  0.00  0.00    -0.327 OA
ATOM     14  C   UNL d   1      55.454  32.909  53.267  0.00  0.00     0.181 C 
ENDBRANCH   7  13
BRANCH  11  15
ATOM     15  O   UNL d   1      52.618  30.508  54.045  0.00  0.00    -0.328 OA
ATOM     16  C   UNL d   1      52.894  29.773  54.292  0.00  0.00     0.181 C 
ENDBRANCH  11  15
ENDBRANCH   1   4
BRANCH   2  17
ATOM     17  C   UNL d   1      51.690  33.991  52.782  0.00  0.00     0.058 A 
ATOM     18  C   UNL d   1      51.471  33.875  53.563  0.00  0.00     0.005 A 
ATOM     19  C   UNL d   1      51.839  34.287  54.172  0.00  0.00     0.013 A 
ATOM     20  C   UNL d   1      52.440  34.830  53.994  0.00  0.00     0.104 A 
ATOM     21  C   UNL d   1      52.666  34.952  53.208  0.00  0.00     0.013 A 
ATOM     22  C   UNL d   1      52.291  34.533  52.605  0.00  0.00     0.005 A 
BRANCH  20  23
ATOM     23  S   UNL d   1      52.812  35.246  54.603  0.00  0.00     0.271 S 
ATOM     24  O   UNL d   1      52.861  35.912  54.113  0.00  0.00    -0.200 OA
ATOM     25  O   UNL d   1      52.760  34.580  55.085  0.00  0.00    -0.200 OA
BRANCH  23  26
ATOM     26  N   UNL d   1      53.182  35.658  55.211  0.00  0.00    -0.226 N 
ATOM     27  C   UNL d   1      53.142  36.475  55.239  0.00  0.00     0.111 C 
ATOM     28  C   UNL d   1      53.592  35.243  55.792  0.00  0.00     0.111 C 
ENDBRANCH  23  26
ENDBRANCH  20  23
ENDBRANCH   2  17
TORSDOF 6
ENDMDL
