MODEL 1
REMARK VINA RESULT:      -8.4      0.000      0.000
REMARK  3 active torsions:
REMARK  status: ('A' for Active; 'I' for Inactive)
REMARK    1  A    between atoms: C_5  and  N_1 
REMARK    2  A    between atoms: C_13  and  C_6 
REMARK    3  A    between atoms: O_24  and  C_19 
ROOT
ATOM      1  N   UNL d   1      53.262  34.089  54.103  0.00  0.00    -0.256 N 
ATOM      2  C   UNL d   1      52.887  32.880  53.655  0.00  0.00     0.083 A 
ATOM      3  C   UNL d   1      53.626  32.805  54.009  0.00  0.00     0.161 A 
ATOM      4  C   UNL d   1      53.863  33.550  54.288  0.00  0.00     0.289 A 
ATOM      5  C   UNL d   1      52.659  33.673  53.711  0.00  0.00     0.075 A 
ATOM      6  C   UNL d   1      52.513  32.223  53.326  0.00  0.00     0.201 A 
ATOM      7  O   UNL d   1      53.997  32.061  54.035  0.00  0.00    -0.302 OA
ATOM      8  C   UNL d   1      52.884  31.488  53.354  0.00  0.00     0.063 A 
ATOM      9  C   UNL d   1      53.623  31.409  53.707  0.00  0.00     0.103 A 
ATOM     10  O   UNL d   1      54.563  33.724  54.676  0.00  0.00    -0.264 OA
ATOM     11  O   UNL d   1      51.774  32.298  52.973  0.00  0.00    -0.286 OA
ATOM     12  C   UNL d   1      52.509  30.827  53.024  0.00  0.00     0.017 A 
ATOM     13  C   UNL d   1      53.991  30.661  53.731  0.00  0.00     0.026 A 
ATOM     14  C   UNL d   1      52.873  30.092  53.048  0.00  0.00     0.058 A 
ATOM     15  C   UNL d   1      53.616  30.009  53.402  0.00  0.00     0.013 A 
ATOM     16 CL   UNL d   1      52.503  29.438  52.722  0.00  0.00    -0.082 Cl
ENDROOT
BRANCH   5  17
ATOM     17  C   UNL d   1      51.919  33.752  53.358  0.00  0.00     0.039 A 
ATOM     18  C   UNL d   1      51.851  34.039  52.585  0.00  0.00     0.096 A 
ATOM     19  C   UNL d   1      51.111  34.116  52.236  0.00  0.00     0.024 A 
ATOM     20  C   UNL d   1      50.426  33.907  52.658  0.00  0.00     0.002 A 
ATOM     21  C   UNL d   1      50.493  33.620  53.431  0.00  0.00     0.000 A 
ATOM     22  C   UNL d   1      51.243  33.544  53.780  0.00  0.00     0.003 A 
BRANCH  18  23
ATOM     23  O   UNL d   1      52.534  34.245  52.172  0.00  0.00    -0.328 OA
ATOM     24  C   UNL d   1      52.471  34.571  51.418  0.00  0.00     0.181 C 
ENDBRANCH  18  23
ENDBRANCH   5  17
BRANCH   1  25
ATOM     25  C   UNL d   1      53.261  34.894  54.276  0.00  0.00     0.179 A 
ATOM     26  N   UNL d   1      53.656  35.478  53.860  0.00  0.00    -0.108 NA
ATOM     27  O   UNL d   1      53.503  36.201  54.222  0.00  0.00    -0.210 OA
ATOM     28  C   UNL d   1      53.011  36.061  54.867  0.00  0.00     0.128 A 
ATOM     29  C   UNL d   1      52.858  35.253  54.904  0.00  0.00     0.067 A 
ATOM     30  C   UNL d   1      52.718  36.630  55.389  0.00  0.00     0.029 C 
ENDBRANCH   1  25
TORSDOF 3
ENDMDL
MODEL 2
REMARK VINA RESULT:      -7.5      1.316      2.591
REMARK  3 active torsions:
REMARK  status: ('A' for Active; 'I' for Inactive)
REMARK    1  A    between atoms: C_5  and  N_1 
REMARK    2  A    between atoms: C_13  and  C_6 
REMARK    3  A    between atoms: O_24  and  C_19 
ROOT
ATOM      1  N   UNL d   1      52.660  33.125  53.279  0.00  0.00    -0.256 N 
ATOM      2  C   UNL d   1      53.114  31.938  53.713  0.00  0.00     0.083 A 
ATOM      3  C   UNL d   1      52.523  31.800  53.157  0.00  0.00     0.161 A 
ATOM      4  C   UNL d   1      52.239  32.531  52.886  0.00  0.00     0.289 A 
ATOM      5  C   UNL d   1      53.202  32.757  53.792  0.00  0.00     0.075 A 
ATOM      6  C   UNL d   1      53.499  31.308  54.080  0.00  0.00     0.201 A 
ATOM      7  O   UNL d   1      52.314  31.018  52.964  0.00  0.00    -0.302 OA
ATOM      8  C   UNL d   1      53.289  30.535  53.886  0.00  0.00     0.063 A 
ATOM      9  C   UNL d   1      52.699  30.392  53.330  0.00  0.00     0.103 A 
ATOM     10  O   UNL d   1      51.650  32.646  52.329  0.00  0.00    -0.264 OA
ATOM     11  O   UNL d   1      54.089  31.446  54.635  0.00  0.00    -0.286 OA
ATOM     12  C   UNL d   1      53.675  29.900  54.252  0.00  0.00     0.017 A 
ATOM     13  C   UNL d   1      52.493  29.607  53.139  0.00  0.00     0.026 A 
ATOM     14  C   UNL d   1      53.471  29.128  54.064  0.00  0.00     0.058 A 
ATOM     15  C   UNL d   1      52.878  28.981  53.506  0.00  0.00     0.013 A 
ATOM     16 CL   UNL d   1      53.852  28.501  54.426  0.00  0.00    -0.082 Cl
ENDROOT
BRANCH   5  17
ATOM     17  C   UNL d   1      53.792  32.900  54.347  0.00  0.00     0.039 A 
ATOM     18  C   UNL d   1      54.568  33.053  54.106  0.00  0.00     0.096 A 
ATOM     19  C   UNL d   1      55.155  33.195  54.664  0.00  0.00     0.024 A 
ATOM     20  C   UNL d   1      54.972  33.185  55.475  0.00  0.00     0.002 A 
ATOM     21  C   UNL d   1      54.196  33.032  55.718  0.00  0.00     0.000 A 
ATOM     22  C   UNL d   1      53.606  32.889  55.150  0.00  0.00     0.003 A 
BRANCH  18  23
ATOM     23  O   UNL d   1      54.744  33.061  53.301  0.00  0.00    -0.328 OA
ATOM     24  C   UNL d   1      55.510  33.236  53.053  0.00  0.00     0.181 C 
ENDBRANCH  18  23
ENDBRANCH   5  17
BRANCH   1  25
ATOM     25  C   UNL d   1      52.561  33.936  53.182  0.00  0.00     0.179 A 
ATOM     26  N   UNL d   1      52.810  34.380  52.541  0.00  0.00    -0.108 NA
ATOM     27  O   UNL d   1      52.599  35.165  52.673  0.00  0.00    -0.210 OA
ATOM     28  C   UNL d   1      52.217  35.204  53.400  0.00  0.00     0.128 A 
ATOM     29  C   UNL d   1      52.191  34.446  53.720  0.00  0.00     0.067 A 
ATOM     30  C   UNL d   1      51.910  35.885  53.753  0.00  0.00     0.029 C 
ENDBRANCH   1  25
TORSDOF 3
ENDMDL
MODEL 3
REMARK VINA RESULT:      -7.1      1.987      4.278
REMARK  3 active torsions:
REMARK  status: ('A' for Active; 'I' for Inactive)
REMARK    1  A    between atoms: C_5  and  N_1 
REMARK    2  A    between atoms: C_13  and  C_6 
REMARK    3  A    between atoms: O_24  and  C_19 
ROOT
ATOM      1  N   UNL d   1      53.027  31.208  53.548  0.00  0.00    -0.256 N 
ATOM      2  C   UNL d   1      52.605  32.481  53.596  0.00  0.00     0.083 A 
ATOM      3  C   UNL d   1      52.072  32.050  53.139  0.00  0.00     0.161 A 
ATOM      4  C   UNL d   1      52.329  31.262  53.106  0.00  0.00     0.289 A 
ATOM      5  C   UNL d   1      53.197  31.963  53.851  0.00  0.00     0.075 A 
ATOM      6  C   UNL d   1      52.488  33.287  53.724  0.00  0.00     0.201 A 
ATOM      7  O   UNL d   1      51.413  32.432  52.805  0.00  0.00    -0.302 OA
ATOM      8  C   UNL d   1      51.833  33.662  53.392  0.00  0.00     0.063 A 
ATOM      9  C   UNL d   1      51.299  33.234  52.934  0.00  0.00     0.103 A 
ATOM     10  O   UNL d   1      51.962  30.647  52.709  0.00  0.00    -0.264 OA
ATOM     11  O   UNL d   1      53.019  33.717  54.181  0.00  0.00    -0.286 OA
ATOM     12  C   UNL d   1      51.714  34.471  53.520  0.00  0.00     0.017 A 
ATOM     13  C   UNL d   1      50.639  33.621  52.602  0.00  0.00     0.026 A 
ATOM     14  C   UNL d   1      51.064  34.850  53.192  0.00  0.00     0.058 A 
ATOM     15  C   UNL d   1      50.525  34.424  52.732  0.00  0.00     0.013 A 
ATOM     16 CL   UNL d   1      50.946  35.650  53.319  0.00  0.00    -0.082 Cl
ENDROOT
BRANCH   5  17
ATOM     17  C   UNL d   1      53.731  32.390  54.308  0.00  0.00     0.039 A 
ATOM     18  C   UNL d   1      54.417  32.705  53.970  0.00  0.00     0.096 A 
ATOM     19  C   UNL d   1      54.948  33.132  54.430  0.00  0.00     0.024 A 
ATOM     20  C   UNL d   1      54.799  33.249  55.240  0.00  0.00     0.002 A 
ATOM     21  C   UNL d   1      54.114  32.934  55.580  0.00  0.00     0.000 A 
ATOM     22  C   UNL d   1      53.579  32.504  55.110  0.00  0.00     0.003 A 
BRANCH  18  23
ATOM     23  O   UNL d   1      54.560  32.586  53.167  0.00  0.00    -0.328 OA
ATOM     24  C   UNL d   1      55.257  32.868  52.830  0.00  0.00     0.181 C 
ENDBRANCH  18  23
ENDBRANCH   5  17
BRANCH   1  25
ATOM     25  C   UNL d   1      53.475  30.528  53.667  0.00  0.00     0.179 A 
ATOM     26  N   UNL d   1      54.147  30.312  53.252  0.00  0.00    -0.108 NA
ATOM     27  O   UNL d   1      54.417  29.594  53.552  0.00  0.00    -0.210 OA
ATOM     28  C   UNL d   1      53.907  29.366  54.156  0.00  0.00     0.128 A 
ATOM     29  C   UNL d   1      53.322  29.941  54.231  0.00  0.00     0.067 A 
ATOM     30  C   UNL d   1      53.967  28.680  54.611  0.00  0.00     0.029 C 
ENDBRANCH   1  25
TORSDOF 3
ENDMDL
