MODEL 1
REMARK VINA RESULT:      -9.7      0.000      0.000
REMARK  5 active torsions:
REMARK  status: ('A' for Active; 'I' for Inactive)
REMARK    1  A    between atoms: S_14  and  C_7 
REMARK       I    between atoms: N_10  and  C_13 
REMARK    2  A    between atoms: C_26  and  C_11 
REMARK    3  A    between atoms: C_22  and  N_12 
REMARK    4  A    between atoms: C_13  and  C_17 
REMARK    5  A    between atoms: C_17  and  S_14 
ROOT
ATOM      1  N   UNL d   1      52.869  31.892  53.170  0.00  0.00    -0.224 N 
ATOM      2  N   UNL d   1      53.735  32.754  53.927  0.00  0.00    -0.241 N 
ATOM      3  C   UNL d   1      53.552  32.005  53.636  0.00  0.00     0.343 A 
ATOM      4  C   UNL d   1      53.235  33.392  53.752  0.00  0.00     0.160 A 
ATOM      5  C   UNL d   1      52.374  32.531  52.999  0.00  0.00     0.273 A 
ATOM      6  C   UNL d   1      52.558  33.281  53.291  0.00  0.00     0.115 A 
ATOM      7  C   UNL d   1      52.063  33.919  53.120  0.00  0.00     0.120 A 
ATOM      8  N   UNL d   1      53.416  34.150  54.044  0.00  0.00    -0.209 NA
ATOM      9  N   UNL d   1      52.243  34.668  53.409  0.00  0.00    -0.220 NA
ATOM     10  C   UNL d   1      52.922  34.788  53.874  0.00  0.00     0.165 A 
ATOM     11  O   UNL d   1      54.047  31.362  53.805  0.00  0.00    -0.245 OA
ATOM     12  O   UNL d   1      51.699  32.415  52.538  0.00  0.00    -0.266 OA
ATOM     13  C   UNL d   1      52.692  31.143  52.883  0.00  0.00     0.107 C 
ATOM     14  C   UNL d   1      54.412  32.866  54.388  0.00  0.00     0.105 C 
ENDROOT
BRANCH   7  15
ATOM     15  S   UNL d   1      51.388  33.804  52.659  0.00  0.00    -0.062 SA
BRANCH  15  16
ATOM     16  C   UNL d   1      50.762  34.344  52.698  0.00  0.00     0.098 C 
BRANCH  16  17
ATOM     17  C   UNL d   1      50.218  34.394  52.081  0.00  0.00     0.272 C 
ATOM     18  N   UNL d   1      49.499  34.777  52.182  0.00  0.00    -0.269 N 
ATOM     19  C   UNL d   1      49.319  35.118  52.917  0.00  0.00     0.102 A 
ATOM     20  C   UNL d   1      48.961  34.824  51.567  0.00  0.00     0.102 A 
ATOM     21  C   UNL d   1      48.597  35.501  53.013  0.00  0.00     0.100 A 
ATOM     22  N   UNL d   1      48.057  35.550  52.397  0.00  0.00    -0.301 N 
ATOM     23  C   UNL d   1      48.242  35.207  51.668  0.00  0.00     0.100 A 
ATOM     24  O   UNL d   1      50.400  34.052  51.350  0.00  0.00    -0.266 OA
BRANCH  22  25
ATOM     25  C   UNL d   1      47.338  35.933  52.498  0.00  0.00     0.064 A 
ATOM     26  C   UNL d   1      46.781  35.948  51.895  0.00  0.00     0.018 A 
ATOM     27  C   UNL d   1      46.055  36.333  51.992  0.00  0.00     0.002 A 
ATOM     28  C   UNL d   1      45.885  36.709  52.708  0.00  0.00     0.000 A 
ATOM     29  C   UNL d   1      46.451  36.694  53.323  0.00  0.00     0.002 A 
ATOM     30  C   UNL d   1      47.161  36.311  53.211  0.00  0.00     0.018 A 
ENDBRANCH  22  25
ENDBRANCH  16  17
ENDBRANCH  15  16
ENDBRANCH   7  15
BRANCH  10  31
ATOM     31  C   UNL d   1      53.100  35.542  54.163  0.00  0.00     0.039 C 
ATOM     32  C   UNL d   1      52.862  35.764  54.922  0.00  0.00     0.003 C 
ENDBRANCH  10  31
TORSDOF 5
ENDMDL
MODEL 2
REMARK VINA RESULT:      -8.6      0.958      2.018
REMARK  5 active torsions:
REMARK  status: ('A' for Active; 'I' for Inactive)
REMARK    1  A    between atoms: S_14  and  C_7 
REMARK       I    between atoms: N_10  and  C_13 
REMARK    2  A    between atoms: C_26  and  C_11 
REMARK    3  A    between atoms: C_22  and  N_12 
REMARK    4  A    between atoms: C_13  and  C_17 
REMARK    5  A    between atoms: C_17  and  S_14 
ROOT
ATOM      1  N   UNL d   1      53.274  34.841  54.281  0.00  0.00    -0.224 N 
ATOM      2  N   UNL d   1      53.630  33.471  54.535  0.00  0.00    -0.241 N 
ATOM      3  C   UNL d   1      53.732  34.275  54.690  0.00  0.00     0.343 A 
ATOM      4  C   UNL d   1      53.070  33.233  53.972  0.00  0.00     0.160 A 
ATOM      5  C   UNL d   1      52.718  34.598  53.722  0.00  0.00     0.273 A 
ATOM      6  C   UNL d   1      52.617  33.794  53.567  0.00  0.00     0.115 A 
ATOM      7  C   UNL d   1      52.061  33.551  53.007  0.00  0.00     0.120 A 
ATOM      8  N   UNL d   1      52.964  32.423  53.812  0.00  0.00    -0.209 NA
ATOM      9  N   UNL d   1      51.957  32.750  52.850  0.00  0.00    -0.220 NA
ATOM     10  C   UNL d   1      52.409  32.180  53.253  0.00  0.00     0.165 A 
ATOM     11  O   UNL d   1      54.289  34.521  55.251  0.00  0.00    -0.245 OA
ATOM     12  O   UNL d   1      52.267  35.161  53.320  0.00  0.00    -0.266 OA
ATOM     13  C   UNL d   1      53.380  35.639  54.441  0.00  0.00     0.107 C 
ATOM     14  C   UNL d   1      54.083  32.910  54.939  0.00  0.00     0.105 C 
ENDROOT
BRANCH   7  15
ATOM     15  S   UNL d   1      51.610  34.114  52.605  0.00  0.00    -0.062 SA
BRANCH  15  16
ATOM     16  C   UNL d   1      50.784  34.068  52.616  0.00  0.00     0.098 C 
BRANCH  16  17
ATOM     17  C   UNL d   1      50.347  34.284  51.951  0.00  0.00     0.272 C 
ATOM     18  N   UNL d   1      49.621  34.659  52.025  0.00  0.00    -0.269 N 
ATOM     19  C   UNL d   1      49.323  34.822  52.784  0.00  0.00     0.102 A 
ATOM     20  C   UNL d   1      49.191  34.872  51.363  0.00  0.00     0.102 A 
ATOM     21  C   UNL d   1      48.595  35.197  52.853  0.00  0.00     0.100 A 
ATOM     22  N   UNL d   1      48.162  35.412  52.189  0.00  0.00    -0.301 N 
ATOM     23  C   UNL d   1      48.464  35.246  51.438  0.00  0.00     0.100 A 
ATOM     24  O   UNL d   1      50.647  34.120  51.197  0.00  0.00    -0.266 OA
BRANCH  22  25
ATOM     25  C   UNL d   1      47.435  35.787  52.264  0.00  0.00     0.064 A 
ATOM     26  C   UNL d   1      46.825  35.630  51.738  0.00  0.00     0.018 A 
ATOM     27  C   UNL d   1      46.091  36.006  51.810  0.00  0.00     0.002 A 
ATOM     28  C   UNL d   1      45.968  36.549  52.420  0.00  0.00     0.000 A 
ATOM     29  C   UNL d   1      46.589  36.709  52.957  0.00  0.00     0.002 A 
ATOM     30  C   UNL d   1      47.306  36.330  52.872  0.00  0.00     0.018 A 
ENDBRANCH  22  25
ENDBRANCH  16  17
ENDBRANCH  15  16
ENDBRANCH   7  15
BRANCH  10  31
ATOM     31  C   UNL d   1      52.303  31.375  53.093  0.00  0.00     0.039 C 
ATOM     32  C   UNL d   1      52.945  30.906  52.873  0.00  0.00     0.003 C 
ENDBRANCH  10  31
TORSDOF 5
ENDMDL
