MODEL 1
REMARK VINA RESULT:      -8.5      0.000      0.000
REMARK  8 active torsions:
REMARK  status: ('A' for Active; 'I' for Inactive)
REMARK    1  A    between atoms: C_25  and  N_5 
REMARK    2  A    between atoms: C_11  and  C_6 
REMARK       I    between atoms: N_15  and  C_11 
REMARK    3  A    between atoms: C_26  and  N_15 
REMARK    4  A    between atoms: C_17  and  C_26 
REMARK    5  A    between atoms: C_30  and  C_25 
REMARK    6  A    between atoms: O_29  and  C_30 
REMARK    7  A    between atoms: C_32  and  O_29 
REMARK    8  A    between atoms: C_31  and  C_32 
ROOT
ATOM      1  C   UNL d   1      52.433  33.468  53.822  0.00  0.00     0.155 A 
ATOM      2  C   UNL d   1      52.379  34.284  53.711  0.00  0.00     0.091 A 
ATOM      3  N   UNL d   1      53.064  33.152  54.259  0.00  0.00    -0.210 NA
ATOM      4  N   UNL d   1      53.582  34.467  54.468  0.00  0.00    -0.258 N 
ATOM      5  N   UNL d   1      51.868  32.970  53.506  0.00  0.00    -0.272 N 
ATOM      6  C   UNL d   1      51.180  34.089  52.957  0.00  0.00     0.094 A 
ATOM      7  C   UNL d   1      53.636  33.651  54.579  0.00  0.00     0.152 A 
ATOM      8  C   UNL d   1      52.956  34.788  54.035  0.00  0.00     0.269 A 
ATOM      9  C   UNL d   1      51.234  33.273  53.069  0.00  0.00     0.175 A 
ATOM     10  C   UNL d   1      51.751  34.600  53.276  0.00  0.00     0.016 A 
ATOM     11  C   UNL d   1      54.261  33.334  55.011  0.00  0.00     0.035 A 
ATOM     12  C   UNL d   1      54.152  34.978  54.787  0.00  0.00     0.084 A 
ATOM     13  N   UNL d   1      50.663  32.775  52.748  0.00  0.00    -0.128 N 
ATOM     14  O   UNL d   1      52.895  35.611  53.918  0.00  0.00    -0.266 OA
ATOM     15  C   UNL d   1      54.778  34.648  55.221  0.00  0.00     0.019 A 
ATOM     16  C   UNL d   1      54.832  33.833  55.332  0.00  0.00     0.005 A 
ATOM     17  C   UNL d   1      54.314  32.523  55.122  0.00  0.00     0.003 C 
ENDROOT
BRANCH   6  18
ATOM     18  C   UNL d   1      50.544  34.405  52.518  0.00  0.00     0.282 C 
ATOM     19  N   UNL d   1      49.923  34.775  52.912  0.00  0.00    -0.204 NA
ATOM     20  O   UNL d   1      50.545  34.342  51.696  0.00  0.00    -0.265 OA
BRANCH  19  21
ATOM     21  C   UNL d   1      49.294  35.088  52.478  0.00  0.00     0.127 C 
BRANCH  21  22
ATOM     22  C   UNL d   1      48.717  35.540  52.851  0.00  0.00     0.119 A 
ATOM     23  O   UNL d   1      48.807  35.946  53.564  0.00  0.00    -0.304 OA
ATOM     24  C   UNL d   1      48.097  36.327  53.737  0.00  0.00     0.123 A 
ATOM     25  C   UNL d   1      47.562  36.158  53.130  0.00  0.00     0.029 A 
ATOM     26  C   UNL d   1      47.954  35.669  52.583  0.00  0.00     0.028 A 
ENDBRANCH  21  22
ENDBRANCH  19  21
ENDBRANCH   6  18
BRANCH   5  27
ATOM     27  C   UNL d   1      51.922  32.154  53.617  0.00  0.00     0.110 C 
BRANCH  27  28
ATOM     28  C   UNL d   1      52.197  31.672  53.004  0.00  0.00     0.142 C 
BRANCH  28  29
ATOM     29  O   UNL d   1      52.144  30.851  53.063  0.00  0.00    -0.298 OA
BRANCH  29  30
ATOM     30  C   UNL d   1      52.822  30.393  52.975  0.00  0.00     0.168 C 
BRANCH  30  31
ATOM     31  C   UNL d   1      52.787  29.570  53.050  0.00  0.00     0.261 C 
ATOM     32  O   UNL d   1      53.056  29.212  53.743  0.00  0.00    -0.281 OA
ENDBRANCH  30  31
ENDBRANCH  29  30
ENDBRANCH  28  29
ENDBRANCH  27  28
ENDBRANCH   5  27
TORSDOF 8
ENDMDL
MODEL 2
REMARK VINA RESULT:      -6.2      1.343      4.797
REMARK  8 active torsions:
REMARK  status: ('A' for Active; 'I' for Inactive)
REMARK    1  A    between atoms: C_25  and  N_5 
REMARK    2  A    between atoms: C_11  and  C_6 
REMARK       I    between atoms: N_15  and  C_11 
REMARK    3  A    between atoms: C_26  and  N_15 
REMARK    4  A    between atoms: C_17  and  C_26 
REMARK    5  A    between atoms: C_30  and  C_25 
REMARK    6  A    between atoms: O_29  and  C_30 
REMARK    7  A    between atoms: C_32  and  O_29 
REMARK    8  A    between atoms: C_31  and  C_32 
ROOT
ATOM      1  C   UNL d   1      52.921  33.424  53.636  0.00  0.00     0.155 A 
ATOM      2  C   UNL d   1      53.470  32.959  54.040  0.00  0.00     0.091 A 
ATOM      3  N   UNL d   1      52.875  34.238  53.793  0.00  0.00    -0.210 NA
ATOM      4  N   UNL d   1      53.923  34.115  54.756  0.00  0.00    -0.258 N 
ATOM      5  N   UNL d   1      52.424  33.089  53.082  0.00  0.00    -0.272 N 
ATOM      6  C   UNL d   1      53.008  31.813  53.320  0.00  0.00     0.094 A 
ATOM      7  C   UNL d   1      53.375  34.580  54.351  0.00  0.00     0.152 A 
ATOM      8  C   UNL d   1      53.975  33.305  54.604  0.00  0.00     0.269 A 
ATOM      9  C   UNL d   1      52.460  32.278  52.916  0.00  0.00     0.175 A 
ATOM     10  C   UNL d   1      53.516  32.148  53.885  0.00  0.00     0.016 A 
ATOM     11  C   UNL d   1      53.326  35.388  54.504  0.00  0.00     0.035 A 
ATOM     12  C   UNL d   1      54.431  34.450  55.319  0.00  0.00     0.084 A 
ATOM     13  N   UNL d   1      51.961  31.936  52.359  0.00  0.00    -0.128 N 
ATOM     14  O   UNL d   1      54.526  32.828  55.008  0.00  0.00    -0.266 OA
ATOM     15  C   UNL d   1      54.374  35.264  55.467  0.00  0.00     0.019 A 
ATOM     16  C   UNL d   1      53.826  35.730  55.062  0.00  0.00     0.005 A 
ATOM     17  C   UNL d   1      52.781  35.850  54.102  0.00  0.00     0.003 C 
ENDROOT
BRANCH   6  18
ATOM     18  C   UNL d   1      53.053  30.995  53.161  0.00  0.00     0.282 C 
ATOM     19  N   UNL d   1      53.074  30.459  53.786  0.00  0.00    -0.204 NA
ATOM     20  O   UNL d   1      53.076  30.732  52.379  0.00  0.00    -0.265 OA
BRANCH  19  21
ATOM     21  C   UNL d   1      53.119  29.651  53.629  0.00  0.00     0.127 C 
BRANCH  21  22
ATOM     22  C   UNL d   1      53.250  29.116  54.240  0.00  0.00     0.119 A 
ATOM     23  O   UNL d   1      52.879  29.124  54.977  0.00  0.00    -0.304 OA
ATOM     24  C   UNL d   1      53.170  28.493  55.421  0.00  0.00     0.123 A 
ATOM     25  C   UNL d   1      53.724  28.090  54.958  0.00  0.00     0.029 A 
ATOM     26  C   UNL d   1      53.769  28.482  54.226  0.00  0.00     0.028 A 
ENDBRANCH  21  22
ENDBRANCH  19  21
ENDBRANCH   6  18
BRANCH   5  27
ATOM     27  C   UNL d   1      51.875  33.554  52.677  0.00  0.00     0.110 C 
BRANCH  27  28
ATOM     28  C   UNL d   1      51.075  33.521  52.884  0.00  0.00     0.142 C 
BRANCH  28  29
ATOM     29  O   UNL d   1      50.518  33.966  52.469  0.00  0.00    -0.298 OA
BRANCH  29  30
ATOM     30  C   UNL d   1      49.918  34.351  52.881  0.00  0.00     0.168 C 
BRANCH  30  31
ATOM     31  C   UNL d   1      49.320  34.753  52.475  0.00  0.00     0.261 C 
ATOM     32  O   UNL d   1      48.868  35.318  52.870  0.00  0.00    -0.281 OA
ENDBRANCH  30  31
ENDBRANCH  29  30
ENDBRANCH  28  29
ENDBRANCH  27  28
ENDBRANCH   5  27
TORSDOF 8
ENDMDL
MODEL 3
REMARK VINA RESULT:      -6.1      1.368      3.252
REMARK  8 active torsions:
REMARK  status: ('A' for Active; 'I' for Inactive)
REMARK    1  A    between atoms: C_25  and  N_5 
REMARK    2  A    between atoms: C_11  and  C_6 
REMARK       I    between atoms: N_15  and  C_11 
REMARK    3  A    between atoms: C_26  and  N_15 
REMARK    4  A    between atoms: C_17  and  C_26 
REMARK    5  A    between atoms: C_30  and  C_25 
REMARK    6  A    between atoms: O_29  and  C_30 
REMARK    7  A    between atoms: C_32  and  O_29 
REMARK    8  A    between atoms: C_31  and  C_32 
ROOT
ATOM      1  C   UNL d   1      52.592  32.523  53.232  0.00  0.00     0.155 A 
ATOM      2  C   UNL d   1      51.799  32.296  53.219  0.00  0.00     0.091 A 
ATOM      3  N   UNL d   1      53.186  31.945  53.272  0.00  0.00    -0.210 NA
ATOM      4  N   UNL d   1      52.191  30.920  53.284  0.00  0.00    -0.258 N 
ATOM      5  N   UNL d   1      52.796  33.314  53.207  0.00  0.00    -0.272 N 
ATOM      6  C   UNL d   1      51.420  33.674  53.154  0.00  0.00     0.094 A 
ATOM      7  C   UNL d   1      52.984  31.146  53.298  0.00  0.00     0.152 A 
ATOM      8  C   UNL d   1      51.595  31.490  53.244  0.00  0.00     0.269 A 
ATOM      9  C   UNL d   1      52.213  33.900  53.168  0.00  0.00     0.175 A 
ATOM     10  C   UNL d   1      51.206  32.872  53.179  0.00  0.00     0.016 A 
ATOM     11  C   UNL d   1      53.577  30.576  53.337  0.00  0.00     0.035 A 
ATOM     12  C   UNL d   1      51.978  30.119  53.309  0.00  0.00     0.084 A 
ATOM     13  N   UNL d   1      52.414  34.698  53.142  0.00  0.00    -0.128 N 
ATOM     14  O   UNL d   1      50.792  31.269  53.230  0.00  0.00    -0.266 OA
ATOM     15  C   UNL d   1      52.582  29.551  53.349  0.00  0.00     0.019 A 
ATOM     16  C   UNL d   1      53.375  29.777  53.362  0.00  0.00     0.005 A 
ATOM     17  C   UNL d   1      54.365  30.801  53.350  0.00  0.00     0.003 C 
ENDROOT
BRANCH   6  18
ATOM     18  C   UNL d   1      50.824  34.257  53.114  0.00  0.00     0.282 C 
ATOM     19  N   UNL d   1      50.269  34.231  52.505  0.00  0.00    -0.204 NA
ATOM     20  O   UNL d   1      50.797  34.852  53.684  0.00  0.00    -0.265 OA
BRANCH  19  21
ATOM     21  C   UNL d   1      49.680  34.807  52.466  0.00  0.00     0.127 C 
BRANCH  21  22
ATOM     22  C   UNL d   1      49.131  34.797  51.853  0.00  0.00     0.119 A 
ATOM     23  O   UNL d   1      49.234  34.438  51.118  0.00  0.00    -0.304 OA
ATOM     24  C   UNL d   1      48.551  34.560  50.672  0.00  0.00     0.123 A 
ATOM     25  C   UNL d   1      48.021  34.998  51.131  0.00  0.00     0.029 A 
ATOM     26  C   UNL d   1      48.388  35.142  51.864  0.00  0.00     0.028 A 
ENDBRANCH  21  22
ENDBRANCH  19  21
ENDBRANCH   6  18
BRANCH   5  27
ATOM     27  C   UNL d   1      53.589  33.541  53.221  0.00  0.00     0.110 C 
BRANCH  27  28
ATOM     28  C   UNL d   1      53.901  33.909  53.892  0.00  0.00     0.142 C 
BRANCH  28  29
ATOM     29  O   UNL d   1      54.683  33.775  54.118  0.00  0.00    -0.298 OA
BRANCH  29  30
ATOM     30  C   UNL d   1      54.987  34.162  54.778  0.00  0.00     0.168 C 
BRANCH  30  31
ATOM     31  C   UNL d   1      55.195  33.736  55.456  0.00  0.00     0.261 C 
ATOM     32  O   UNL d   1      55.557  34.125  56.086  0.00  0.00    -0.281 OA
ENDBRANCH  30  31
ENDBRANCH  29  30
ENDBRANCH  28  29
ENDBRANCH  27  28
ENDBRANCH   5  27
TORSDOF 8
ENDMDL
