MODEL 1
REMARK VINA RESULT:      -4.3      0.000      0.000
REMARK  2 active torsions:
REMARK  status: ('A' for Active; 'I' for Inactive)
REMARK    1  A    between atoms: C_13  and  N_5 
REMARK    2  A    between atoms: C_19  and  C_12 
ROOT
ATOM      1  C   UNL d   1      58.137  -0.882  30.090  0.00  0.00     0.170 A 
ATOM      2  C   UNL d   1      57.917  -0.150  30.336  0.00  0.00     0.093 A 
ATOM      3  N   UNL d   1      57.136  -0.705  31.340  0.00  0.00    -0.256 N 
ATOM      4  C   UNL d   1      57.413  -0.049  30.965  0.00  0.00     0.176 A 
ATOM      5  N   UNL d   1      58.635  -0.973  29.468  0.00  0.00    -0.212 N 
ATOM      6  N   UNL d   1      57.849  -1.532  30.479  0.00  0.00    -0.206 NA
ATOM      7  N   UNL d   1      57.199   0.682  31.203  0.00  0.00    -0.128 NA
ATOM      8  N   UNL d   1      58.915  -0.315  29.090  0.00  0.00    -0.162 NA
ATOM      9  C   UNL d   1      57.356  -1.437  31.095  0.00  0.00     0.187 A 
ATOM     10  N   UNL d   1      56.421   0.115  32.203  0.00  0.00    -0.128 NA
ATOM     11  C   UNL d   1      58.700   0.417  29.328  0.00  0.00     0.127 A 
ATOM     12  C   UNL d   1      56.638  -0.615  31.962  0.00  0.00     0.172 A 
ENDROOT
BRANCH   5  13
ATOM     13  C   UNL d   1      58.856  -1.729  29.223  0.00  0.00     0.085 A 
ATOM     14  C   UNL d   1      59.577  -2.039  29.450  0.00  0.00     0.019 A 
ATOM     15  C   UNL d   1      59.799  -2.808  29.198  0.00  0.00     0.002 A 
ATOM     16  C   UNL d   1      60.567  -3.147  29.437  0.00  0.00     0.000 C 
ATOM     17  C   UNL d   1      59.287  -3.254  28.718  0.00  0.00     0.000 A 
ATOM     18  C   UNL d   1      58.550  -2.928  28.490  0.00  0.00     0.002 A 
ATOM     19  C   UNL d   1      59.513  -4.051  28.455  0.00  0.00     0.000 C 
ATOM     20  C   UNL d   1      58.333  -2.172  28.738  0.00  0.00     0.019 A 
ENDBRANCH   5  13
BRANCH  12  21
ATOM     21  C   UNL d   1      56.353  -1.262  32.347  0.00  0.00     0.039 C 
ATOM     22  C   UNL d   1      55.883  -1.170  32.986  0.00  0.00     0.003 C 
ENDBRANCH  12  21
TORSDOF 2
ENDMDL
