MODEL 1
REMARK VINA RESULT:      45.7      0.000      0.000
REMARK  5 active torsions:
REMARK  status: ('A' for Active; 'I' for Inactive)
REMARK    1  A    between atoms: N_2  and  C_1 
REMARK    2  A    between atoms: N_11  and  C_6 
REMARK    3  A    between atoms: C_13  and  N_11 
REMARK    4  A    between atoms: O_20  and  C_14 
REMARK    5  A    between atoms: C_23  and  O_20 
ROOT
ATOM      1  C   UNL d   1     -56.359 -99.609 -44.251  0.00  0.00     0.752 A 
ATOM      2  N   UNL d   1     -56.017-100.340 -44.065  0.00  0.00    -0.040 NA
ATOM      3  C   UNL d   1     -55.280-100.542 -44.370  0.00  0.00     0.182 A 
ATOM      4  N   UNL d   1     -55.954 -99.083 -44.746  0.00  0.00    -0.059 NA
ATOM      5  C   UNL d   1     -54.876-100.016 -44.864  0.00  0.00     0.059 A 
ATOM      6  C   UNL d   1     -55.214 -99.284 -45.053  0.00  0.00     0.103 A 
ATOM      7  C   UNL d   1     -54.810 -98.757 -45.548  0.00  0.00     0.021 C 
ENDROOT
BRANCH   3   8
ATOM      8  N   UNL d   1     -54.940-101.270 -44.184  0.00  0.00    -0.226 NA
BRANCH   8   9
ATOM      9  C   UNL d   1     -54.883-101.520 -43.394  0.00  0.00     0.083 A 
ATOM     10  C   UNL d   1     -54.802-100.948 -42.796  0.00  0.00     0.021 A 
ATOM     11  C   UNL d   1     -54.745-101.203 -42.006  0.00  0.00     0.026 A 
ATOM     12  C   UNL d   1     -54.770-102.006 -41.822  0.00  0.00     0.100 A 
ATOM     13  C   UNL d   1     -54.851-102.566 -42.427  0.00  0.00     0.026 A 
ATOM     14  C   UNL d   1     -54.908-102.324 -43.215  0.00  0.00     0.021 A 
BRANCH  12  15
ATOM     15  O   UNL d   1     -54.713-102.252 -41.034  0.00  0.00    -0.305 OA
BRANCH  15  16
ATOM     16  C   UNL d   1     -54.721-101.690 -40.433  0.00  0.00     0.123 C 
ATOM     17  C   UNL d   1     -54.813-101.935 -39.652  0.00  0.00     0.029 C 
ENDBRANCH  15  16
ENDBRANCH  12  15
ENDBRANCH   8   9
ENDBRANCH   3   8
BRANCH   1  18
ATOM     18  N   UNL d   1     -57.023 -99.417 -43.982  0.00  0.00    -0.058 N 
ATOM     19  N   UNL d   1     -57.845 -99.326 -42.976  0.00  0.00    -0.151 NA
ATOM     20  C   UNL d   1     -58.370 -99.027 -43.439  0.00  0.00     0.103 A 
ATOM     21  C   UNL d   1     -59.042 -98.833 -43.168  0.00  0.00     0.022 C 
ATOM     22  C   UNL d   1     -58.205 -98.933 -44.161  0.00  0.00     0.041 A 
ATOM     23  C   UNL d   1     -57.542 -99.122 -44.439  0.00  0.00     0.102 A 
ATOM     24  C   UNL d   1     -57.383 -99.023 -45.172  0.00  0.00     0.021 C 
ENDBRANCH   1  18
TORSDOF 5
ENDMDL
MODEL 2
REMARK VINA RESULT:      46.6      2.060      3.226
REMARK  5 active torsions:
REMARK  status: ('A' for Active; 'I' for Inactive)
REMARK    1  A    between atoms: N_2  and  C_1 
REMARK    2  A    between atoms: N_11  and  C_6 
REMARK    3  A    between atoms: C_13  and  N_11 
REMARK    4  A    between atoms: O_20  and  C_14 
REMARK    5  A    between atoms: C_23  and  O_20 
ROOT
ATOM      1  C   UNL d   1     -58.752 -98.970 -43.438  0.00  0.00     0.752 A 
ATOM      2  N   UNL d   1     -57.932 -98.913 -43.540  0.00  0.00    -0.040 NA
ATOM      3  C   UNL d   1     -57.614 -98.825 -44.293  0.00  0.00     0.182 A 
ATOM      4  N   UNL d   1     -59.250 -98.937 -44.099  0.00  0.00    -0.059 NA
ATOM      5  C   UNL d   1     -58.111 -98.791 -44.953  0.00  0.00     0.059 A 
ATOM      6  C   UNL d   1     -58.932 -98.847 -44.856  0.00  0.00     0.103 A 
ATOM      7  C   UNL d   1     -59.430 -98.814 -45.517  0.00  0.00     0.021 C 
ENDROOT
BRANCH   3   8
ATOM      8  N   UNL d   1     -56.798 -98.768 -44.394  0.00  0.00    -0.226 NA
BRANCH   8   9
ATOM      9  C   UNL d   1     -56.328 -99.453 -44.423  0.00  0.00     0.083 A 
ATOM     10  C   UNL d   1     -55.588 -99.449 -44.044  0.00  0.00     0.021 A 
ATOM     11  C   UNL d   1     -55.121-100.137 -44.075  0.00  0.00     0.026 A 
ATOM     12  C   UNL d   1     -55.388-100.807 -44.475  0.00  0.00     0.100 A 
ATOM     13  C   UNL d   1     -56.127-100.797 -44.849  0.00  0.00     0.026 A 
ATOM     14  C   UNL d   1     -56.599-100.120 -44.824  0.00  0.00     0.021 A 
BRANCH  12  15
ATOM     15  O   UNL d   1     -54.917-101.487 -44.502  0.00  0.00    -0.305 OA
BRANCH  15  16
ATOM     16  C   UNL d   1     -55.038-102.038 -45.102  0.00  0.00     0.123 C 
ATOM     17  C   UNL d   1     -55.423-102.745 -44.929  0.00  0.00     0.029 C 
ENDBRANCH  15  16
ENDBRANCH  12  15
ENDBRANCH   8   9
ENDBRANCH   3   8
BRANCH   1  18
ATOM     18  N   UNL d   1     -59.049 -99.050 -42.762  0.00  0.00    -0.058 N 
ATOM     19  N   UNL d   1     -59.050 -98.762 -41.492  0.00  0.00    -0.151 NA
ATOM     20  C   UNL d   1     -59.654 -99.215 -41.395  0.00  0.00     0.103 A 
ATOM     21  C   UNL d   1     -59.956 -99.297 -40.714  0.00  0.00     0.022 C 
ATOM     22  C   UNL d   1     -59.938 -99.572 -41.987  0.00  0.00     0.041 A 
ATOM     23  C   UNL d   1     -59.646 -99.497 -42.666  0.00  0.00     0.102 A 
ATOM     24  C   UNL d   1     -59.940 -99.863 -43.260  0.00  0.00     0.021 C 
ENDBRANCH   1  18
TORSDOF 5
ENDMDL
