MODEL 1
REMARK VINA RESULT:      78.5      0.000      0.000
REMARK  7 active torsions:
REMARK  status: ('A' for Active; 'I' for Inactive)
REMARK    1  A    between atoms: C_11  and  C_3 
REMARK    2  A    between atoms: C_10  and  C_4 
REMARK    3  A    between atoms: O_16  and  C_10 
REMARK    4  A    between atoms: N_14  and  C_11 
REMARK    5  A    between atoms: C_21  and  N_14 
REMARK    6  A    between atoms: C_23  and  O_16 
REMARK    7  A    between atoms: C_20  and  C_21 
ROOT
ATOM      1  C   UNL d   1     -56.966 -98.874 -43.563  0.00  0.00     0.035 A 
ATOM      2  C   UNL d   1     -57.796 -98.817 -43.551  0.00  0.00     0.100 A 
ATOM      3  C   UNL d   1     -56.580 -98.932 -44.288  0.00  0.00     0.060 A 
ATOM      4  C   UNL d   1     -56.682 -98.859 -42.792  0.00  0.00     0.088 A 
ATOM      5  O   UNL d   1     -58.026 -98.765 -42.736  0.00  0.00    -0.307 OA
ATOM      6  C   UNL d   1     -57.353 -98.792 -42.300  0.00  0.00     0.105 A 
ATOM      7  C   UNL d   1     -57.027 -98.932 -44.997  0.00  0.00     0.197 A 
ATOM      8  C   UNL d   1     -58.253 -98.816 -44.253  0.00  0.00     0.026 A 
ATOM      9  C   UNL d   1     -57.867 -98.874 -44.977  0.00  0.00     0.041 A 
ATOM     10  O   UNL d   1     -56.632 -98.992 -45.738  0.00  0.00    -0.286 OA
ATOM     11  C   UNL d   1     -57.331 -98.757 -41.459  0.00  0.00     0.027 C 
ATOM     12  C   UNL d   1     -59.066 -98.760 -44.232  0.00  0.00     0.002 A 
ATOM     13  C   UNL d   1     -58.297 -98.876 -45.678  0.00  0.00     0.003 A 
ATOM     14  C   UNL d   1     -59.132 -98.818 -45.656  0.00  0.00     0.000 A 
ATOM     15  C   UNL d   1     -59.518 -98.760 -44.931  0.00  0.00     0.000 A 
ENDROOT
BRANCH   3  16
ATOM     16  C   UNL d   1     -55.730 -98.989 -44.275  0.00  0.00     0.102 C 
BRANCH  16  17
ATOM     17  N   UNL d   1     -55.365 -99.731 -44.533  0.00  0.00    -0.240 NA
BRANCH  17  18
ATOM     18  C   UNL d   1     -55.793-100.442 -44.442  0.00  0.00     0.124 C 
BRANCH  18  19
ATOM     19  C   UNL d   1     -55.402-101.160 -44.538  0.00  0.00     0.119 A 
ATOM     20  O   UNL d   1     -55.320-101.509 -45.305  0.00  0.00    -0.304 OA
ATOM     21  C   UNL d   1     -54.912-102.209 -45.215  0.00  0.00     0.123 A 
ATOM     22  C   UNL d   1     -54.745-102.300 -44.434  0.00  0.00     0.029 A 
ATOM     23  C   UNL d   1     -55.036-101.671 -44.009  0.00  0.00     0.028 A 
ENDBRANCH  18  19
ENDBRANCH  17  18
ENDBRANCH  16  17
ENDBRANCH   3  16
BRANCH   4  24
ATOM     24  C   UNL d   1     -55.885 -98.902 -42.527  0.00  0.00     0.302 C 
ATOM     25  O   UNL d   1     -55.246 -98.757 -43.071  0.00  0.00    -0.259 OA
BRANCH  24  26
ATOM     26  O   UNL d   1     -55.704 -99.083 -41.740  0.00  0.00    -0.271 OA
BRANCH  26  27
ATOM     27  C   UNL d   1     -54.919 -99.167 -41.512  0.00  0.00     0.126 C 
ATOM     28  C   UNL d   1     -54.717 -99.712 -40.948  0.00  0.00     0.029 C 
ENDBRANCH  26  27
ENDBRANCH  24  26
ENDBRANCH   4  24
TORSDOF 7
ENDMDL
