MODEL 1
REMARK VINA RESULT:      -1.8      0.000      0.000
REMARK  5 active torsions:
REMARK  status: ('A' for Active; 'I' for Inactive)
REMARK    1  A    between atoms: S_2  and  C_1 
REMARK    2  A    between atoms: C_8  and  S_2 
REMARK    3  A    between atoms: C_18  and  N_6 
REMARK    4  A    between atoms: O_22  and  C_16 
REMARK    5  A    between atoms: C_23  and  O_22 
ROOT
ATOM      1  C   UNL d   1     -41.688-122.515 -50.873  0.00  0.00     0.144 A 
ATOM      2  C   UNL d   1     -41.695-123.022 -51.519  0.00  0.00     0.209 A 
ATOM      3  C   UNL d   1     -41.517-122.758 -52.272  0.00  0.00     0.058 A 
ATOM      4  C   UNL d   1     -41.495-121.708 -50.989  0.00  0.00     0.095 A 
ATOM      5  N   UNL d   1     -41.314-121.432 -51.748  0.00  0.00    -0.303 N 
ATOM      6  C   UNL d   1     -41.324-121.951 -52.388  0.00  0.00     0.067 A 
ATOM      7  C   UNL d   1     -41.143-121.674 -53.143  0.00  0.00     0.020 A 
ATOM      8  C   UNL d   1     -41.524-123.264 -52.914  0.00  0.00     0.029 A 
ATOM      9  O   UNL d   1     -41.885-123.817 -51.404  0.00  0.00    -0.286 OA
ATOM     10  C   UNL d   1     -41.345-123.001 -53.675  0.00  0.00     0.100 A 
ATOM     11  C   UNL d   1     -41.152-122.194 -53.791  0.00  0.00     0.026 A 
ENDROOT
BRANCH   1  12
ATOM     12  S   UNL d   1     -41.867-122.778 -50.112  0.00  0.00     0.214 S 
ATOM     13  O   UNL d   1     -41.183-123.238 -50.094  0.00  0.00    -0.217 OA
ATOM     14  O   UNL d   1     -42.561-122.314 -50.125  0.00  0.00    -0.217 OA
BRANCH  12  15
ATOM     15  C   UNL d   1     -42.057-123.035 -49.349  0.00  0.00     0.088 A 
ATOM     16  C   UNL d   1     -41.549-122.878 -48.717  0.00  0.00     0.011 A 
ATOM     17  C   UNL d   1     -41.736-123.133 -47.956  0.00  0.00     0.001 A 
ATOM     18  C   UNL d   1     -42.437-123.550 -47.820  0.00  0.00     0.000 A 
ATOM     19  C   UNL d   1     -42.947-123.710 -48.450  0.00  0.00     0.001 A 
ATOM     20  C   UNL d   1     -42.629-123.809 -47.054  0.00  0.00     0.000 C 
ATOM     21  C   UNL d   1     -42.759-123.455 -49.210  0.00  0.00     0.011 A 
ENDBRANCH  12  15
ENDBRANCH   1  12
BRANCH   5  22
ATOM     22  C   UNL d   1     -41.123-120.639 -51.871  0.00  0.00     0.080 C 
ATOM     23  C   UNL d   1     -41.149-120.112 -51.238  0.00  0.00     0.021 C 
ENDBRANCH   5  22
BRANCH  10  24
ATOM     24  O   UNL d   1     -41.352-123.507 -54.317  0.00  0.00    -0.305 OA
BRANCH  24  25
ATOM     25  C   UNL d   1     -41.552-123.245 -55.068  0.00  0.00     0.123 C 
ATOM     26  C   UNL d   1     -41.906-123.752 -55.612  0.00  0.00     0.029 C 
ENDBRANCH  24  25
ENDBRANCH  10  24
TORSDOF 5
ENDMDL
MODEL 2
REMARK VINA RESULT:       0.8      1.242      4.680
REMARK  5 active torsions:
REMARK  status: ('A' for Active; 'I' for Inactive)
REMARK    1  A    between atoms: S_2  and  C_1 
REMARK    2  A    between atoms: C_8  and  S_2 
REMARK    3  A    between atoms: C_18  and  N_6 
REMARK    4  A    between atoms: O_22  and  C_16 
REMARK    5  A    between atoms: C_23  and  O_22 
ROOT
ATOM      1  C   UNL d   1     -41.841-122.034 -52.326  0.00  0.00     0.144 A 
ATOM      2  C   UNL d   1     -42.045-122.658 -51.833  0.00  0.00     0.209 A 
ATOM      3  C   UNL d   1     -41.951-122.611 -51.022  0.00  0.00     0.058 A 
ATOM      4  C   UNL d   1     -41.528-121.333 -51.989  0.00  0.00     0.095 A 
ATOM      5  N   UNL d   1     -41.430-121.277 -51.170  0.00  0.00    -0.303 N 
ATOM      6  C   UNL d   1     -41.639-121.910 -50.686  0.00  0.00     0.067 A 
ATOM      7  C   UNL d   1     -41.540-121.852 -49.870  0.00  0.00     0.020 A 
ATOM      8  C   UNL d   1     -42.156-123.233 -50.533  0.00  0.00     0.029 A 
ATOM      9  O   UNL d   1     -42.353-123.348 -52.164  0.00  0.00    -0.286 OA
ATOM     10  C   UNL d   1     -42.062-123.189 -49.715  0.00  0.00     0.100 A 
ATOM     11  C   UNL d   1     -41.750-122.488 -49.378  0.00  0.00     0.026 A 
ENDROOT
BRANCH   1  12
ATOM     12  S   UNL d   1     -41.934-122.078 -53.144  0.00  0.00     0.214 S 
ATOM     13  O   UNL d   1     -42.727-121.864 -53.080  0.00  0.00    -0.217 OA
ATOM     14  O   UNL d   1     -41.131-122.295 -53.215  0.00  0.00    -0.217 OA
BRANCH  12  15
ATOM     15  C   UNL d   1     -42.016-122.125 -53.966  0.00  0.00     0.088 A 
ATOM     16  C   UNL d   1     -41.588-122.684 -54.397  0.00  0.00     0.011 A 
ATOM     17  C   UNL d   1     -41.668-122.733 -55.215  0.00  0.00     0.001 A 
ATOM     18  C   UNL d   1     -42.180-122.219 -55.613  0.00  0.00     0.000 A 
ATOM     19  C   UNL d   1     -42.609-121.659 -55.185  0.00  0.00     0.001 A 
ATOM     20  C   UNL d   1     -42.263-122.265 -56.438  0.00  0.00     0.000 C 
ATOM     21  C   UNL d   1     -42.529-121.610 -54.367  0.00  0.00     0.011 A 
ENDBRANCH  12  15
ENDBRANCH   1  12
BRANCH   5  22
ATOM     22  C   UNL d   1     -41.123-120.590 -50.830  0.00  0.00     0.080 C 
ATOM     23  C   UNL d   1     -41.256-119.863 -51.194  0.00  0.00     0.021 C 
ENDBRANCH   5  22
BRANCH  10  24
ATOM     24  O   UNL d   1     -42.266-123.811 -49.225  0.00  0.00    -0.305 OA
BRANCH  24  25
ATOM     25  C   UNL d   1     -42.338-123.713 -48.413  0.00  0.00     0.123 C 
ATOM     26  C   UNL d   1     -43.070-123.780 -48.043  0.00  0.00     0.029 C 
ENDBRANCH  24  25
ENDBRANCH  10  24
TORSDOF 5
ENDMDL
