MODEL 1
REMARK VINA RESULT:      17.8      0.000      0.000
REMARK  5 active torsions:
REMARK  status: ('A' for Active; 'I' for Inactive)
REMARK    1  A    between atoms: N_2  and  C_1 
REMARK    2  A    between atoms: C_8  and  C_1 
REMARK    3  A    between atoms: O_5  and  N_2 
REMARK    4  A    between atoms: C_3  and  O_5 
REMARK    5  A    between atoms: C_4  and  C_3 
ROOT
ATOM      1  C   UNL d   1      13.479  12.170  -2.218  0.00  0.00     0.319 C 
ATOM      2  O   UNL d   1      12.781  11.788  -1.789  0.00  0.00    -0.257 OA
ENDROOT
BRANCH   1   3
ATOM      3  O   UNL d   1      14.243  12.350  -1.753  0.00  0.00    -0.168 OA
BRANCH   3   4
ATOM      4  N   UNL d   1      14.392  11.970  -1.037  0.00  0.00    -0.100 NA
BRANCH   4   5
ATOM      5  C   UNL d   1      14.964  12.282  -0.530  0.00  0.00     0.228 C 
ATOM      6  N   UNL d   1      15.548  11.790  -0.198  0.00  0.00    -0.123 N 
BRANCH   5   7
ATOM      7  C   UNL d   1      14.948  13.088  -0.359  0.00  0.00     0.121 A 
ATOM      8  N   UNL d   1      15.662  13.497  -0.356  0.00  0.00    -0.241 NA
ATOM      9  C   UNL d   1      15.664  14.319  -0.183  0.00  0.00     0.099 A 
ATOM     10  C   UNL d   1      14.948  14.701  -0.021  0.00  0.00     0.021 A 
ATOM     11  C   UNL d   1      14.246  14.277  -0.029  0.00  0.00     0.003 A 
ATOM     12  C   UNL d   1      14.253  13.474  -0.198  0.00  0.00     0.022 A 
ENDBRANCH   5   7
ENDBRANCH   4   5
ENDBRANCH   3   4
ENDBRANCH   1   3
BRANCH   1  13
ATOM     13  C   UNL d   1      13.435  12.359  -3.025  0.00  0.00     0.065 A 
ATOM     14  C   UNL d   1      13.336  13.150  -3.238  0.00  0.00     0.005 A 
ATOM     15  C   UNL d   1      13.290  13.345  -4.038  0.00  0.00     0.000 A 
ATOM     16  C   UNL d   1      13.191  14.137  -4.277  0.00  0.00     0.000 C 
ATOM     17  C   UNL d   1      13.343  12.765  -4.610  0.00  0.00     0.000 A 
ATOM     18  C   UNL d   1      13.441  11.982  -4.389  0.00  0.00     0.000 A 
ATOM     19  C   UNL d   1      13.299  12.944  -5.426  0.00  0.00     0.000 C 
ATOM     20  C   UNL d   1      13.487  11.782  -3.594  0.00  0.00     0.005 A 
ENDBRANCH   1  13
TORSDOF 5
ENDMDL
