MODEL 1
REMARK VINA RESULT:      -8.8      0.000      0.000
REMARK  4 active torsions:
REMARK  status: ('A' for Active; 'I' for Inactive)
REMARK    1  A    between atoms: C_3  and  S_1 
REMARK    2  A    between atoms: N_5  and  S_1 
REMARK    3  A    between atoms: C_11  and  N_5 
REMARK    4  A    between atoms: C_21  and  N_5 
ROOT
ATOM      1  N   UNL d   1     -45.211  11.841  22.925  0.00  0.00    -0.273 N 
ATOM      2  C   UNL d   1     -47.339  13.079  22.808  0.00  0.00     0.104 A 
ATOM      3  C   UNL d   1     -45.916  12.253  22.885  0.00  0.00     0.067 A 
ATOM      4  C   UNL d   1     -46.586  11.945  23.247  0.00  0.00     0.017 A 
ATOM      5  C   UNL d   1     -45.955  12.973  22.484  0.00  0.00     0.017 A 
ATOM      6  C   UNL d   1     -45.172  11.121  23.326  0.00  0.00     0.265 A 
ATOM      7  C   UNL d   1     -47.300  12.359  23.209  0.00  0.00     0.014 A 
ATOM      8  C   UNL d   1     -46.664  13.385  22.446  0.00  0.00     0.014 A 
ATOM      9  C   UNL d   1     -46.547  11.225  23.648  0.00  0.00     0.006 A 
ATOM     10  C   UNL d   1     -45.838  10.813  23.687  0.00  0.00     0.061 A 
ATOM     11  O   UNL d   1     -44.449  10.700  23.366  0.00  0.00    -0.267 OA
ATOM     12  C   UNL d   1     -44.536  12.148  22.562  0.00  0.00     0.083 A 
ATOM     13  C   UNL d   1     -45.289  13.281  22.124  0.00  0.00     0.003 A 
ATOM     14  C   UNL d   1     -44.575  12.869  22.161  0.00  0.00     0.019 A 
ENDROOT
BRANCH   2  15
ATOM     15  S   UNL d   1     -48.058  13.491  22.772  0.00  0.00     0.271 S 
ATOM     16  O   UNL d   1     -48.112  13.345  21.957  0.00  0.00    -0.200 OA
ATOM     17  O   UNL d   1     -48.008  13.641  23.589  0.00  0.00    -0.200 OA
BRANCH  15  18
ATOM     18  N   UNL d   1     -48.782  13.908  22.738  0.00  0.00    -0.231 N 
BRANCH  18  19
ATOM     19  C   UNL d   1     -49.479  13.518  22.549  0.00  0.00     0.075 A 
ATOM     20  C   UNL d   1     -49.921  13.163  23.149  0.00  0.00     0.018 A 
ATOM     21  C   UNL d   1     -50.616  12.772  22.972  0.00  0.00     0.002 A 
ATOM     22  C   UNL d   1     -51.063  12.412  23.579  0.00  0.00     0.000 C 
ATOM     23  C   UNL d   1     -50.877  12.733  22.190  0.00  0.00     0.000 A 
ATOM     24  C   UNL d   1     -50.435  13.088  21.590  0.00  0.00     0.002 A 
ATOM     25  C   UNL d   1     -49.738  13.478  21.779  0.00  0.00     0.018 A 
ENDBRANCH  18  19
BRANCH  18  26
ATOM     26  C   UNL d   1     -48.799  14.717  22.896  0.00  0.00     0.092 C 
ATOM     27  C   UNL d   1     -48.811  15.258  22.273  0.00  0.00     0.021 C 
ENDBRANCH  18  26
ENDBRANCH  15  18
ENDBRANCH   2  15
TORSDOF 4
ENDMDL
MODEL 2
REMARK VINA RESULT:      -7.2      7.456      9.375
REMARK  4 active torsions:
REMARK  status: ('A' for Active; 'I' for Inactive)
REMARK    1  A    between atoms: C_3  and  S_1 
REMARK    2  A    between atoms: N_5  and  S_1 
REMARK    3  A    between atoms: C_11  and  N_5 
REMARK    4  A    between atoms: C_21  and  N_5 
ROOT
ATOM      1  N   UNL d   1     -39.465  14.710  16.824  0.00  0.00    -0.273 N 
ATOM      2  C   UNL d   1     -40.070  14.916  19.205  0.00  0.00     0.104 A 
ATOM      3  C   UNL d   1     -39.667  14.781  17.614  0.00  0.00     0.067 A 
ATOM      4  C   UNL d   1     -39.367  14.243  18.158  0.00  0.00     0.017 A 
ATOM      5  C   UNL d   1     -40.169  15.386  17.863  0.00  0.00     0.017 A 
ATOM      6  C   UNL d   1     -38.964  14.104  16.575  0.00  0.00     0.265 A 
ATOM      7  C   UNL d   1     -39.569  14.310  18.955  0.00  0.00     0.014 A 
ATOM      8  C   UNL d   1     -40.370  15.455  18.656  0.00  0.00     0.014 A 
ATOM      9  C   UNL d   1     -38.866  13.637  17.909  0.00  0.00     0.006 A 
ATOM     10  C   UNL d   1     -38.664  13.569  17.116  0.00  0.00     0.061 A 
ATOM     11  O   UNL d   1     -38.758  14.034  15.767  0.00  0.00    -0.267 OA
ATOM     12  C   UNL d   1     -39.765  15.249  16.276  0.00  0.00     0.083 A 
ATOM     13  C   UNL d   1     -40.468  15.922  17.323  0.00  0.00     0.003 A 
ATOM     14  C   UNL d   1     -40.267  15.855  16.525  0.00  0.00     0.019 A 
ENDROOT
BRANCH   2  15
ATOM     15  S   UNL d   1     -40.271  14.981  20.007  0.00  0.00     0.271 S 
ATOM     16  O   UNL d   1     -39.871  15.707  20.059  0.00  0.00    -0.200 OA
ATOM     17  O   UNL d   1     -40.673  14.255  19.961  0.00  0.00    -0.200 OA
BRANCH  15  18
ATOM     18  N   UNL d   1     -40.475  15.044  20.815  0.00  0.00    -0.231 N 
BRANCH  18  19
ATOM     19  C   UNL d   1     -39.897  14.993  21.396  0.00  0.00     0.075 A 
ATOM     20  C   UNL d   1     -39.717  14.259  21.727  0.00  0.00     0.018 A 
ATOM     21  C   UNL d   1     -39.144  14.197  22.306  0.00  0.00     0.002 A 
ATOM     22  C   UNL d   1     -38.962  13.454  22.641  0.00  0.00     0.000 C 
ATOM     23  C   UNL d   1     -38.743  14.872  22.560  0.00  0.00     0.000 A 
ATOM     24  C   UNL d   1     -38.923  15.606  22.230  0.00  0.00     0.002 A 
ATOM     25  C   UNL d   1     -39.501  15.657  21.649  0.00  0.00     0.018 A 
ENDBRANCH  18  19
BRANCH  18  26
ATOM     26  C   UNL d   1     -41.261  15.158  21.034  0.00  0.00     0.092 C 
ATOM     27  C   UNL d   1     -41.573  15.922  21.069  0.00  0.00     0.021 C 
ENDBRANCH  18  26
ENDBRANCH  15  18
ENDBRANCH   2  15
TORSDOF 4
ENDMDL
MODEL 3
REMARK VINA RESULT:      -6.9      7.743      9.701
REMARK  4 active torsions:
REMARK  status: ('A' for Active; 'I' for Inactive)
REMARK    1  A    between atoms: C_3  and  S_1 
REMARK    2  A    between atoms: N_5  and  S_1 
REMARK    3  A    between atoms: C_11  and  N_5 
REMARK    4  A    between atoms: C_21  and  N_5 
ROOT
ATOM      1  N   UNL d   1     -38.700  14.331  16.789  0.00  0.00    -0.273 N 
ATOM      2  C   UNL d   1     -39.632  14.696  19.041  0.00  0.00     0.104 A 
ATOM      3  C   UNL d   1     -39.009  14.450  17.537  0.00  0.00     0.067 A 
ATOM      4  C   UNL d   1     -39.358  15.170  17.720  0.00  0.00     0.017 A 
ATOM      5  C   UNL d   1     -38.970  13.851  18.104  0.00  0.00     0.017 A 
ATOM      6  C   UNL d   1     -38.739  14.929  16.222  0.00  0.00     0.265 A 
ATOM      7  C   UNL d   1     -39.671  15.294  18.474  0.00  0.00     0.014 A 
ATOM      8  C   UNL d   1     -39.280  13.974  18.854  0.00  0.00     0.014 A 
ATOM      9  C   UNL d   1     -39.397  15.768  17.153  0.00  0.00     0.006 A 
ATOM     10  C   UNL d   1     -39.087  15.646  16.403  0.00  0.00     0.061 A 
ATOM     11  O   UNL d   1     -38.423  14.805  15.457  0.00  0.00    -0.267 OA
ATOM     12  C   UNL d   1     -38.348  13.607  16.602  0.00  0.00     0.083 A 
ATOM     13  C   UNL d   1     -38.622  13.134  17.922  0.00  0.00     0.003 A 
ATOM     14  C   UNL d   1     -38.309  13.009  17.169  0.00  0.00     0.019 A 
ENDROOT
BRANCH   2  15
ATOM     15  S   UNL d   1     -39.947  14.824  19.797  0.00  0.00     0.271 S 
ATOM     16  O   UNL d   1     -40.422  14.147  19.726  0.00  0.00    -0.200 OA
ATOM     17  O   UNL d   1     -39.473  15.504  19.875  0.00  0.00    -0.200 OA
BRANCH  15  18
ATOM     18  N   UNL d   1     -40.263  14.956  20.560  0.00  0.00    -0.231 N 
BRANCH  18  19
ATOM     19  C   UNL d   1     -39.782  14.910  21.224  0.00  0.00     0.075 A 
ATOM     20  C   UNL d   1     -39.662  14.180  21.589  0.00  0.00     0.018 A 
ATOM     21  C   UNL d   1     -39.186  14.123  22.251  0.00  0.00     0.002 A 
ATOM     22  C   UNL d   1     -39.064  13.384  22.620  0.00  0.00     0.000 C 
ATOM     23  C   UNL d   1     -38.823  14.799  22.554  0.00  0.00     0.000 A 
ATOM     24  C   UNL d   1     -38.943  15.530  22.190  0.00  0.00     0.002 A 
ATOM     25  C   UNL d   1     -39.424  15.575  21.525  0.00  0.00     0.018 A 
ENDBRANCH  18  19
BRANCH  18  26
ATOM     26  C   UNL d   1     -41.063  15.133  20.650  0.00  0.00     0.092 C 
ATOM     27  C   UNL d   1     -41.308  15.920  20.700  0.00  0.00     0.021 C 
ENDBRANCH  18  26
ENDBRANCH  15  18
ENDBRANCH   2  15
TORSDOF 4
ENDMDL
MODEL 4
REMARK VINA RESULT:      -6.2      1.274      4.475
REMARK  4 active torsions:
REMARK  status: ('A' for Active; 'I' for Inactive)
REMARK    1  A    between atoms: C_3  and  S_1 
REMARK    2  A    between atoms: N_5  and  S_1 
REMARK    3  A    between atoms: C_11  and  N_5 
REMARK    4  A    between atoms: C_21  and  N_5 
ROOT
ATOM      1  N   UNL d   1     -49.854  14.245  21.988  0.00  0.00    -0.273 N 
ATOM      2  C   UNL d   1     -47.631  13.366  22.584  0.00  0.00     0.104 A 
ATOM      3  C   UNL d   1     -49.116  13.955  22.187  0.00  0.00     0.067 A 
ATOM      4  C   UNL d   1     -48.826  13.289  21.804  0.00  0.00     0.017 A 
ATOM      5  C   UNL d   1     -48.665  14.328  22.769  0.00  0.00     0.017 A 
ATOM      6  C   UNL d   1     -50.305  13.872  21.406  0.00  0.00     0.265 A 
ATOM      7  C   UNL d   1     -48.081  12.993  22.003  0.00  0.00     0.014 A 
ATOM      8  C   UNL d   1     -47.925  14.035  22.968  0.00  0.00     0.014 A 
ATOM      9  C   UNL d   1     -49.277  12.916  21.222  0.00  0.00     0.006 A 
ATOM     10  C   UNL d   1     -50.017  13.209  21.024  0.00  0.00     0.061 A 
ATOM     11  O   UNL d   1     -51.061  14.171  21.203  0.00  0.00    -0.267 OA
ATOM     12  C   UNL d   1     -50.148  14.915  22.372  0.00  0.00     0.083 A 
ATOM     13  C   UNL d   1     -48.953  14.991  23.151  0.00  0.00     0.003 A 
ATOM     14  C   UNL d   1     -49.697  15.288  22.954  0.00  0.00     0.019 A 
ENDROOT
BRANCH   2  15
ATOM     15  S   UNL d   1     -46.883  13.066  22.782  0.00  0.00     0.271 S 
ATOM     16  O   UNL d   1     -46.991  13.289  23.573  0.00  0.00    -0.200 OA
ATOM     17  O   UNL d   1     -46.769  12.840  21.989  0.00  0.00    -0.200 OA
BRANCH  15  18
ATOM     18  N   UNL d   1     -46.129  12.762  22.977  0.00  0.00    -0.231 N 
BRANCH  18  19
ATOM     19  C   UNL d   1     -46.041  11.979  23.209  0.00  0.00     0.075 A 
ATOM     20  C   UNL d   1     -45.292  11.633  23.195  0.00  0.00     0.018 A 
ATOM     21  C   UNL d   1     -45.194  10.855  23.423  0.00  0.00     0.002 A 
ATOM     22  C   UNL d   1     -44.436  10.504  23.410  0.00  0.00     0.000 C 
ATOM     23  C   UNL d   1     -45.847  10.414  23.668  0.00  0.00     0.000 A 
ATOM     24  C   UNL d   1     -46.596  10.760  23.682  0.00  0.00     0.002 A 
ATOM     25  C   UNL d   1     -46.683  11.543  23.451  0.00  0.00     0.018 A 
ENDBRANCH  18  19
BRANCH  18  26
ATOM     26  C   UNL d   1     -45.466  13.250  22.938  0.00  0.00     0.092 C 
ATOM     27  C   UNL d   1     -45.075  13.359  22.219  0.00  0.00     0.021 C 
ENDBRANCH  18  26
ENDBRANCH  15  18
ENDBRANCH   2  15
TORSDOF 4
ENDMDL
MODEL 5
REMARK VINA RESULT:      -6.2      1.180      4.731
REMARK  4 active torsions:
REMARK  status: ('A' for Active; 'I' for Inactive)
REMARK    1  A    between atoms: C_3  and  S_1 
REMARK    2  A    between atoms: N_5  and  S_1 
REMARK    3  A    between atoms: C_11  and  N_5 
REMARK    4  A    between atoms: C_21  and  N_5 
ROOT
ATOM      1  N   UNL d   1     -50.126  14.134  22.046  0.00  0.00    -0.273 N 
ATOM      2  C   UNL d   1     -47.948  13.160  22.661  0.00  0.00     0.104 A 
ATOM      3  C   UNL d   1     -49.404  13.809  22.249  0.00  0.00     0.067 A 
ATOM      4  C   UNL d   1     -48.858  14.263  22.662  0.00  0.00     0.017 A 
ATOM      5  C   UNL d   1     -49.224  13.031  22.041  0.00  0.00     0.017 A 
ATOM      6  C   UNL d   1     -50.306  14.912  22.254  0.00  0.00     0.265 A 
ATOM      7  C   UNL d   1     -48.128  13.938  22.869  0.00  0.00     0.014 A 
ATOM      8  C   UNL d   1     -48.498  12.707  22.246  0.00  0.00     0.014 A 
ATOM      9  C   UNL d   1     -49.038  15.040  22.870  0.00  0.00     0.006 A 
ATOM     10  C   UNL d   1     -49.764  15.364  22.665  0.00  0.00     0.061 A 
ATOM     11  O   UNL d   1     -51.047  15.243  22.045  0.00  0.00    -0.267 OA
ATOM     12  C   UNL d   1     -50.677  13.680  21.630  0.00  0.00     0.083 A 
ATOM     13  C   UNL d   1     -49.767  12.579  21.629  0.00  0.00     0.003 A 
ATOM     14  C   UNL d   1     -50.497  12.902  21.422  0.00  0.00     0.019 A 
ENDROOT
BRANCH   2  15
ATOM     15  S   UNL d   1     -47.213  12.837  22.870  0.00  0.00     0.271 S 
ATOM     16  O   UNL d   1     -47.188  12.407  22.161  0.00  0.00    -0.200 OA
ATOM     17  O   UNL d   1     -47.232  13.267  23.583  0.00  0.00    -0.200 OA
BRANCH  15  18
ATOM     18  N   UNL d   1     -46.472  12.513  23.084  0.00  0.00    -0.231 N 
BRANCH  18  19
ATOM     19  C   UNL d   1     -45.789  12.737  22.687  0.00  0.00     0.075 A 
ATOM     20  C   UNL d   1     -45.152  12.213  22.649  0.00  0.00     0.018 A 
ATOM     21  C   UNL d   1     -44.467  12.425  22.257  0.00  0.00     0.002 A 
ATOM     22  C   UNL d   1     -43.823  11.896  22.219  0.00  0.00     0.000 C 
ATOM     23  C   UNL d   1     -44.414  13.166  21.897  0.00  0.00     0.000 A 
ATOM     24  C   UNL d   1     -45.051  13.689  21.934  0.00  0.00     0.002 A 
ATOM     25  C   UNL d   1     -45.734  13.466  22.332  0.00  0.00     0.018 A 
ENDBRANCH  18  19
BRANCH  18  26
ATOM     26  C   UNL d   1     -46.424  11.966  23.698  0.00  0.00     0.092 C 
ATOM     27  C   UNL d   1     -46.760  11.217  23.610  0.00  0.00     0.021 C 
ENDBRANCH  18  26
ENDBRANCH  15  18
ENDBRANCH   2  15
TORSDOF 4
ENDMDL
