MODEL 1
REMARK VINA RESULT:      -5.5      0.000      0.000
REMARK  5 active torsions:
REMARK  status: ('A' for Active; 'I' for Inactive)
REMARK    1  A    between atoms: C_9  and  N_1 
REMARK    2  A    between atoms: C_6  and  C_2 
REMARK    3  A    between atoms: O_10  and  C_6 
REMARK    4  A    between atoms: C_13  and  C_9 
REMARK    5  A    between atoms: C_19  and  O_10 
ROOT
ATOM      1  N   UNL d   1     -38.515  13.970  18.694  0.00  0.00    -0.271 N 
ATOM      2  C   UNL d   1     -39.217  14.439  19.721  0.00  0.00     0.120 A 
ATOM      3  C   UNL d   1     -38.554  13.992  19.518  0.00  0.00     0.177 A 
ATOM      4  C   UNL d   1     -39.150  14.401  18.393  0.00  0.00     0.167 A 
ATOM      5  C   UNL d   1     -39.582  14.689  19.023  0.00  0.00     0.124 A 
ATOM      6  N   UNL d   1     -39.385  14.563  17.619  0.00  0.00    -0.225 NA
ATOM      7  N   UNL d   1     -40.254  15.145  18.890  0.00  0.00    -0.241 NA
ATOM      8  C   UNL d   1     -40.052  15.015  17.479  0.00  0.00     0.101 A 
ATOM      9  C   UNL d   1     -40.486  15.305  18.118  0.00  0.00     0.099 A 
ATOM     10  N   UNL d   1     -38.023  13.630  20.041  0.00  0.00    -0.128 N 
ATOM     11  C   UNL d   1     -40.281  15.174  16.708  0.00  0.00     0.021 A 
ATOM     12  C   UNL d   1     -41.163  15.764  17.971  0.00  0.00     0.021 A 
ATOM     13  C   UNL d   1     -40.960  15.633  16.569  0.00  0.00     0.002 A 
ATOM     14  C   UNL d   1     -41.388  15.920  17.201  0.00  0.00     0.002 A 
ENDROOT
BRANCH   2  15
ATOM     15  C   UNL d   1     -39.471  14.607  20.496  0.00  0.00     0.300 C 
ATOM     16  O   UNL d   1     -39.917  14.064  20.906  0.00  0.00    -0.259 OA
BRANCH  15  17
ATOM     17  O   UNL d   1     -39.264  15.332  20.847  0.00  0.00    -0.303 OA
BRANCH  17  18
ATOM     18  C   UNL d   1     -39.453  15.465  21.638  0.00  0.00     0.102 C 
ATOM     19  C   UNL d   1     -40.247  15.604  21.430  0.00  0.00     0.030 C 
ATOM     20  C   UNL d   1     -38.665  15.327  21.853  0.00  0.00     0.030 C 
ATOM     21  C   UNL d   1     -39.639  15.598  22.438  0.00  0.00     0.030 C 
ENDBRANCH  17  18
ENDBRANCH  15  17
ENDBRANCH   2  15
BRANCH   1  22
ATOM     22  C   UNL d   1     -37.940  13.582  18.251  0.00  0.00     0.108 C 
BRANCH  22  23
ATOM     23  C   UNL d   1     -38.051  12.791  18.030  0.00  0.00     0.118 A 
ATOM     24  O   UNL d   1     -38.291  12.526  17.287  0.00  0.00    -0.304 OA
ATOM     25  C   UNL d   1     -38.328  11.698  17.315  0.00  0.00     0.123 A 
ATOM     26  C   UNL d   1     -38.111  11.468  18.071  0.00  0.00     0.029 A 
ATOM     27  C   UNL d   1     -37.940  12.135  18.513  0.00  0.00     0.028 A 
ENDBRANCH  22  23
ENDBRANCH   1  22
TORSDOF 5
ENDMDL
MODEL 2
REMARK VINA RESULT:      -4.9      8.938     10.578
REMARK  5 active torsions:
REMARK  status: ('A' for Active; 'I' for Inactive)
REMARK    1  A    between atoms: C_9  and  N_1 
REMARK    2  A    between atoms: C_6  and  C_2 
REMARK    3  A    between atoms: O_10  and  C_6 
REMARK    4  A    between atoms: C_13  and  C_9 
REMARK    5  A    between atoms: C_19  and  O_10 
ROOT
ATOM      1  N   UNL d   1     -48.677  14.404  23.080  0.00  0.00    -0.271 N 
ATOM      2  C   UNL d   1     -47.647  13.719  22.593  0.00  0.00     0.120 A 
ATOM      3  C   UNL d   1     -47.928  14.480  22.744  0.00  0.00     0.177 A 
ATOM      4  C   UNL d   1     -48.856  13.601  23.136  0.00  0.00     0.167 A 
ATOM      5  C   UNL d   1     -48.223  13.180  22.837  0.00  0.00     0.124 A 
ATOM      6  N   UNL d   1     -49.520  13.205  23.423  0.00  0.00    -0.225 NA
ATOM      7  N   UNL d   1     -48.244  12.357  22.821  0.00  0.00    -0.241 NA
ATOM      8  C   UNL d   1     -49.548  12.388  23.411  0.00  0.00     0.101 A 
ATOM      9  C   UNL d   1     -48.907  11.965  23.108  0.00  0.00     0.099 A 
ATOM     10  N   UNL d   1     -47.534  15.192  22.588  0.00  0.00    -0.128 N 
ATOM     11  C   UNL d   1     -50.211  12.000  23.698  0.00  0.00     0.021 A 
ATOM     12  C   UNL d   1     -48.941  11.136  23.097  0.00  0.00     0.021 A 
ATOM     13  C   UNL d   1     -50.236  11.169  23.684  0.00  0.00     0.002 A 
ATOM     14  C   UNL d   1     -49.603  10.752  23.384  0.00  0.00     0.002 A 
ENDROOT
BRANCH   2  15
ATOM     15  C   UNL d   1     -46.910  13.532  22.254  0.00  0.00     0.300 C 
ATOM     16  O   UNL d   1     -46.855  13.377  21.458  0.00  0.00    -0.259 OA
BRANCH  15  17
ATOM     17  O   UNL d   1     -46.232  13.505  22.736  0.00  0.00    -0.303 OA
BRANCH  17  18
ATOM     18  C   UNL d   1     -45.510  13.293  22.402  0.00  0.00     0.102 C 
ATOM     19  C   UNL d   1     -45.644  12.496  22.604  0.00  0.00     0.030 C 
ATOM     20  C   UNL d   1     -45.368  14.083  22.198  0.00  0.00     0.030 C 
ATOM     21  C   UNL d   1     -44.779  13.083  22.063  0.00  0.00     0.030 C 
ENDBRANCH  17  18
ENDBRANCH  15  17
ENDBRANCH   2  15
BRANCH   1  22
ATOM     22  C   UNL d   1     -49.162  15.025  23.318  0.00  0.00     0.108 C 
BRANCH  22  23
ATOM     23  C   UNL d   1     -49.824  15.231  22.863  0.00  0.00     0.118 A 
ATOM     24  O   UNL d   1     -49.829  15.350  22.046  0.00  0.00    -0.304 OA
ATOM     25  C   UNL d   1     -50.605  15.547  21.827  0.00  0.00     0.123 A 
ATOM     26  C   UNL d   1     -51.060  15.546  22.508  0.00  0.00     0.029 A 
ATOM     27  C   UNL d   1     -50.585  15.353  23.145  0.00  0.00     0.028 A 
ENDBRANCH  22  23
ENDBRANCH   1  22
TORSDOF 5
ENDMDL
MODEL 3
REMARK VINA RESULT:      -4.8      8.740     10.078
REMARK  5 active torsions:
REMARK  status: ('A' for Active; 'I' for Inactive)
REMARK    1  A    between atoms: C_9  and  N_1 
REMARK    2  A    between atoms: C_6  and  C_2 
REMARK    3  A    between atoms: O_10  and  C_6 
REMARK    4  A    between atoms: C_13  and  C_9 
REMARK    5  A    between atoms: C_19  and  O_10 
ROOT
ATOM      1  N   UNL d   1     -47.126  13.831  23.073  0.00  0.00    -0.271 N 
ATOM      2  C   UNL d   1     -48.338  14.344  22.890  0.00  0.00     0.120 A 
ATOM      3  C   UNL d   1     -47.533  14.526  22.893  0.00  0.00     0.177 A 
ATOM      4  C   UNL d   1     -47.676  13.227  23.180  0.00  0.00     0.167 A 
ATOM      5  C   UNL d   1     -48.422  13.542  23.067  0.00  0.00     0.124 A 
ATOM      6  N   UNL d   1     -47.586  12.429  23.366  0.00  0.00    -0.225 NA
ATOM      7  N   UNL d   1     -49.088  13.063  23.139  0.00  0.00    -0.241 NA
ATOM      8  C   UNL d   1     -48.243  11.948  23.439  0.00  0.00     0.101 A 
ATOM      9  C   UNL d   1     -48.995  12.269  23.325  0.00  0.00     0.099 A 
ATOM     10  N   UNL d   1     -47.193  15.266  22.744  0.00  0.00    -0.128 N 
ATOM     11  C   UNL d   1     -48.147  11.154  23.624  0.00  0.00     0.021 A 
ATOM     12  C   UNL d   1     -49.659  11.776  23.400  0.00  0.00     0.021 A 
ATOM     13  C   UNL d   1     -48.817  10.668  23.698  0.00  0.00     0.002 A 
ATOM     14  C   UNL d   1     -49.559  10.986  23.585  0.00  0.00     0.002 A 
ENDROOT
BRANCH   2  15
ATOM     15  C   UNL d   1     -48.956  14.880  22.734  0.00  0.00     0.300 C 
ATOM     16  O   UNL d   1     -48.850  15.479  22.194  0.00  0.00    -0.259 OA
BRANCH  15  17
ATOM     17  O   UNL d   1     -49.681  14.798  23.134  0.00  0.00    -0.303 OA
BRANCH  17  18
ATOM     18  C   UNL d   1     -50.273  15.358  23.013  0.00  0.00     0.102 C 
ATOM     19  C   UNL d   1     -50.033  15.767  23.697  0.00  0.00     0.030 C 
ATOM     20  C   UNL d   1     -50.517  14.958  22.330  0.00  0.00     0.030 C 
ATOM     21  C   UNL d   1     -50.872  15.922  22.886  0.00  0.00     0.030 C 
ENDBRANCH  17  18
ENDBRANCH  15  17
ENDBRANCH   2  15
BRANCH   1  22
ATOM     22  C   UNL d   1     -46.308  13.757  23.135  0.00  0.00     0.108 C 
BRANCH  22  23
ATOM     23  C   UNL d   1     -45.877  13.402  22.522  0.00  0.00     0.118 A 
ATOM     24  O   UNL d   1     -46.080  13.412  21.722  0.00  0.00    -0.304 OA
ATOM     25  C   UNL d   1     -45.495  12.991  21.311  0.00  0.00     0.123 A 
ATOM     26  C   UNL d   1     -44.946  12.731  21.861  0.00  0.00     0.029 A 
ATOM     27  C   UNL d   1     -45.177  12.981  22.605  0.00  0.00     0.028 A 
ENDBRANCH  22  23
ENDBRANCH   1  22
TORSDOF 5
ENDMDL
MODEL 4
REMARK VINA RESULT:      -4.5      1.187      3.802
REMARK  5 active torsions:
REMARK  status: ('A' for Active; 'I' for Inactive)
REMARK    1  A    between atoms: C_9  and  N_1 
REMARK    2  A    between atoms: C_6  and  C_2 
REMARK    3  A    between atoms: O_10  and  C_6 
REMARK    4  A    between atoms: C_13  and  C_9 
REMARK    5  A    between atoms: C_19  and  O_10 
ROOT
ATOM      1  N   UNL d   1     -38.754  14.582  19.407  0.00  0.00    -0.271 N 
ATOM      2  C   UNL d   1     -39.338  14.901  18.256  0.00  0.00     0.120 A 
ATOM      3  C   UNL d   1     -39.164  15.180  19.013  0.00  0.00     0.177 A 
ATOM      4  C   UNL d   1     -38.676  13.940  18.896  0.00  0.00     0.167 A 
ATOM      5  C   UNL d   1     -39.035  14.135  18.189  0.00  0.00     0.124 A 
ATOM      6  N   UNL d   1     -38.321  13.202  18.992  0.00  0.00    -0.225 NA
ATOM      7  N   UNL d   1     -39.044  13.596  17.567  0.00  0.00    -0.241 NA
ATOM      8  C   UNL d   1     -38.327  12.661  18.379  0.00  0.00     0.101 A 
ATOM      9  C   UNL d   1     -38.690  12.861  17.665  0.00  0.00     0.099 A 
ATOM     10  N   UNL d   1     -39.362  15.921  19.324  0.00  0.00    -0.128 N 
ATOM     11  C   UNL d   1     -37.972  11.928  18.480  0.00  0.00     0.021 A 
ATOM     12  C   UNL d   1     -38.693  12.308  17.046  0.00  0.00     0.021 A 
ATOM     13  C   UNL d   1     -37.980  11.381  17.855  0.00  0.00     0.002 A 
ATOM     14  C   UNL d   1     -38.339  11.579  17.150  0.00  0.00     0.002 A 
ENDROOT
BRANCH   2  15
ATOM     15  C   UNL d   1     -39.748  15.321  17.666  0.00  0.00     0.300 C 
ATOM     16  O   UNL d   1     -39.340  15.788  17.140  0.00  0.00    -0.259 OA
BRANCH  15  17
ATOM     17  O   UNL d   1     -40.576  15.260  17.620  0.00  0.00    -0.303 OA
BRANCH  17  18
ATOM     18  C   UNL d   1     -40.966  15.567  16.962  0.00  0.00     0.102 C 
ATOM     19  C   UNL d   1     -41.533  15.922  17.458  0.00  0.00     0.030 C 
ATOM     20  C   UNL d   1     -40.406  15.217  16.463  0.00  0.00     0.030 C 
ATOM     21  C   UNL d   1     -41.356  15.875  16.294  0.00  0.00     0.030 C 
ENDBRANCH  17  18
ENDBRANCH  15  17
ENDBRANCH   2  15
BRANCH   1  22
ATOM     22  C   UNL d   1     -38.471  14.622  20.179  0.00  0.00     0.108 C 
BRANCH  22  23
ATOM     23  C   UNL d   1     -38.962  14.405  20.811  0.00  0.00     0.118 A 
ATOM     24  O   UNL d   1     -39.779  14.296  20.771  0.00  0.00    -0.304 OA
ATOM     25  C   UNL d   1     -40.040  14.083  21.530  0.00  0.00     0.123 A 
ATOM     26  C   UNL d   1     -39.384  14.066  22.020  0.00  0.00     0.029 A 
ATOM     27  C   UNL d   1     -38.720  14.263  21.583  0.00  0.00     0.028 A 
ENDBRANCH  22  23
ENDBRANCH   1  22
TORSDOF 5
ENDMDL
MODEL 5
REMARK VINA RESULT:      -4.1      0.985      3.444
REMARK  5 active torsions:
REMARK  status: ('A' for Active; 'I' for Inactive)
REMARK    1  A    between atoms: C_9  and  N_1 
REMARK    2  A    between atoms: C_6  and  C_2 
REMARK    3  A    between atoms: O_10  and  C_6 
REMARK    4  A    between atoms: C_13  and  C_9 
REMARK    5  A    between atoms: C_19  and  O_10 
ROOT
ATOM      1  N   UNL d   1     -39.843  14.848  19.301  0.00  0.00    -0.271 N 
ATOM      2  C   UNL d   1     -39.241  14.095  18.387  0.00  0.00     0.120 A 
ATOM      3  C   UNL d   1     -39.230  14.310  19.184  0.00  0.00     0.177 A 
ATOM      4  C   UNL d   1     -40.229  14.965  18.582  0.00  0.00     0.167 A 
ATOM      5  C   UNL d   1     -39.859  14.502  18.020  0.00  0.00     0.124 A 
ATOM      6  N   UNL d   1     -40.872  15.437  18.375  0.00  0.00    -0.225 NA
ATOM      7  N   UNL d   1     -40.127  14.505  17.241  0.00  0.00    -0.241 NA
ATOM      8  C   UNL d   1     -41.143  15.445  17.603  0.00  0.00     0.101 A 
ATOM      9  C   UNL d   1     -40.767  14.976  17.037  0.00  0.00     0.099 A 
ATOM     10  N   UNL d   1     -38.703  14.037  19.761  0.00  0.00    -0.128 N 
ATOM     11  C   UNL d   1     -41.783  15.917  17.402  0.00  0.00     0.021 A 
ATOM     12  C   UNL d   1     -41.047  14.988  16.255  0.00  0.00     0.021 A 
ATOM     13  C   UNL d   1     -42.056  15.922  16.617  0.00  0.00     0.002 A 
ATOM     14  C   UNL d   1     -41.685  15.459  16.058  0.00  0.00     0.002 A 
ENDROOT
BRANCH   2  15
ATOM     15  C   UNL d   1     -38.718  13.561  18.021  0.00  0.00     0.300 C 
ATOM     16  O   UNL d   1     -38.081  13.839  17.597  0.00  0.00    -0.259 OA
BRANCH  15  17
ATOM     17  O   UNL d   1     -38.851  12.743  18.091  0.00  0.00    -0.303 OA
BRANCH  17  18
ATOM     18  C   UNL d   1     -38.399  12.221  17.642  0.00  0.00     0.102 C 
ATOM     19  C   UNL d   1     -38.716  12.542  16.942  0.00  0.00     0.030 C 
ATOM     20  C   UNL d   1     -38.079  11.897  18.333  0.00  0.00     0.030 C 
ATOM     21  C   UNL d   1     -37.940  11.693  17.191  0.00  0.00     0.030 C 
ENDBRANCH  17  18
ENDBRANCH  15  17
ENDBRANCH   2  15
BRANCH   1  22
ATOM     22  C   UNL d   1     -40.036  15.208  20.017  0.00  0.00     0.108 C 
BRANCH  22  23
ATOM     23  C   UNL d   1     -40.433  14.776  20.603  0.00  0.00     0.118 A 
ATOM     24  O   UNL d   1     -41.243  14.620  20.621  0.00  0.00    -0.304 OA
ATOM     25  C   UNL d   1     -41.397  14.173  21.303  0.00  0.00     0.123 A 
ATOM     26  C   UNL d   1     -40.684  14.062  21.690  0.00  0.00     0.029 A 
ATOM     27  C   UNL d   1     -40.090  14.431  21.264  0.00  0.00     0.028 A 
ENDBRANCH  22  23
ENDBRANCH   1  22
TORSDOF 5
ENDMDL
MODEL 6
REMARK VINA RESULT:      -3.7      7.789      9.146
REMARK  5 active torsions:
REMARK  status: ('A' for Active; 'I' for Inactive)
REMARK    1  A    between atoms: C_9  and  N_1 
REMARK    2  A    between atoms: C_6  and  C_2 
REMARK    3  A    between atoms: O_10  and  C_6 
REMARK    4  A    between atoms: C_13  and  C_9 
REMARK    5  A    between atoms: C_19  and  O_10 
ROOT
ATOM      1  N   UNL d   1     -47.361  11.868  23.450  0.00  0.00    -0.271 N 
ATOM      2  C   UNL d   1     -46.090  11.668  23.115  0.00  0.00     0.120 A 
ATOM      3  C   UNL d   1     -46.775  11.292  23.381  0.00  0.00     0.177 A 
ATOM      4  C   UNL d   1     -47.038  12.594  23.228  0.00  0.00     0.167 A 
ATOM      5  C   UNL d   1     -46.258  12.472  23.023  0.00  0.00     0.124 A 
ATOM      6  N   UNL d   1     -47.365  13.350  23.190  0.00  0.00    -0.225 NA
ATOM      7  N   UNL d   1     -45.791  13.103  22.776  0.00  0.00    -0.241 NA
ATOM      8  C   UNL d   1     -46.907  13.983  22.946  0.00  0.00     0.101 A 
ATOM      9  C   UNL d   1     -46.118  13.856  22.739  0.00  0.00     0.099 A 
ATOM     10  N   UNL d   1     -46.862  10.486  23.548  0.00  0.00    -0.128 N 
ATOM     11  C   UNL d   1     -47.237  14.733  22.910  0.00  0.00     0.021 A 
ATOM     12  C   UNL d   1     -45.658  14.501  22.491  0.00  0.00     0.021 A 
ATOM     13  C   UNL d   1     -46.769  15.373  22.661  0.00  0.00     0.002 A 
ATOM     14  C   UNL d   1     -45.990  15.247  22.457  0.00  0.00     0.002 A 
ENDROOT
BRANCH   2  15
ATOM     15  C   UNL d   1     -45.359  11.298  22.968  0.00  0.00     0.300 C 
ATOM     16  O   UNL d   1     -45.118  11.161  22.203  0.00  0.00    -0.259 OA
BRANCH  15  17
ATOM     17  O   UNL d   1     -44.878  11.070  23.608  0.00  0.00    -0.303 OA
BRANCH  17  18
ATOM     18  C   UNL d   1     -44.164  10.688  23.458  0.00  0.00     0.102 C 
ATOM     19  C   UNL d   1     -43.824  11.408  23.216  0.00  0.00     0.030 C 
ATOM     20  C   UNL d   1     -44.495   9.968  23.697  0.00  0.00     0.030 C 
ATOM     21  C   UNL d   1     -43.444  10.297  23.307  0.00  0.00     0.030 C 
ENDBRANCH  17  18
ENDBRANCH  15  17
ENDBRANCH   2  15
BRANCH   1  22
ATOM     22  C   UNL d   1     -48.135  11.739  23.698  0.00  0.00     0.108 C 
BRANCH  22  23
ATOM     23  C   UNL d   1     -48.746  11.691  23.139  0.00  0.00     0.118 A 
ATOM     24  O   UNL d   1     -48.733  11.241  22.447  0.00  0.00    -0.304 OA
ATOM     25  C   UNL d   1     -49.456  11.360  22.058  0.00  0.00     0.123 A 
ATOM     26  C   UNL d   1     -49.899  11.876  22.514  0.00  0.00     0.029 A 
ATOM     27  C   UNL d   1     -49.467  12.082  23.178  0.00  0.00     0.028 A 
ENDBRANCH  22  23
ENDBRANCH   1  22
TORSDOF 5
ENDMDL
MODEL 7
REMARK VINA RESULT:      -3.5      1.931      4.554
REMARK  5 active torsions:
REMARK  status: ('A' for Active; 'I' for Inactive)
REMARK    1  A    between atoms: C_9  and  N_1 
REMARK    2  A    between atoms: C_6  and  C_2 
REMARK    3  A    between atoms: O_10  and  C_6 
REMARK    4  A    between atoms: C_13  and  C_9 
REMARK    5  A    between atoms: C_19  and  O_10 
ROOT
ATOM      1  N   UNL d   1     -40.753  14.425  20.356  0.00  0.00    -0.271 N 
ATOM      2  C   UNL d   1     -39.709  14.210  19.562  0.00  0.00     0.120 A 
ATOM      3  C   UNL d   1     -40.499  14.448  19.572  0.00  0.00     0.177 A 
ATOM      4  C   UNL d   1     -40.124  14.173  20.826  0.00  0.00     0.167 A 
ATOM      5  C   UNL d   1     -39.482  14.042  20.338  0.00  0.00     0.124 A 
ATOM      6  N   UNL d   1     -40.061  14.050  21.639  0.00  0.00    -0.225 NA
ATOM      7  N   UNL d   1     -38.767  13.784  20.656  0.00  0.00    -0.241 NA
ATOM      8  C   UNL d   1     -39.354  13.794  21.961  0.00  0.00     0.101 A 
ATOM      9  C   UNL d   1     -38.708  13.662  21.466  0.00  0.00     0.099 A 
ATOM     10  N   UNL d   1     -40.955  14.671  18.918  0.00  0.00    -0.128 N 
ATOM     11  C   UNL d   1     -39.298  13.673  22.771  0.00  0.00     0.021 A 
ATOM     12  C   UNL d   1     -37.992  13.402  21.799  0.00  0.00     0.021 A 
ATOM     13  C   UNL d   1     -38.578  13.413  23.095  0.00  0.00     0.002 A 
ATOM     14  C   UNL d   1     -37.940  13.282  22.606  0.00  0.00     0.002 A 
ENDROOT
BRANCH   2  15
ATOM     15  C   UNL d   1     -39.228  14.152  18.885  0.00  0.00     0.300 C 
ATOM     16  O   UNL d   1     -38.689  14.737  18.716  0.00  0.00    -0.259 OA
BRANCH  15  17
ATOM     17  O   UNL d   1     -39.302  13.491  18.385  0.00  0.00    -0.303 OA
BRANCH  17  18
ATOM     18  C   UNL d   1     -38.808  13.425  17.729  0.00  0.00     0.102 C 
ATOM     19  C   UNL d   1     -38.362  12.840  18.118  0.00  0.00     0.030 C 
ATOM     20  C   UNL d   1     -39.247  14.007  17.336  0.00  0.00     0.030 C 
ATOM     21  C   UNL d   1     -38.311  13.362  17.064  0.00  0.00     0.030 C 
ENDBRANCH  17  18
ENDBRANCH  15  17
ENDBRANCH   2  15
BRANCH   1  22
ATOM     22  C   UNL d   1     -41.508  14.619  20.622  0.00  0.00     0.108 C 
BRANCH  22  23
ATOM     23  C   UNL d   1     -42.057  14.019  20.782  0.00  0.00     0.118 A 
ATOM     24  O   UNL d   1     -42.204  13.361  20.307  0.00  0.00    -0.304 OA
ATOM     25  C   UNL d   1     -42.794  12.910  20.679  0.00  0.00     0.123 A 
ATOM     26  C   UNL d   1     -42.998  13.296  21.371  0.00  0.00     0.029 A 
ATOM     27  C   UNL d   1     -42.548  13.977  21.439  0.00  0.00     0.028 A 
ENDBRANCH  22  23
ENDBRANCH   1  22
TORSDOF 5
ENDMDL
MODEL 8
REMARK VINA RESULT:      -2.9      1.848      3.078
REMARK  5 active torsions:
REMARK  status: ('A' for Active; 'I' for Inactive)
REMARK    1  A    between atoms: C_9  and  N_1 
REMARK    2  A    between atoms: C_6  and  C_2 
REMARK    3  A    between atoms: O_10  and  C_6 
REMARK    4  A    between atoms: C_13  and  C_9 
REMARK    5  A    between atoms: C_19  and  O_10 
ROOT
ATOM      1  N   UNL d   1     -40.169  15.272  19.737  0.00  0.00    -0.271 N 
ATOM      2  C   UNL d   1     -39.566  15.001  20.890  0.00  0.00     0.120 A 
ATOM      3  C   UNL d   1     -39.496  15.428  20.187  0.00  0.00     0.177 A 
ATOM      4  C   UNL d   1     -40.650  14.753  20.160  0.00  0.00     0.167 A 
ATOM      5  C   UNL d   1     -40.280  14.586  20.868  0.00  0.00     0.124 A 
ATOM      6  N   UNL d   1     -41.381  14.414  19.982  0.00  0.00    -0.225 NA
ATOM      7  N   UNL d   1     -40.634  14.077  21.410  0.00  0.00    -0.241 NA
ATOM      8  C   UNL d   1     -41.738  13.907  20.516  0.00  0.00     0.101 A 
ATOM      9  C   UNL d   1     -41.362  13.741  21.231  0.00  0.00     0.099 A 
ATOM     10  N   UNL d   1     -38.868  15.922  19.970  0.00  0.00    -0.128 N 
ATOM     11  C   UNL d   1     -42.465  13.573  20.334  0.00  0.00     0.021 A 
ATOM     12  C   UNL d   1     -41.729  13.226  21.769  0.00  0.00     0.021 A 
ATOM     13  C   UNL d   1     -42.826  13.059  20.878  0.00  0.00     0.002 A 
ATOM     14  C   UNL d   1     -42.453  12.895  21.585  0.00  0.00     0.002 A 
ENDROOT
BRANCH   2  15
ATOM     15  C   UNL d   1     -39.011  14.993  21.510  0.00  0.00     0.300 C 
ATOM     16  O   UNL d   1     -38.431  14.423  21.532  0.00  0.00    -0.259 OA
BRANCH  15  17
ATOM     17  O   UNL d   1     -39.054  15.572  22.107  0.00  0.00    -0.303 OA
BRANCH  17  18
ATOM     18  C   UNL d   1     -38.511  15.553  22.726  0.00  0.00     0.102 C 
ATOM     19  C   UNL d   1     -37.940  15.915  22.241  0.00  0.00     0.030 C 
ATOM     20  C   UNL d   1     -39.074  15.192  23.214  0.00  0.00     0.030 C 
ATOM     21  C   UNL d   1     -37.965  15.532  23.354  0.00  0.00     0.030 C 
ENDBRANCH  17  18
ENDBRANCH  15  17
ENDBRANCH   2  15
BRANCH   1  22
ATOM     22  C   UNL d   1     -40.331  15.583  18.992  0.00  0.00     0.108 C 
BRANCH  22  23
ATOM     23  C   UNL d   1     -40.085  15.177  18.312  0.00  0.00     0.118 A 
ATOM     24  O   UNL d   1     -39.318  14.911  18.160  0.00  0.00    -0.304 OA
ATOM     25  C   UNL d   1     -39.325  14.538  17.419  0.00  0.00     0.123 A 
ATOM     26  C   UNL d   1     -40.090  14.580  17.130  0.00  0.00     0.029 A 
ATOM     27  C   UNL d   1     -40.559  14.972  17.674  0.00  0.00     0.028 A 
ENDBRANCH  22  23
ENDBRANCH   1  22
TORSDOF 5
ENDMDL
MODEL 9
REMARK VINA RESULT:      -2.7      1.914      3.209
REMARK  5 active torsions:
REMARK  status: ('A' for Active; 'I' for Inactive)
REMARK    1  A    between atoms: C_9  and  N_1 
REMARK    2  A    between atoms: C_6  and  C_2 
REMARK    3  A    between atoms: O_10  and  C_6 
REMARK    4  A    between atoms: C_13  and  C_9 
REMARK    5  A    between atoms: C_19  and  O_10 
ROOT
ATOM      1  N   UNL d   1     -39.312  14.281  20.688  0.00  0.00    -0.271 N 
ATOM      2  C   UNL d   1     -40.634  14.149  20.659  0.00  0.00     0.120 A 
ATOM      3  C   UNL d   1     -39.969  14.083  21.144  0.00  0.00     0.177 A 
ATOM      4  C   UNL d   1     -39.570  14.468  19.928  0.00  0.00     0.167 A 
ATOM      5  C   UNL d   1     -40.382  14.387  19.910  0.00  0.00     0.124 A 
ATOM      6  N   UNL d   1     -39.160  14.703  19.251  0.00  0.00    -0.225 NA
ATOM      7  N   UNL d   1     -40.798  14.539  19.215  0.00  0.00    -0.241 NA
ATOM      8  C   UNL d   1     -39.566  14.855  18.558  0.00  0.00     0.101 A 
ATOM      9  C   UNL d   1     -40.387  14.772  18.543  0.00  0.00     0.099 A 
ATOM     10  N   UNL d   1     -39.960  13.859  21.941  0.00  0.00    -0.128 N 
ATOM     11  C   UNL d   1     -39.154  15.088  17.888  0.00  0.00     0.021 A 
ATOM     12  C   UNL d   1     -40.795  14.929  17.836  0.00  0.00     0.021 A 
ATOM     13  C   UNL d   1     -39.569  15.242  17.185  0.00  0.00     0.002 A 
ATOM     14  C   UNL d   1     -40.380  15.160  17.171  0.00  0.00     0.002 A 
ENDROOT
BRANCH   2  15
ATOM     15  C   UNL d   1     -41.420  14.001  20.890  0.00  0.00     0.300 C 
ATOM     16  O   UNL d   1     -41.886  14.608  21.164  0.00  0.00    -0.259 OA
BRANCH  15  17
ATOM     17  O   UNL d   1     -41.724  13.228  20.838  0.00  0.00    -0.303 OA
BRANCH  17  18
ATOM     18  C   UNL d   1     -42.485  13.076  21.114  0.00  0.00     0.102 C 
ATOM     19  C   UNL d   1     -42.174  12.820  21.843  0.00  0.00     0.030 C 
ATOM     20  C   UNL d   1     -42.801  13.329  20.392  0.00  0.00     0.030 C 
ATOM     21  C   UNL d   1     -43.256  12.923  21.389  0.00  0.00     0.030 C 
ENDBRANCH  17  18
ENDBRANCH  15  17
ENDBRANCH   2  15
BRANCH   1  22
ATOM     22  C   UNL d   1     -38.531  14.290  20.949  0.00  0.00     0.108 C 
BRANCH  22  23
ATOM     23  C   UNL d   1     -38.303  14.811  21.553  0.00  0.00     0.118 A 
ATOM     24  O   UNL d   1     -38.198  15.625  21.474  0.00  0.00    -0.304 OA
ATOM     25  C   UNL d   1     -37.970  15.922  22.215  0.00  0.00     0.123 A 
ATOM     26  C   UNL d   1     -37.940  15.289  22.734  0.00  0.00     0.029 A 
ATOM     27  C   UNL d   1     -38.143  14.605  22.332  0.00  0.00     0.028 A 
ENDBRANCH  22  23
ENDBRANCH   1  22
TORSDOF 5
ENDMDL
