MODEL 1
REMARK VINA RESULT:      18.3      0.000      0.000
REMARK  4 active torsions:
REMARK  status: ('A' for Active; 'I' for Inactive)
REMARK    1  A    between atoms: C_6  and  C_1 
REMARK       I    between atoms: N_11  and  C_6 
REMARK    2  A    between atoms: O_14  and  C_9 
REMARK    3  A    between atoms: C_16  and  N_11 
REMARK    4  A    between atoms: C_12  and  C_16 
ROOT
ATOM      1  C   UNL d   1      13.792  12.543  -2.708  0.00  0.00     0.121 A 
ATOM      2  C   UNL d   1      13.977  13.352  -2.635  0.00  0.00     0.305 A 
ATOM      3  O   UNL d   1      14.336  13.630  -1.935  0.00  0.00    -0.271 OA
ATOM      4  C   UNL d   1      13.966  12.008  -2.083  0.00  0.00     0.012 A 
ATOM      5  C   UNL d   1      14.510  13.110  -1.318  0.00  0.00     0.125 A 
ATOM      6  C   UNL d   1      14.323  12.302  -1.395  0.00  0.00     0.025 A 
ATOM      7  O   UNL d   1      13.805  13.876  -3.249  0.00  0.00    -0.259 OA
ATOM      8  C   UNL d   1      14.863  13.383  -0.630  0.00  0.00     0.117 A 
ATOM      9  C   UNL d   1      14.497  11.780  -0.776  0.00  0.00     0.002 A 
ATOM     10  C   UNL d   1      14.852  12.062  -0.088  0.00  0.00     0.002 A 
ATOM     11  C   UNL d   1      15.035  12.863  -0.015  0.00  0.00     0.026 A 
ENDROOT
BRANCH   1  12
ATOM     12  C   UNL d   1      13.437  12.261  -3.396  0.00  0.00     0.284 C 
ATOM     13  O   UNL d   1      12.769  11.779  -3.350  0.00  0.00    -0.265 OA
ATOM     14  N   UNL d   1      13.750  12.463  -4.130  0.00  0.00    -0.206 NA
BRANCH  14  15
ATOM     15  C   UNL d   1      13.395  12.181  -4.827  0.00  0.00     0.102 C 
BRANCH  15  16
ATOM     16  C   UNL d   1      13.866  11.919  -5.451  0.00  0.00     0.021 C 
ATOM     17  C   UNL d   1      13.543  11.834  -6.204  0.00  0.00     0.002 C 
ENDBRANCH  15  16
ENDBRANCH  14  15
ENDBRANCH   1  12
BRANCH   8  18
ATOM     18  O   UNL d   1      15.046  14.184  -0.557  0.00  0.00    -0.326 OA
ATOM     19  C   UNL d   1      15.666  14.423  -0.071  0.00  0.00     0.181 C 
ENDBRANCH   8  18
TORSDOF 4
ENDMDL
