MODEL 1
REMARK VINA RESULT:      -1.9      0.000      0.000
REMARK  5 active torsions:
REMARK  status: ('A' for Active; 'I' for Inactive)
REMARK    1  A    between atoms: C_7  and  N_1 
REMARK    2  A    between atoms: C_6  and  C_2 
REMARK    3  A    between atoms: C_8  and  C_6 
REMARK    4  A    between atoms: C_12  and  C_7 
REMARK    5  A    between atoms: C_9  and  C_8 
ROOT
ATOM      1  N   UNL d   1     -41.299-122.163 -51.721  0.00  0.00    -0.289 N 
ATOM      2  C   UNL d   1     -41.362-122.878 -52.275  0.00  0.00     0.148 A 
ATOM      3  N   UNL d   1     -41.458-123.620 -51.750  0.00  0.00    -0.227 NA
ATOM      4  C   UNL d   1     -41.356-122.453 -50.838  0.00  0.00     0.083 A 
ATOM      5  C   UNL d   1     -41.456-123.368 -50.856  0.00  0.00     0.099 A 
ATOM      6  C   UNL d   1     -41.330-122.009 -50.037  0.00  0.00     0.019 A 
ATOM      7  C   UNL d   1     -41.527-123.816 -50.073  0.00  0.00     0.021 A 
ATOM      8  C   UNL d   1     -41.403-122.480 -49.268  0.00  0.00     0.002 A 
ATOM      9  C   UNL d   1     -41.503-123.394 -49.286  0.00  0.00     0.002 A 
ENDROOT
BRANCH   2  10
ATOM     10  C   UNL d   1     -41.301-122.497 -52.956  0.00  0.00     0.037 C 
BRANCH  10  11
ATOM     11  C   UNL d   1     -41.300-122.856 -53.669  0.00  0.00     0.003 C 
BRANCH  11  12
ATOM     12  C   UNL d   1     -41.639-122.532 -54.332  0.00  0.00     0.000 A 
ATOM     13  C   UNL d   1     -41.167-122.389 -54.995  0.00  0.00     0.000 A 
ATOM     14  C   UNL d   1     -41.505-122.061 -55.668  0.00  0.00     0.000 A 
ATOM     15  C   UNL d   1     -42.298-121.876 -55.689  0.00  0.00     0.000 A 
ATOM     16  C   UNL d   1     -42.769-122.019 -55.026  0.00  0.00     0.000 A 
ATOM     17  C   UNL d   1     -42.432-122.342 -54.365  0.00  0.00     0.000 A 
ENDBRANCH  11  12
ENDBRANCH  10  11
ENDBRANCH   2  10
BRANCH   1  18
ATOM     18  C   UNL d   1     -41.238-121.493 -51.286  0.00  0.00     0.082 C 
BRANCH  18  19
ATOM     19  C   UNL d   1     -41.171-120.773 -51.693  0.00  0.00     0.018 C 
ATOM     20  C   UNL d   1     -41.123-120.076 -51.258  0.00  0.00     0.002 C 
ATOM     21  C   UNL d   1     -41.123-120.360 -52.392  0.00  0.00     0.002 C 
ENDBRANCH  18  19
ENDBRANCH   1  18
TORSDOF 5
ENDMDL
MODEL 2
REMARK VINA RESULT:      -1.9      1.521      2.435
REMARK  5 active torsions:
REMARK  status: ('A' for Active; 'I' for Inactive)
REMARK    1  A    between atoms: C_7  and  N_1 
REMARK    2  A    between atoms: C_6  and  C_2 
REMARK    3  A    between atoms: C_8  and  C_6 
REMARK    4  A    between atoms: C_12  and  C_7 
REMARK    5  A    between atoms: C_9  and  C_8 
ROOT
ATOM      1  N   UNL d   1     -42.344-122.996 -49.920  0.00  0.00    -0.289 N 
ATOM      2  C   UNL d   1     -41.580-123.352 -50.254  0.00  0.00     0.148 A 
ATOM      3  N   UNL d   1     -41.123-123.719 -49.552  0.00  0.00    -0.227 NA
ATOM      4  C   UNL d   1     -42.372-123.137 -49.000  0.00  0.00     0.083 A 
ATOM      5  C   UNL d   1     -41.606-123.591 -48.769  0.00  0.00     0.099 A 
ATOM      6  C   UNL d   1     -42.987-122.914 -48.358  0.00  0.00     0.019 A 
ATOM      7  C   UNL d   1     -41.471-123.811 -47.902  0.00  0.00     0.021 A 
ATOM      8  C   UNL d   1     -42.830-123.146 -47.497  0.00  0.00     0.002 A 
ATOM      9  C   UNL d   1     -42.063-123.599 -47.266  0.00  0.00     0.002 A 
ENDROOT
BRANCH   2  10
ATOM     10  C   UNL d   1     -41.689-123.166 -51.006  0.00  0.00     0.037 C 
BRANCH  10  11
ATOM     11  C   UNL d   1     -41.300-123.510 -51.612  0.00  0.00     0.003 C 
BRANCH  11  12
ATOM     12  C   UNL d   1     -41.357-123.256 -52.381  0.00  0.00     0.000 A 
ATOM     13  C   UNL d   1     -41.653-123.773 -52.953  0.00  0.00     0.000 A 
ATOM     14  C   UNL d   1     -41.714-123.521 -53.733  0.00  0.00     0.000 A 
ATOM     15  C   UNL d   1     -41.487-122.769 -53.947  0.00  0.00     0.000 A 
ATOM     16  C   UNL d   1     -41.191-122.252 -53.375  0.00  0.00     0.000 A 
ATOM     17  C   UNL d   1     -41.132-122.505 -52.608  0.00  0.00     0.000 A 
ENDBRANCH  11  12
ENDBRANCH  10  11
ENDBRANCH   2  10
BRANCH   1  18
ATOM     18  C   UNL d   1     -43.034-122.663 -49.688  0.00  0.00     0.082 C 
BRANCH  18  19
ATOM     19  C   UNL d   1     -43.373-122.090 -50.184  0.00  0.00     0.018 C 
ATOM     20  C   UNL d   1     -44.088-122.260 -50.553  0.00  0.00     0.002 C 
ATOM     21  C   UNL d   1     -43.349-121.355 -50.531  0.00  0.00     0.002 C 
ENDBRANCH  18  19
ENDBRANCH   1  18
TORSDOF 5
ENDMDL
