MODEL 1
REMARK VINA RESULT:      -1.7      0.000      0.000
REMARK  4 active torsions:
REMARK  status: ('A' for Active; 'I' for Inactive)
REMARK    1  A    between atoms: N_2  and  C_1 
REMARK       I    between atoms: C_6  and  N_2 
REMARK    2  A    between atoms: C_16  and  N_3 
REMARK    3  A    between atoms: C_8  and  C_6 
REMARK    4  A    between atoms: O_19  and  C_12 
ROOT
ATOM      1  C   UNL d   1      32.745  20.786 -20.672  0.00  0.00    -0.031 C 
ATOM      2  C   UNL d   1      33.213  20.386 -20.107  0.00  0.00    -0.008 C 
ATOM      3  C   UNL d   1      32.280  21.181 -21.230  0.00  0.00     0.133 C 
ENDROOT
BRANCH   3   4
ATOM      4  N   UNL d   1      32.603  21.377 -21.980  0.00  0.00    -0.276 N 
ATOM      5  C   UNL d   1      32.861  20.847 -22.566  0.00  0.00     0.183 A 
ATOM      6  S   UNL d   1      33.130  21.266 -23.194  0.00  0.00    -0.048 SA
ATOM      7  C   UNL d   1      33.054  22.076 -23.032  0.00  0.00     0.050 A 
ATOM      8  C   UNL d   1      33.235  22.740 -23.460  0.00  0.00     0.008 A 
ATOM      9  C   UNL d   1      32.726  22.132 -22.275  0.00  0.00     0.095 A 
ATOM     10  C   UNL d   1      33.095  23.494 -23.147  0.00  0.00     0.003 A 
ATOM     11  C   UNL d   1      32.760  23.554 -22.375  0.00  0.00     0.026 A 
ATOM     12  C   UNL d   1      32.585  22.882 -21.960  0.00  0.00     0.111 A 
BRANCH   5  13
ATOM     13  N   UNL d   1      32.845  19.999 -22.518  0.00  0.00    -0.183 NA
ATOM     14  C   UNL d   1      32.969  19.555 -23.193  0.00  0.00     0.287 C 
ATOM     15  O   UNL d   1      33.109  19.920 -23.922  0.00  0.00    -0.265 OA
BRANCH  14  16
ATOM     16  C   UNL d   1      32.954  18.731 -23.145  0.00  0.00     0.087 A 
ATOM     17  S   UNL d   1      32.644  18.199 -23.717  0.00  0.00    -0.082 SA
ATOM     18  C   UNL d   1      32.744  17.437 -23.442  0.00  0.00     0.036 A 
ATOM     19  C   UNL d   1      33.111  17.475 -22.708  0.00  0.00     0.008 A 
ATOM     20  C   UNL d   1      33.239  18.265 -22.527  0.00  0.00     0.012 A 
ENDBRANCH  14  16
ENDBRANCH   5  13
BRANCH  12  21
ATOM     21  O   UNL d   1      32.251  22.956 -21.192  0.00  0.00    -0.327 OA
ATOM     22  C   UNL d   1      32.027  23.702 -20.916  0.00  0.00     0.181 C 
ENDBRANCH  12  21
ENDBRANCH   3   4
TORSDOF 4
ENDMDL
MODEL 2
REMARK VINA RESULT:      -0.7      2.155      5.310
REMARK  4 active torsions:
REMARK  status: ('A' for Active; 'I' for Inactive)
REMARK    1  A    between atoms: N_2  and  C_1 
REMARK       I    between atoms: C_6  and  N_2 
REMARK    2  A    between atoms: C_16  and  N_3 
REMARK    3  A    between atoms: C_8  and  C_6 
REMARK    4  A    between atoms: O_19  and  C_12 
ROOT
ATOM      1  C   UNL d   1      30.608  18.267 -24.479  0.00  0.00    -0.031 C 
ATOM      2  C   UNL d   1      30.240  18.787 -25.020  0.00  0.00    -0.008 C 
ATOM      3  C   UNL d   1      30.971  17.753 -23.942  0.00  0.00     0.133 C 
ENDROOT
BRANCH   3   4
ATOM      4  N   UNL d   1      31.759  17.497 -24.076  0.00  0.00    -0.276 N 
ATOM      5  C   UNL d   1      32.456  17.911 -23.895  0.00  0.00     0.183 A 
ATOM      6  S   UNL d   1      33.086  17.467 -24.114  0.00  0.00    -0.048 SA
ATOM      7  C   UNL d   1      32.814  16.755 -24.442  0.00  0.00     0.050 A 
ATOM      8  C   UNL d   1      33.199  16.111 -24.749  0.00  0.00     0.008 A 
ATOM      9  C   UNL d   1      31.989  16.785 -24.412  0.00  0.00     0.095 A 
ATOM     10  C   UNL d   1      32.771  15.466 -25.042  0.00  0.00     0.003 A 
ATOM     11  C   UNL d   1      31.929  15.494 -25.014  0.00  0.00     0.026 A 
ATOM     12  C   UNL d   1      31.559  16.144 -24.704  0.00  0.00     0.111 A 
BRANCH   5  13
ATOM     13  N   UNL d   1      32.504  18.680 -23.537  0.00  0.00    -0.183 NA
ATOM     14  C   UNL d   1      32.894  18.768 -22.823  0.00  0.00     0.287 C 
ATOM     15  O   UNL d   1      33.241  18.119 -22.446  0.00  0.00    -0.265 OA
BRANCH  14  16
ATOM     16  C   UNL d   1      32.940  19.515 -22.476  0.00  0.00     0.087 A 
ATOM     17  S   UNL d   1      33.062  20.247 -22.870  0.00  0.00    -0.082 SA
ATOM     18  C   UNL d   1      33.069  20.843 -22.313  0.00  0.00     0.036 A 
ATOM     19  C   UNL d   1      32.954  20.504 -21.573  0.00  0.00     0.008 A 
ATOM     20  C   UNL d   1      32.875  19.694 -21.673  0.00  0.00     0.012 A 
ENDBRANCH  14  16
ENDBRANCH   5  13
BRANCH  12  21
ATOM     21  O   UNL d   1      30.719  16.159 -24.681  0.00  0.00    -0.327 OA
ATOM     22  C   UNL d   1      30.296  15.454 -24.770  0.00  0.00     0.181 C 
ENDBRANCH  12  21
ENDBRANCH   3   4
TORSDOF 4
ENDMDL
MODEL 3
REMARK VINA RESULT:      -0.0      4.122      5.800
REMARK  4 active torsions:
REMARK  status: ('A' for Active; 'I' for Inactive)
REMARK    1  A    between atoms: N_2  and  C_1 
REMARK       I    between atoms: C_6  and  N_2 
REMARK    2  A    between atoms: C_16  and  N_3 
REMARK    3  A    between atoms: C_8  and  C_6 
REMARK    4  A    between atoms: O_19  and  C_12 
ROOT
ATOM      1  C   UNL d   1      30.343  18.418 -24.605  0.00  0.00    -0.031 C 
ATOM      2  C   UNL d   1      29.854  18.883 -25.097  0.00  0.00    -0.008 C 
ATOM      3  C   UNL d   1      30.828  17.958 -24.116  0.00  0.00     0.133 C 
ENDROOT
BRANCH   3   4
ATOM      4  N   UNL d   1      31.080  17.200 -24.373  0.00  0.00    -0.276 N 
ATOM      5  C   UNL d   1      30.611  16.518 -24.453  0.00  0.00     0.183 A 
ATOM      6  S   UNL d   1      31.071  15.915 -24.713  0.00  0.00    -0.048 SA
ATOM      7  C   UNL d   1      31.848  16.190 -24.807  0.00  0.00     0.050 A 
ATOM      8  C   UNL d   1      32.531  15.827 -25.051  0.00  0.00     0.008 A 
ATOM      9  C   UNL d   1      31.841  16.988 -24.593  0.00  0.00     0.095 A 
ATOM     10  C   UNL d   1      33.241  16.251 -25.091  0.00  0.00     0.003 A 
ATOM     11  C   UNL d   1      33.238  17.066 -24.873  0.00  0.00     0.026 A 
ATOM     12  C   UNL d   1      32.547  17.414 -24.632  0.00  0.00     0.111 A 
BRANCH   5  13
ATOM     13  N   UNL d   1      29.779  16.460 -24.289  0.00  0.00    -0.183 NA
ATOM     14  C   UNL d   1      29.517  15.936 -23.718  0.00  0.00     0.287 C 
ATOM     15  O   UNL d   1      30.050  15.462 -23.300  0.00  0.00    -0.265 OA
BRANCH  14  16
ATOM     16  C   UNL d   1      28.710  15.880 -23.560  0.00  0.00     0.087 A 
ATOM     17  S   UNL d   1      28.129  15.497 -24.032  0.00  0.00    -0.082 SA
ATOM     18  C   UNL d   1      27.404  15.577 -23.666  0.00  0.00     0.036 A 
ATOM     19  C   UNL d   1      27.512  16.004 -22.972  0.00  0.00     0.008 A 
ATOM     20  C   UNL d   1      28.309  16.188 -22.908  0.00  0.00     0.012 A 
ENDBRANCH  14  16
ENDBRANCH   5  13
BRANCH  12  21
ATOM     21  O   UNL d   1      32.556  18.227 -24.417  0.00  0.00    -0.327 OA
ATOM     22  C   UNL d   1      33.219  18.688 -24.599  0.00  0.00     0.181 C 
ENDBRANCH  12  21
ENDBRANCH   3   4
TORSDOF 4
ENDMDL
