MODEL 1
REMARK VINA RESULT:      -7.8      0.000      0.000
REMARK  4 active torsions:
REMARK  status: ('A' for Active; 'I' for Inactive)
REMARK    1  A    between atoms: N_8  and  C_1 
REMARK    2  A    between atoms: C_13  and  C_2 
REMARK    3  A    between atoms: C_6  and  C_11 
REMARK       I    between atoms: C_11  and  N_8 
REMARK    4  A    between atoms: O_20  and  C_13 
ROOT
ATOM      1  C   UNL d   1     -48.058  13.476  22.691  0.00  0.00     0.119 A 
ATOM      2  C   UNL d   1     -48.750  13.073  22.891  0.00  0.00     0.087 A 
ATOM      3  C   UNL d   1     -49.332  13.634  23.034  0.00  0.00     0.008 A 
ATOM      4  C   UNL d   1     -49.012  14.376  22.927  0.00  0.00     0.028 A 
ATOM      5  S   UNL d   1     -48.218  14.286  22.713  0.00  0.00    -0.070 SA
ATOM      6  C   UNL d   1     -49.476  15.055  23.035  0.00  0.00     0.104 A 
ATOM      7  N   UNL d   1     -50.266  14.978  23.253  0.00  0.00    -0.294 NA
ATOM      8  C   UNL d   1     -50.591  14.224  23.362  0.00  0.00     0.099 A 
ATOM      9  C   UNL d   1     -50.126  13.550  23.253  0.00  0.00    -0.004 A 
ATOM     10  C   UNL d   1     -49.767  15.827  23.094  0.00  0.00     0.029 C 
ATOM     11  C   UNL d   1     -48.733  15.342  22.825  0.00  0.00     0.029 C 
ATOM     12  C   UNL d   1     -50.916  13.472  23.470  0.00  0.00     0.029 C 
ATOM     13  C   UNL d   1     -51.060  14.893  23.471  0.00  0.00     0.029 C 
ENDROOT
BRANCH   1  14
ATOM     14  N   UNL d   1     -47.329  13.134  22.501  0.00  0.00    -0.200 NA
ATOM     15  C   UNL d   1     -46.628  13.485  22.759  0.00  0.00     0.303 C 
ATOM     16  O   UNL d   1     -46.657  14.176  23.205  0.00  0.00    -0.263 OA
BRANCH  15  17
ATOM     17  C   UNL d   1     -45.910  13.149  22.572  0.00  0.00     0.169 A 
ATOM     18  N   UNL d   1     -45.547  12.500  22.947  0.00  0.00    -0.234 NA
ATOM     19  C   UNL d   1     -44.822  12.359  22.564  0.00  0.00     0.088 A 
ATOM     20  C   UNL d   1     -44.227  11.799  22.684  0.00  0.00     0.020 A 
ATOM     21  C   UNL d   1     -44.763  12.927  21.964  0.00  0.00     0.049 A 
ATOM     22  C   UNL d   1     -43.564  11.805  22.201  0.00  0.00     0.002 A 
ATOM     23  C   UNL d   1     -43.490  12.367  21.598  0.00  0.00     0.001 A 
ATOM     24  C   UNL d   1     -44.081  12.921  21.480  0.00  0.00     0.008 A 
ATOM     25  S   UNL d   1     -45.422  13.396  21.979  0.00  0.00    -0.062 SA
ENDBRANCH  15  17
ENDBRANCH   1  14
BRANCH   2  26
ATOM     26  C   UNL d   1     -48.827  12.259  22.934  0.00  0.00     0.298 C 
ATOM     27  O   UNL d   1     -48.933  11.828  22.234  0.00  0.00    -0.259 OA
BRANCH  26  28
ATOM     28  O   UNL d   1     -48.799  11.868  23.670  0.00  0.00    -0.296 OA
ATOM     29  C   UNL d   1     -48.794  11.046  23.698  0.00  0.00     0.185 C 
ENDBRANCH  26  28
ENDBRANCH   2  26
TORSDOF 4
ENDMDL
MODEL 2
REMARK VINA RESULT:      -7.7      1.083      1.314
REMARK  4 active torsions:
REMARK  status: ('A' for Active; 'I' for Inactive)
REMARK    1  A    between atoms: N_8  and  C_1 
REMARK    2  A    between atoms: C_13  and  C_2 
REMARK    3  A    between atoms: C_6  and  C_11 
REMARK       I    between atoms: C_11  and  N_8 
REMARK    4  A    between atoms: O_20  and  C_13 
ROOT
ATOM      1  C   UNL d   1     -47.806  12.877  22.820  0.00  0.00     0.119 A 
ATOM      2  C   UNL d   1     -48.619  12.732  22.844  0.00  0.00     0.087 A 
ATOM      3  C   UNL d   1     -49.002  13.454  22.772  0.00  0.00     0.008 A 
ATOM      4  C   UNL d   1     -48.441  14.041  22.704  0.00  0.00     0.028 A 
ATOM      5  S   UNL d   1     -47.693  13.690  22.733  0.00  0.00    -0.070 SA
ATOM      6  C   UNL d   1     -48.670  14.835  22.624  0.00  0.00     0.104 A 
ATOM      7  N   UNL d   1     -49.470  15.029  22.612  0.00  0.00    -0.294 NA
ATOM      8  C   UNL d   1     -50.039  14.432  22.681  0.00  0.00     0.099 A 
ATOM      9  C   UNL d   1     -49.808  13.642  22.761  0.00  0.00    -0.004 A 
ATOM     10  C   UNL d   1     -48.698  15.658  22.538  0.00  0.00     0.029 C 
ATOM     11  C   UNL d   1     -47.846  14.854  22.613  0.00  0.00     0.029 C 
ATOM     12  C   UNL d   1     -50.608  13.836  22.749  0.00  0.00     0.029 C 
ATOM     13  C   UNL d   1     -50.276  15.217  22.601  0.00  0.00     0.029 C 
ENDROOT
BRANCH   1  14
ATOM     14  N   UNL d   1     -47.205  12.310  22.873  0.00  0.00    -0.200 NA
ATOM     15  C   UNL d   1     -46.469  12.516  23.184  0.00  0.00     0.303 C 
ATOM     16  O   UNL d   1     -46.335  13.285  23.440  0.00  0.00    -0.263 OA
BRANCH  15  17
ATOM     17  C   UNL d   1     -45.878  11.958  23.236  0.00  0.00     0.169 A 
ATOM     18  N   UNL d   1     -45.939  11.189  23.549  0.00  0.00    -0.234 NA
ATOM     19  C   UNL d   1     -45.192  10.828  23.483  0.00  0.00     0.088 A 
ATOM     20  C   UNL d   1     -44.913  10.081  23.694  0.00  0.00     0.020 A 
ATOM     21  C   UNL d   1     -44.695  11.388  23.129  0.00  0.00     0.049 A 
ATOM     22  C   UNL d   1     -44.128   9.887  23.552  0.00  0.00     0.002 A 
ATOM     23  C   UNL d   1     -43.619  10.436  23.200  0.00  0.00     0.001 A 
ATOM     24  C   UNL d   1     -43.898  11.178  22.990  0.00  0.00     0.008 A 
ATOM     25  S   UNL d   1     -45.118  12.062  22.986  0.00  0.00    -0.062 SA
ENDBRANCH  15  17
ENDBRANCH   1  14
BRANCH   2  26
ATOM     26  C   UNL d   1     -48.965  11.994  22.925  0.00  0.00     0.298 C 
ATOM     27  O   UNL d   1     -48.972  11.480  22.275  0.00  0.00    -0.259 OA
BRANCH  26  28
ATOM     28  O   UNL d   1     -49.305  11.762  23.650  0.00  0.00    -0.296 OA
ATOM     29  C   UNL d   1     -49.748  11.070  23.693  0.00  0.00     0.185 C 
ENDBRANCH  26  28
ENDBRANCH   2  26
TORSDOF 4
ENDMDL
MODEL 3
REMARK VINA RESULT:      -7.3      1.456      2.384
REMARK  4 active torsions:
REMARK  status: ('A' for Active; 'I' for Inactive)
REMARK    1  A    between atoms: N_8  and  C_1 
REMARK    2  A    between atoms: C_13  and  C_2 
REMARK    3  A    between atoms: C_6  and  C_11 
REMARK       I    between atoms: C_11  and  N_8 
REMARK    4  A    between atoms: O_20  and  C_13 
ROOT
ATOM      1  C   UNL d   1     -47.856  12.610  23.088  0.00  0.00     0.119 A 
ATOM      2  C   UNL d   1     -48.103  13.341  22.793  0.00  0.00     0.087 A 
ATOM      3  C   UNL d   1     -48.915  13.390  22.898  0.00  0.00     0.008 A 
ATOM      4  C   UNL d   1     -49.174  12.705  23.254  0.00  0.00     0.028 A 
ATOM      5  S   UNL d   1     -48.520  12.212  23.376  0.00  0.00    -0.070 SA
ATOM      6  C   UNL d   1     -49.979  12.599  23.430  0.00  0.00     0.104 A 
ATOM      7  N   UNL d   1     -50.517  13.192  23.243  0.00  0.00    -0.294 NA
ATOM      8  C   UNL d   1     -50.254  13.889  22.882  0.00  0.00     0.099 A 
ATOM      9  C   UNL d   1     -49.452  13.991  22.709  0.00  0.00    -0.004 A 
ATOM     10  C   UNL d   1     -50.716  12.316  23.676  0.00  0.00     0.029 C 
ATOM     11  C   UNL d   1     -49.616  11.906  23.690  0.00  0.00     0.029 C 
ATOM     12  C   UNL d   1     -49.990  14.585  22.522  0.00  0.00     0.029 C 
ATOM     13  C   UNL d   1     -51.054  13.794  23.053  0.00  0.00     0.029 C 
ENDROOT
BRANCH   1  14
ATOM     14  N   UNL d   1     -47.080  12.321  23.098  0.00  0.00    -0.200 NA
ATOM     15  C   UNL d   1     -46.923  11.572  23.403  0.00  0.00     0.303 C 
ATOM     16  O   UNL d   1     -47.538  11.113  23.698  0.00  0.00    -0.263 OA
BRANCH  15  17
ATOM     17  C   UNL d   1     -46.159  11.287  23.412  0.00  0.00     0.169 A 
ATOM     18  N   UNL d   1     -45.465  11.705  23.219  0.00  0.00    -0.234 NA
ATOM     19  C   UNL d   1     -44.823  11.184  23.311  0.00  0.00     0.088 A 
ATOM     20  C   UNL d   1     -44.010  11.278  23.203  0.00  0.00     0.020 A 
ATOM     21  C   UNL d   1     -45.143  10.462  23.558  0.00  0.00     0.049 A 
ATOM     22  C   UNL d   1     -43.508  10.644  23.342  0.00  0.00     0.002 A 
ATOM     23  C   UNL d   1     -43.813   9.915  23.589  0.00  0.00     0.001 A 
ATOM     24  C   UNL d   1     -44.620   9.824  23.696  0.00  0.00     0.008 A 
ATOM     25  S   UNL d   1     -45.946  10.536  23.615  0.00  0.00    -0.062 SA
ENDBRANCH  15  17
ENDBRANCH   1  14
BRANCH   2  26
ATOM     26  C   UNL d   1     -47.612  13.904  22.457  0.00  0.00     0.298 C 
ATOM     27  O   UNL d   1     -47.479  13.885  21.640  0.00  0.00    -0.259 OA
BRANCH  26  28
ATOM     28  O   UNL d   1     -47.252  14.489  22.929  0.00  0.00    -0.296 OA
ATOM     29  C   UNL d   1     -46.807  15.085  22.577  0.00  0.00     0.185 C 
ENDBRANCH  26  28
ENDBRANCH   2  26
TORSDOF 4
ENDMDL
MODEL 4
REMARK VINA RESULT:      -5.7      8.071     10.279
REMARK  4 active torsions:
REMARK  status: ('A' for Active; 'I' for Inactive)
REMARK    1  A    between atoms: N_8  and  C_1 
REMARK    2  A    between atoms: C_13  and  C_2 
REMARK    3  A    between atoms: C_6  and  C_11 
REMARK       I    between atoms: C_11  and  N_8 
REMARK    4  A    between atoms: O_20  and  C_13 
ROOT
ATOM      1  C   UNL d   1     -39.147  14.476  18.481  0.00  0.00     0.119 A 
ATOM      2  C   UNL d   1     -39.878  14.529  18.860  0.00  0.00     0.087 A 
ATOM      3  C   UNL d   1     -39.751  14.419  19.663  0.00  0.00     0.008 A 
ATOM      4  C   UNL d   1     -38.954  14.298  19.787  0.00  0.00     0.028 A 
ATOM      5  S   UNL d   1     -38.570  14.332  19.055  0.00  0.00    -0.070 SA
ATOM      6  C   UNL d   1     -38.661  14.169  20.553  0.00  0.00     0.104 A 
ATOM      7  N   UNL d   1     -39.180  14.164  21.192  0.00  0.00    -0.294 NA
ATOM      8  C   UNL d   1     -39.989  14.287  21.066  0.00  0.00     0.099 A 
ATOM      9  C   UNL d   1     -40.277  14.415  20.301  0.00  0.00    -0.004 A 
ATOM     10  C   UNL d   1     -38.192  14.029  21.219  0.00  0.00     0.029 C 
ATOM     11  C   UNL d   1     -37.996  14.137  20.067  0.00  0.00     0.029 C 
ATOM     12  C   UNL d   1     -40.797  14.410  20.940  0.00  0.00     0.029 C 
ATOM     13  C   UNL d   1     -39.708  14.161  21.830  0.00  0.00     0.029 C 
ENDROOT
BRANCH   1  14
ATOM     14  N   UNL d   1     -39.008  14.552  17.668  0.00  0.00    -0.200 NA
ATOM     15  C   UNL d   1     -38.531  14.005  17.277  0.00  0.00     0.303 C 
ATOM     16  O   UNL d   1     -38.192  13.384  17.697  0.00  0.00    -0.263 OA
BRANCH  15  17
ATOM     17  C   UNL d   1     -38.395  14.080  16.477  0.00  0.00     0.169 A 
ATOM     18  N   UNL d   1     -38.316  14.787  16.046  0.00  0.00    -0.234 NA
ATOM     19  C   UNL d   1     -38.183  14.585  15.250  0.00  0.00     0.088 A 
ATOM     20  C   UNL d   1     -38.064  15.039  14.571  0.00  0.00     0.020 A 
ATOM     21  C   UNL d   1     -38.185  13.757  15.218  0.00  0.00     0.049 A 
ATOM     22  C   UNL d   1     -37.945  14.666  13.850  0.00  0.00     0.002 A 
ATOM     23  C   UNL d   1     -37.944  13.840  13.802  0.00  0.00     0.001 A 
ATOM     24  C   UNL d   1     -38.062  13.390  14.477  0.00  0.00     0.008 A 
ATOM     25  S   UNL d   1     -38.313  13.465  15.961  0.00  0.00    -0.062 SA
ENDBRANCH  15  17
ENDBRANCH   1  14
BRANCH   2  26
ATOM     26  C   UNL d   1     -40.594  14.669  18.488  0.00  0.00     0.298 C 
ATOM     27  O   UNL d   1     -41.109  14.033  18.356  0.00  0.00    -0.259 OA
BRANCH  26  28
ATOM     28  O   UNL d   1     -40.803  15.438  18.243  0.00  0.00    -0.296 OA
ATOM     29  C   UNL d   1     -41.446  15.549  17.743  0.00  0.00     0.185 C 
ENDBRANCH  26  28
ENDBRANCH   2  26
TORSDOF 4
ENDMDL
