MODEL 1
REMARK VINA RESULT:      73.0      0.000      0.000
REMARK  3 active torsions:
REMARK  status: ('A' for Active; 'I' for Inactive)
REMARK       I    between atoms: C_3  and  N_1 
REMARK    1  A    between atoms: C_9  and  C_3 
REMARK    2  A    between atoms: C_15  and  C_4 
REMARK    3  A    between atoms: N_5  and  C_8 
ROOT
ATOM      1  N   UNL d   1      14.221  14.162  -2.727  0.00  0.00    -0.269 N 
ATOM      2  C   UNL d   1      13.710  13.215  -3.540  0.00  0.00     0.036 A 
ATOM      3  C   UNL d   1      14.364  14.976  -2.692  0.00  0.00     0.265 C 
ATOM      4  C   UNL d   1      13.873  13.877  -3.408  0.00  0.00     0.069 A 
ATOM      5  C   UNL d   1      13.784  12.493  -3.120  0.00  0.00     0.086 A 
ATOM      6  N   UNL d   1      14.047  12.322  -2.469  0.00  0.00    -0.207 NA
ATOM      7  C   UNL d   1      14.369  12.847  -1.931  0.00  0.00     0.297 A 
ATOM      8  C   UNL d   1      14.451  13.696  -2.047  0.00  0.00     0.146 A 
ATOM      9  C   UNL d   1      13.370  13.206  -4.303  0.00  0.00     0.033 A 
ATOM     10  O   UNL d   1      14.157  15.469  -3.332  0.00  0.00    -0.267 OA
ATOM     11  O   UNL d   1      14.640  12.532  -1.211  0.00  0.00    -0.264 OA
ATOM     12  C   UNL d   1      13.520  11.781  -3.463  0.00  0.00     0.022 A 
ATOM     13  C   UNL d   1      13.104  12.497  -4.649  0.00  0.00     0.140 A 
ATOM     14  C   UNL d   1      13.182  11.780  -4.221  0.00  0.00     0.031 A 
ATOM     15  F   UNL d   1      12.773  12.503  -5.396  0.00  0.00    -0.204 F 
ENDROOT
BRANCH   3  16
ATOM     16  C   UNL d   1      14.713  15.306  -2.024  0.00  0.00     0.058 A 
ATOM     17  C   UNL d   1      14.830  16.121  -1.972  0.00  0.00     0.028 A 
ATOM     18  C   UNL d   1      15.175  16.435  -1.309  0.00  0.00     0.127 A 
ATOM     19  C   UNL d   1      15.411  15.949  -0.686  0.00  0.00     0.022 A 
ATOM     20  C   UNL d   1      15.298  15.145  -0.732  0.00  0.00     0.002 A 
ATOM     21  C   UNL d   1      15.761  16.283  -0.016  0.00  0.00     0.002 C 
ATOM     22  C   UNL d   1      14.948  14.822  -1.405  0.00  0.00     0.005 A 
BRANCH  18  23
ATOM     23  N   UNL d   1      15.291  17.250  -1.257  0.00  0.00    -0.114 N 
ATOM     24  O   UNL d   1      15.968  17.539  -0.912  0.00  0.00    -0.532 OA
ATOM     25  O   UNL d   1      14.722  17.761  -1.553  0.00  0.00    -0.532 OA
ENDBRANCH  18  23
ENDBRANCH   3  16
BRANCH   4  26
ATOM     26  C   UNL d   1      13.700  14.425  -3.992  0.00  0.00     0.016 A 
ATOM     27  C   UNL d   1      14.296  14.682  -4.508  0.00  0.00     0.004 A 
ATOM     28  C   UNL d   1      14.110  15.234  -5.093  0.00  0.00     0.030 A 
ATOM     29  C   UNL d   1      13.361  15.524  -5.167  0.00  0.00     0.140 A 
ATOM     30  C   UNL d   1      12.771  15.264  -4.649  0.00  0.00     0.030 A 
ATOM     31  F   UNL d   1      13.182  16.073  -5.750  0.00  0.00    -0.204 F 
ATOM     32  C   UNL d   1      12.936  14.719  -4.065  0.00  0.00     0.004 A 
ENDBRANCH   4  26
TORSDOF 3
ENDMDL
MODEL 2
REMARK VINA RESULT:      75.6      1.865      4.129
REMARK  3 active torsions:
REMARK  status: ('A' for Active; 'I' for Inactive)
REMARK       I    between atoms: C_3  and  N_1 
REMARK    1  A    between atoms: C_9  and  C_3 
REMARK    2  A    between atoms: C_15  and  C_4 
REMARK    3  A    between atoms: N_5  and  C_8 
ROOT
ATOM      1  N   UNL d   1      14.408  14.117  -2.492  0.00  0.00    -0.269 N 
ATOM      2  C   UNL d   1      15.008  14.755  -1.465  0.00  0.00     0.036 A 
ATOM      3  C   UNL d   1      14.104  14.253  -3.249  0.00  0.00     0.265 C 
ATOM      4  C   UNL d   1      14.727  14.759  -2.101  0.00  0.00     0.069 A 
ATOM      5  C   UNL d   1      15.134  14.170  -0.878  0.00  0.00     0.086 A 
ATOM      6  N   UNL d   1      14.988  13.463  -0.844  0.00  0.00    -0.207 NA
ATOM      7  C   UNL d   1      14.628  13.019  -1.428  0.00  0.00     0.297 A 
ATOM      8  C   UNL d   1      14.359  13.318  -2.190  0.00  0.00     0.146 A 
ATOM      9  C   UNL d   1      15.253  15.539  -1.314  0.00  0.00     0.033 A 
ATOM     10  O   UNL d   1      14.130  15.017  -3.583  0.00  0.00    -0.267 OA
ATOM     11  O   UNL d   1      14.512  12.211  -1.273  0.00  0.00    -0.264 OA
ATOM     12  C   UNL d   1      15.499  14.372  -0.157  0.00  0.00     0.022 A 
ATOM     13  C   UNL d   1      15.619  15.746  -0.595  0.00  0.00     0.140 A 
ATOM     14  C   UNL d   1      15.741  15.153  -0.014  0.00  0.00     0.031 A 
ATOM     15  F   UNL d   1      15.854  16.517  -0.461  0.00  0.00    -0.204 F 
ENDROOT
BRANCH   3  16
ATOM     16  C   UNL d   1      13.773  13.636  -3.679  0.00  0.00     0.058 A 
ATOM     17  C   UNL d   1      14.033  13.471  -4.444  0.00  0.00     0.028 A 
ATOM     18  C   UNL d   1      13.699  12.858  -4.858  0.00  0.00     0.127 A 
ATOM     19  C   UNL d   1      13.101  12.399  -4.523  0.00  0.00     0.022 A 
ATOM     20  C   UNL d   1      12.840  12.558  -3.769  0.00  0.00     0.002 A 
ATOM     21  C   UNL d   1      12.769  11.780  -4.956  0.00  0.00     0.002 C 
ATOM     22  C   UNL d   1      13.178  13.179  -3.345  0.00  0.00     0.005 A 
BRANCH  18  23
ATOM     23  N   UNL d   1      13.959  12.693  -5.623  0.00  0.00    -0.114 N 
ATOM     24  O   UNL d   1      13.991  11.923  -5.879  0.00  0.00    -0.532 OA
ATOM     25  O   UNL d   1      14.184  13.308  -6.117  0.00  0.00    -0.532 OA
ENDBRANCH  18  23
ENDBRANCH   3  16
BRANCH   4  26
ATOM     26  C   UNL d   1      14.716  15.476  -2.496  0.00  0.00     0.016 A 
ATOM     27  C   UNL d   1      14.232  16.091  -2.223  0.00  0.00     0.004 A 
ATOM     28  C   UNL d   1      14.228  16.810  -2.629  0.00  0.00     0.030 A 
ATOM     29  C   UNL d   1      14.686  16.919  -3.283  0.00  0.00     0.140 A 
ATOM     30  C   UNL d   1      15.167  16.303  -3.551  0.00  0.00     0.030 A 
ATOM     31  F   UNL d   1      14.679  17.636  -3.683  0.00  0.00    -0.204 F 
ATOM     32  C   UNL d   1      15.184  15.585  -3.163  0.00  0.00     0.004 A 
ENDBRANCH   4  26
TORSDOF 3
ENDMDL
