MODEL 1
REMARK VINA RESULT:       6.1      0.000      0.000
REMARK  2 active torsions:
REMARK  status: ('A' for Active; 'I' for Inactive)
REMARK    1  A    between atoms: C_13  and  C_6 
REMARK    2  A    between atoms: N_7  and  C_12 
ROOT
ATOM      1  C   UNL d   1     -41.729-122.176 -52.604  0.00  0.00     0.095 A 
ATOM      2  C   UNL d   1     -41.435-120.942 -51.982  0.00  0.00     0.095 A 
ATOM      3  C   UNL d   1     -41.630-121.823 -53.351  0.00  0.00     0.143 A 
ATOM      4  C   UNL d   1     -41.336-120.589 -52.729  0.00  0.00     0.143 A 
ATOM      5  S   UNL d   1     -41.433-121.031 -53.401  0.00  0.00    -0.044 SA
ATOM      6  C   UNL d   1     -41.629-121.724 -51.935  0.00  0.00     0.023 A 
ATOM      7  C   UNL d   1     -41.334-120.485 -51.289  0.00  0.00     0.103 C 
ATOM      8  C   UNL d   1     -41.933-122.999 -52.557  0.00  0.00     0.103 C 
ATOM      9  N   UNL d   1     -42.137-123.817 -52.487  0.00  0.00    -0.191 NA
ATOM     10  N   UNL d   1     -41.235-120.035 -50.580  0.00  0.00    -0.191 NA
ATOM     11  N   UNL d   1     -41.134-119.778 -52.786  0.00  0.00    -0.140 N 
ATOM     12  N   UNL d   1     -41.734-122.292 -54.053  0.00  0.00    -0.140 N 
ENDROOT
BRANCH   6  13
ATOM     13  C   UNL d   1     -41.729-122.078 -51.185  0.00  0.00     0.002 A 
ATOM     14  C   UNL d   1     -42.429-121.989 -50.770  0.00  0.00     0.002 A 
ATOM     15  C   UNL d   1     -42.527-122.335 -50.037  0.00  0.00     0.024 A 
ATOM     16  C   UNL d   1     -41.928-122.780 -49.700  0.00  0.00     0.127 A 
ATOM     17  C   UNL d   1     -41.222-122.872 -50.116  0.00  0.00     0.024 A 
ATOM     18  C   UNL d   1     -41.124-122.525 -50.849  0.00  0.00     0.002 A 
BRANCH  16  19
ATOM     19  N   UNL d   1     -42.025-123.126 -48.967  0.00  0.00    -0.114 N 
ATOM     20  O   UNL d   1     -41.461-123.647 -48.687  0.00  0.00    -0.532 OA
ATOM     21  O   UNL d   1     -42.681-122.952 -48.522  0.00  0.00    -0.532 OA
ENDBRANCH  16  19
ENDBRANCH   6  13
TORSDOF 2
ENDMDL
MODEL 2
REMARK VINA RESULT:       7.6      1.682      2.520
REMARK  2 active torsions:
REMARK  status: ('A' for Active; 'I' for Inactive)
REMARK    1  A    between atoms: C_13  and  C_6 
REMARK    2  A    between atoms: N_7  and  C_12 
ROOT
ATOM      1  C   UNL d   1     -41.551-122.664 -54.175  0.00  0.00     0.095 A 
ATOM      2  C   UNL d   1     -42.005-121.366 -54.503  0.00  0.00     0.095 A 
ATOM      3  C   UNL d   1     -41.508-122.853 -54.984  0.00  0.00     0.143 A 
ATOM      4  C   UNL d   1     -41.962-121.555 -55.312  0.00  0.00     0.143 A 
ATOM      5  S   UNL d   1     -41.715-122.293 -55.542  0.00  0.00    -0.044 SA
ATOM      6  C   UNL d   1     -41.799-121.921 -53.954  0.00  0.00     0.023 A 
ATOM      7  C   UNL d   1     -42.260-120.606 -54.266  0.00  0.00     0.103 C 
ATOM      8  C   UNL d   1     -41.334-123.249 -53.599  0.00  0.00     0.103 C 
ATOM      9  N   UNL d   1     -41.123-123.817 -53.009  0.00  0.00    -0.191 NA
ATOM     10  N   UNL d   1     -42.515-119.841 -54.012  0.00  0.00    -0.191 NA
ATOM     11  N   UNL d   1     -42.174-120.985 -55.887  0.00  0.00    -0.140 N 
ATOM     12  N   UNL d   1     -41.248-123.628 -55.220  0.00  0.00    -0.140 N 
ENDROOT
BRANCH   6  13
ATOM     13  C   UNL d   1     -41.842-121.732 -53.142  0.00  0.00     0.002 A 
ATOM     14  C   UNL d   1     -41.185-121.454 -52.741  0.00  0.00     0.002 A 
ATOM     15  C   UNL d   1     -41.227-121.268 -51.947  0.00  0.00     0.024 A 
ATOM     16  C   UNL d   1     -41.928-121.355 -51.532  0.00  0.00     0.127 A 
ATOM     17  C   UNL d   1     -42.592-121.635 -51.933  0.00  0.00     0.024 A 
ATOM     18  C   UNL d   1     -42.550-121.821 -52.728  0.00  0.00     0.002 A 
BRANCH  16  19
ATOM     19  N   UNL d   1     -41.969-121.170 -50.739  0.00  0.00    -0.114 N 
ATOM     20  O   UNL d   1     -42.562-121.493 -50.278  0.00  0.00    -0.532 OA
ATOM     21  O   UNL d   1     -41.424-120.666 -50.411  0.00  0.00    -0.532 OA
ENDBRANCH  16  19
ENDBRANCH   6  13
TORSDOF 2
ENDMDL
