MODEL 1
REMARK VINA RESULT:      49.4      0.000      0.000
REMARK  4 active torsions:
REMARK  status: ('A' for Active; 'I' for Inactive)
REMARK    1  A    between atoms: C_2  and  C_1 
REMARK       I    between atoms: N_7  and  C_2 
REMARK    2  A    between atoms: C_12  and  N_7 
REMARK    3  A    between atoms: C_13  and  N_7 
REMARK    4  A    between atoms: O_14  and  C_11 
ROOT
ATOM      1  C   UNL d   1     -52.346  25.554  33.544  0.00  0.00     0.120 A 
ATOM      2  C   UNL d   1     -52.355  26.374  33.639  0.00  0.00     0.305 A 
ATOM      3  O   UNL d   1     -51.638  26.792  33.630  0.00  0.00    -0.271 OA
ATOM      4  C   UNL d   1     -51.628  25.154  33.441  0.00  0.00     0.012 A 
ATOM      5  C   UNL d   1     -50.922  26.396  33.527  0.00  0.00     0.125 A 
ATOM      6  C   UNL d   1     -50.919  25.569  33.433  0.00  0.00     0.025 A 
ATOM      7  O   UNL d   1     -53.072  26.771  33.741  0.00  0.00    -0.259 OA
ATOM      8  C   UNL d   1     -50.216  26.810  33.519  0.00  0.00     0.117 A 
ATOM      9  C   UNL d   1     -50.207  25.171  33.331  0.00  0.00     0.002 A 
ATOM     10  C   UNL d   1     -49.497  25.587  33.322  0.00  0.00     0.002 A 
ATOM     11  C   UNL d   1     -49.500  26.414  33.416  0.00  0.00     0.026 A 
ENDROOT
BRANCH   1  12
ATOM     12  C   UNL d   1     -53.058  25.133  33.553  0.00  0.00     0.270 C 
ATOM     13  N   UNL d   1     -53.054  24.326  33.742  0.00  0.00    -0.273 N 
ATOM     14  O   UNL d   1     -53.768  25.514  33.374  0.00  0.00    -0.266 OA
BRANCH  13  15
ATOM     15  C   UNL d   1     -52.340  23.947  33.920  0.00  0.00     0.067 A 
ATOM     16  C   UNL d   1     -52.182  23.719  34.693  0.00  0.00     0.018 A 
ATOM     17  C   UNL d   1     -51.470  23.341  34.868  0.00  0.00     0.002 A 
ATOM     18  C   UNL d   1     -50.916  23.191  34.272  0.00  0.00     0.000 A 
ATOM     19  C   UNL d   1     -51.082  23.424  33.490  0.00  0.00     0.002 A 
ATOM     20  C   UNL d   1     -51.791  23.801  33.313  0.00  0.00     0.018 A 
ENDBRANCH  13  15
BRANCH  13  21
ATOM     21  C   UNL d   1     -53.763  23.898  33.752  0.00  0.00     0.083 C 
ATOM     22  C   UNL d   1     -53.833  23.207  33.309  0.00  0.00     0.021 C 
ENDBRANCH  13  21
ENDBRANCH   1  12
BRANCH   8  23
ATOM     23  O   UNL d   1     -50.219  27.637  33.613  0.00  0.00    -0.326 OA
ATOM     24  C   UNL d   1     -49.609  28.003  34.033  0.00  0.00     0.181 C 
ENDBRANCH   8  23
TORSDOF 4
ENDMDL
