MODEL 1
REMARK VINA RESULT:      79.0      0.000      0.000
REMARK  6 active torsions:
REMARK  status: ('A' for Active; 'I' for Inactive)
REMARK    1  A    between atoms: C_2  and  S_1 
REMARK    2  A    between atoms: C_13  and  S_1 
REMARK    3  A    between atoms: C_5  and  C_3 
REMARK    4  A    between atoms: C_19  and  C_5 
REMARK    5  A    between atoms: O_25  and  C_22 
REMARK    6  A    between atoms: C_30  and  O_25 
ROOT
ATOM      1  C   UNL d   1      45.894 -17.760  42.288  0.00  0.00     0.094 A 
ATOM      2  C   UNL d   1      46.185 -18.421  42.697  0.00  0.00     0.069 A 
ATOM      3  C   UNL d   1      45.759 -17.801  41.477  0.00  0.00     0.031 A 
ATOM      4  C   UNL d   1      45.912 -18.501  41.067  0.00  0.00     0.084 A 
ATOM      5  C   UNL d   1      45.470 -17.143  41.076  0.00  0.00     0.029 A 
ATOM      6  N   UNL d   1      46.201 -19.159  41.468  0.00  0.00    -0.244 NA
ATOM      7  C   UNL d   1      46.339 -19.122  42.286  0.00  0.00     0.103 A 
ATOM      8  C   UNL d   1      45.777 -18.541  40.256  0.00  0.00     0.046 A 
ATOM      9  C   UNL d   1      45.334 -17.183  40.265  0.00  0.00     0.123 A 
ATOM     10  C   UNL d   1      45.488 -17.884  39.855  0.00  0.00     0.124 A 
ATOM     11  O   UNL d   1      45.045 -16.525  39.863  0.00  0.00    -0.301 OA
ATOM     12  O   UNL d   1      45.352 -17.924  39.044  0.00  0.00    -0.301 OA
ATOM     13  C   UNL d   1      45.062 -17.264  38.638  0.00  0.00     0.149 A 
ATOM     14  C   UNL d   1      44.909 -16.564  39.049  0.00  0.00     0.149 A 
ENDROOT
BRANCH   1  15
ATOM     15  S   UNL d   1      45.737 -17.055  42.687  0.00  0.00     0.210 S 
ATOM     16  O   UNL d   1      44.945 -17.268  42.777  0.00  0.00    -0.217 OA
ATOM     17  O   UNL d   1      46.529 -16.842  42.598  0.00  0.00    -0.217 OA
BRANCH  15  18
ATOM     18  C   UNL d   1      45.591 -16.348  43.086  0.00  0.00     0.088 A 
ATOM     19  C   UNL d   1      46.112 -15.712  42.992  0.00  0.00     0.013 A 
ATOM     20  C   UNL d   1      45.966 -15.000  43.392  0.00  0.00     0.025 A 
ATOM     21  C   UNL d   1      45.307 -14.929  43.879  0.00  0.00     0.100 A 
ATOM     22  C   UNL d   1      44.784 -15.562  43.976  0.00  0.00     0.025 A 
ATOM     23  C   UNL d   1      44.931 -16.277  43.573  0.00  0.00     0.013 A 
BRANCH  21  24
ATOM     24  O   UNL d   1      45.153 -14.218  44.285  0.00  0.00    -0.305 OA
BRANCH  24  25
ATOM     25  C   UNL d   1      45.695 -13.598  44.264  0.00  0.00     0.123 C 
ATOM     26  C   UNL d   1      45.577 -12.968  43.748  0.00  0.00     0.029 C 
ENDBRANCH  24  25
ENDBRANCH  21  24
ENDBRANCH  15  18
ENDBRANCH   1  15
BRANCH   2  27
ATOM     27  C   UNL d   1      46.322 -18.383  43.511  0.00  0.00     0.198 C 
ATOM     28  O   UNL d   1      46.644 -17.703  43.849  0.00  0.00    -0.286 OA
BRANCH  27  29
ATOM     29  C   UNL d   1      46.135 -19.029  43.989  0.00  0.00     0.039 A 
ATOM     30  C   UNL d   1      45.440 -19.030  44.442  0.00  0.00     0.003 A 
ATOM     31  C   UNL d   1      45.251 -19.676  44.921  0.00  0.00     0.000 A 
ATOM     32  C   UNL d   1      45.754 -20.330  44.954  0.00  0.00     0.000 A 
ATOM     33  C   UNL d   1      46.454 -20.329  44.498  0.00  0.00     0.000 A 
ATOM     34  C   UNL d   1      46.645 -19.687  44.020  0.00  0.00     0.003 A 
ENDBRANCH  27  29
ENDBRANCH   2  27
TORSDOF 6
ENDMDL
