MODEL 1
REMARK VINA RESULT:      22.1      0.000      0.000
REMARK  5 active torsions:
REMARK  status: ('A' for Active; 'I' for Inactive)
REMARK    1  A    between atoms: C_5  and  N_1 
REMARK    2  A    between atoms: C_7  and  C_3 
REMARK    3  A    between atoms: C_8  and  C_4 
REMARK    4  A    between atoms: N_10  and  C_5 
REMARK    5  A    between atoms: O_21  and  C_15 
ROOT
ATOM      1  N   UNL d   1      45.928 -18.116  44.225  0.00  0.00    -0.203 N 
ATOM      2  N   UNL d   1      45.796 -17.406  44.630  0.00  0.00    -0.163 NA
ATOM      3  C   UNL d   1      45.824 -16.786  44.115  0.00  0.00     0.103 A 
ATOM      4  C   UNL d   1      46.043 -17.938  43.418  0.00  0.00     0.087 A 
ATOM      5  C   UNL d   1      45.980 -17.116  43.343  0.00  0.00     0.040 A 
ENDROOT
BRANCH   4   6
ATOM      6  C   UNL d   1      46.193 -18.454  42.790  0.00  0.00     0.018 A 
ATOM      7  C   UNL d   1      46.128 -19.267  42.887  0.00  0.00     0.004 A 
ATOM      8  C   UNL d   1      46.277 -19.780  42.260  0.00  0.00     0.024 A 
ATOM      9  C   UNL d   1      46.495 -19.474  41.530  0.00  0.00     0.094 A 
ATOM     10  C   UNL d   1      46.563 -18.681  41.422  0.00  0.00     0.024 A 
ATOM     11  C   UNL d   1      46.413 -18.165  42.050  0.00  0.00     0.004 A 
BRANCH   9  12
ATOM     12  O   UNL d   1      46.643 -20.014  40.904  0.00  0.00    -0.328 OA
ATOM     13  C   UNL d   1      46.624 -19.759  40.100  0.00  0.00     0.181 C 
ENDBRANCH   9  12
ENDBRANCH   4   6
BRANCH   1  14
ATOM     14  C   UNL d   1      45.944 -18.889  44.561  0.00  0.00     0.222 C 
ATOM     15  S   UNL d   1      46.647 -19.151  44.954  0.00  0.00    -0.037 SA
BRANCH  14  16
ATOM     16  N   UNL d   1      45.275 -19.406  44.515  0.00  0.00    -0.214 NA
ATOM     17  C   UNL d   1      45.265 -20.113  44.954  0.00  0.00     0.122 C 
ENDBRANCH  14  16
ENDBRANCH   1  14
BRANCH   3  18
ATOM     18  C   UNL d   1      45.716 -15.986  44.322  0.00  0.00     0.019 A 
ATOM     19  C   UNL d   1      44.997 -15.608  44.187  0.00  0.00     0.002 A 
ATOM     20  C   UNL d   1      44.908 -14.805  44.401  0.00  0.00     0.000 A 
ATOM     21  C   UNL d   1      45.531 -14.401  44.741  0.00  0.00     0.000 A 
ATOM     22  C   UNL d   1      46.245 -14.795  44.869  0.00  0.00     0.000 A 
ATOM     23  C   UNL d   1      45.268 -13.402  44.953  0.00  0.00     0.000 C 
ATOM     24  C   UNL d   1      46.337 -15.573  44.664  0.00  0.00     0.002 A 
ENDBRANCH   3  18
TORSDOF 5
ENDMDL
