MODEL 1
REMARK VINA RESULT:       0.1      0.000      0.000
REMARK  5 active torsions:
REMARK  status: ('A' for Active; 'I' for Inactive)
REMARK    1  A    between atoms: C_12  and  C_4 
REMARK    2  A    between atoms: S_10  and  C_5 
REMARK    3  A    between atoms: C_15  and  S_10 
REMARK    4  A    between atoms: C_11  and  C_15 
REMARK       I    between atoms: N_13  and  C_11 
REMARK    5  A    between atoms: C_16  and  N_13 
ROOT
ATOM      1  N   UNL d   1      32.768  18.690 -22.965  0.00  0.00    -0.206 N 
ATOM      2  C   UNL d   1      32.412  18.079 -23.391  0.00  0.00     0.166 A 
ATOM      3  N   UNL d   1      33.225  17.757 -22.018  0.00  0.00    -0.163 NA
ATOM      4  C   UNL d   1      32.462  17.313 -23.133  0.00  0.00     0.055 A 
ATOM      5  C   UNL d   1      32.706  19.446 -23.240  0.00  0.00     0.116 A 
ATOM      6  C   UNL d   1      32.875  17.156 -22.437  0.00  0.00     0.104 A 
ATOM      7  N   UNL d   1      32.004  18.240 -24.080  0.00  0.00    -0.227 NA
ATOM      8  C   UNL d   1      32.303  19.624 -23.926  0.00  0.00     0.045 A 
ATOM      9  C   UNL d   1      31.948  19.016 -24.349  0.00  0.00     0.085 A 
ATOM     10  C   UNL d   1      32.923  16.393 -22.183  0.00  0.00     0.023 C 
ATOM     11  C   UNL d   1      31.522  19.185 -25.068  0.00  0.00     0.021 C 
ENDROOT
BRANCH   5  12
ATOM     12  S   UNL d   1      33.074  20.076 -22.801  0.00  0.00    -0.062 SA
BRANCH  12  13
ATOM     13  C   UNL d   1      33.085  20.909 -22.705  0.00  0.00     0.099 C 
BRANCH  13  14
ATOM     14  C   UNL d   1      32.909  21.248 -21.955  0.00  0.00     0.286 C 
ATOM     15  N   UNL d   1      32.900  22.090 -21.855  0.00  0.00    -0.208 NA
ATOM     16  O   UNL d   1      32.739  20.750 -21.293  0.00  0.00    -0.265 OA
BRANCH  15  17
ATOM     17  C   UNL d   1      32.723  22.426 -21.101  0.00  0.00     0.085 A 
ATOM     18  C   UNL d   1      32.036  22.906 -21.010  0.00  0.00     0.022 A 
ATOM     19  C   UNL d   1      31.862  23.244 -20.244  0.00  0.00     0.044 A 
ATOM     20  C   UNL d   1      32.371  23.097 -19.594  0.00  0.00     0.196 A 
ATOM     21  C   UNL d   1      33.058  22.617 -19.686  0.00  0.00     0.044 A 
ATOM     22  O   UNL d   1      32.194  23.433 -18.842  0.00  0.00    -0.287 OA
ATOM     23  C   UNL d   1      33.234  22.281 -20.444  0.00  0.00     0.022 A 
ENDBRANCH  15  17
ENDBRANCH  13  14
ENDBRANCH  12  13
ENDBRANCH   5  12
BRANCH   4  24
ATOM     24  C   UNL d   1      32.111  16.711 -23.552  0.00  0.00     0.004 A 
ATOM     25  C   UNL d   1      32.549  16.259 -24.053  0.00  0.00     0.000 A 
ATOM     26  C   UNL d   1      32.199  15.657 -24.472  0.00  0.00     0.000 A 
ATOM     27  C   UNL d   1      31.410  15.509 -24.391  0.00  0.00     0.000 A 
ATOM     28  C   UNL d   1      30.966  15.977 -23.875  0.00  0.00     0.000 A 
ATOM     29  C   UNL d   1      31.323  16.566 -23.468  0.00  0.00     0.000 A 
ENDBRANCH   4  24
TORSDOF 5
ENDMDL
MODEL 2
REMARK VINA RESULT:       0.9      1.537      2.626
REMARK  5 active torsions:
REMARK  status: ('A' for Active; 'I' for Inactive)
REMARK    1  A    between atoms: C_12  and  C_4 
REMARK    2  A    between atoms: S_10  and  C_5 
REMARK    3  A    between atoms: C_15  and  S_10 
REMARK    4  A    between atoms: C_11  and  C_15 
REMARK       I    between atoms: N_13  and  C_11 
REMARK    5  A    between atoms: C_16  and  N_13 
ROOT
ATOM      1  N   UNL d   1      31.376  17.950 -24.101  0.00  0.00    -0.206 N 
ATOM      2  C   UNL d   1      30.865  17.302 -24.129  0.00  0.00     0.166 A 
ATOM      3  N   UNL d   1      30.400  18.740 -24.732  0.00  0.00    -0.163 NA
ATOM      4  C   UNL d   1      30.128  17.372 -24.456  0.00  0.00     0.055 A 
ATOM      5  C   UNL d   1      32.106  17.859 -23.771  0.00  0.00     0.116 A 
ATOM      6  C   UNL d   1      29.897  18.103 -24.760  0.00  0.00     0.104 A 
ATOM      7  N   UNL d   1      31.098  16.580 -23.826  0.00  0.00    -0.227 NA
ATOM      8  C   UNL d   1      32.355  17.145 -23.464  0.00  0.00     0.045 A 
ATOM      9  C   UNL d   1      31.847  16.501 -23.492  0.00  0.00     0.085 A 
ATOM     10  C   UNL d   1      29.163  18.170 -25.085  0.00  0.00     0.023 C 
ATOM     11  C   UNL d   1      32.090  15.747 -23.176  0.00  0.00     0.021 C 
ENDROOT
BRANCH   5  12
ATOM     12  S   UNL d   1      32.632  18.527 -23.742  0.00  0.00    -0.062 SA
BRANCH  12  13
ATOM     13  C   UNL d   1      32.653  19.362 -23.673  0.00  0.00     0.099 C 
BRANCH  13  14
ATOM     14  C   UNL d   1      32.711  19.721 -22.913  0.00  0.00     0.286 C 
ATOM     15  N   UNL d   1      32.660  20.563 -22.830  0.00  0.00    -0.208 NA
ATOM     16  O   UNL d   1      32.822  19.242 -22.225  0.00  0.00    -0.265 OA
BRANCH  15  17
ATOM     17  C   UNL d   1      32.719  20.918 -22.066  0.00  0.00     0.085 A 
ATOM     18  C   UNL d   1      33.184  20.547 -21.469  0.00  0.00     0.022 A 
ATOM     19  C   UNL d   1      33.240  20.911 -20.698  0.00  0.00     0.044 A 
ATOM     20  C   UNL d   1      32.835  21.629 -20.541  0.00  0.00     0.196 A 
ATOM     21  C   UNL d   1      32.370  21.999 -21.139  0.00  0.00     0.044 A 
ATOM     22  O   UNL d   1      32.894  21.983 -19.778  0.00  0.00    -0.287 OA
ATOM     23  C   UNL d   1      32.313  21.641 -21.904  0.00  0.00     0.022 A 
ENDBRANCH  15  17
ENDBRANCH  13  14
ENDBRANCH  12  13
ENDBRANCH   5  12
BRANCH   4  24
ATOM     24  C   UNL d   1      29.625  16.734 -24.484  0.00  0.00     0.004 A 
ATOM     25  C   UNL d   1      29.700  16.185 -25.067  0.00  0.00     0.000 A 
ATOM     26  C   UNL d   1      29.198  15.547 -25.095  0.00  0.00     0.000 A 
ATOM     27  C   UNL d   1      28.620  15.458 -24.539  0.00  0.00     0.000 A 
ATOM     28  C   UNL d   1      28.549  16.025 -23.943  0.00  0.00     0.000 A 
ATOM     29  C   UNL d   1      29.049  16.648 -23.926  0.00  0.00     0.000 A 
ENDBRANCH   4  24
TORSDOF 5
ENDMDL
