MODEL 1
REMARK VINA RESULT:      22.0      0.000      0.000
REMARK  4 active torsions:
REMARK  status: ('A' for Active; 'I' for Inactive)
REMARK    1  A    between atoms: N_2  and  S_1 
REMARK    2  A    between atoms: C_3  and  S_1 
REMARK    3  A    between atoms: N_6  and  N_2 
REMARK    4  A    between atoms: C_9  and  N_6 
ROOT
ATOM      1  S   UNL d   1      13.073  12.873  -4.051  0.00  0.00     0.302 S 
ATOM      2  O   UNL d   1      13.097  12.405  -4.747  0.00  0.00    -0.197 OA
ATOM      3  O   UNL d   1      13.050  13.333  -3.371  0.00  0.00    -0.197 OA
ENDROOT
BRANCH   1   4
ATOM      4  N   UNL d   1      12.943  12.186  -3.593  0.00  0.00    -0.054 NA
BRANCH   4   5
ATOM      5  N   UNL d   1      13.572  11.779  -3.298  0.00  0.00    -0.137 NA
BRANCH   5   6
ATOM      6  C   UNL d   1      13.733  11.780  -2.475  0.00  0.00     0.104 A 
ATOM      7  C   UNL d   1      14.504  11.779  -2.208  0.00  0.00     0.021 A 
ATOM      8  C   UNL d   1      14.643  11.780  -1.395  0.00  0.00     0.002 A 
ATOM      9  C   UNL d   1      14.014  11.782  -0.874  0.00  0.00     0.000 A 
ATOM     10  C   UNL d   1      13.250  11.783  -1.146  0.00  0.00     0.002 A 
ATOM     11  C   UNL d   1      14.173  11.783  -0.043  0.00  0.00     0.000 C 
ATOM     12  C   UNL d   1      13.097  11.782  -1.953  0.00  0.00     0.021 A 
ENDBRANCH   5   6
ENDBRANCH   4   5
ENDBRANCH   1   4
BRANCH   1  13
ATOM     13  C   UNL d   1      13.202  13.550  -4.505  0.00  0.00     0.107 A 
ATOM     14  C   UNL d   1      12.900  14.274  -4.265  0.00  0.00     0.013 A 
ATOM     15  C   UNL d   1      13.038  14.940  -4.731  0.00  0.00     0.001 A 
ATOM     16  C   UNL d   1      13.479  14.883  -5.437  0.00  0.00     0.000 A 
ATOM     17  C   UNL d   1      13.787  14.151  -5.680  0.00  0.00     0.001 A 
ATOM     18  C   UNL d   1      13.616  15.565  -5.905  0.00  0.00     0.000 C 
ATOM     19  C   UNL d   1      13.637  13.496  -5.200  0.00  0.00     0.013 A 
ENDBRANCH   1  13
TORSDOF 4
ENDMDL
MODEL 2
REMARK VINA RESULT:      24.8      0.708      4.241
REMARK  4 active torsions:
REMARK  status: ('A' for Active; 'I' for Inactive)
REMARK    1  A    between atoms: N_2  and  S_1 
REMARK    2  A    between atoms: C_3  and  S_1 
REMARK    3  A    between atoms: N_6  and  N_2 
REMARK    4  A    between atoms: C_9  and  N_6 
ROOT
ATOM      1  S   UNL d   1      13.705  12.413  -3.182  0.00  0.00     0.302 S 
ATOM      2  O   UNL d   1      13.155  11.779  -3.167  0.00  0.00    -0.197 OA
ATOM      3  O   UNL d   1      14.243  13.033  -3.195  0.00  0.00    -0.197 OA
ENDROOT
BRANCH   1   4
ATOM      4  N   UNL d   1      13.504  12.568  -3.979  0.00  0.00    -0.054 NA
BRANCH   4   5
ATOM      5  N   UNL d   1      12.895  13.069  -4.145  0.00  0.00    -0.137 NA
BRANCH   5   6
ATOM      6  C   UNL d   1      13.039  13.802  -4.526  0.00  0.00     0.104 A 
ATOM      7  C   UNL d   1      12.773  14.497  -4.191  0.00  0.00     0.021 A 
ATOM      8  C   UNL d   1      12.923  15.209  -4.579  0.00  0.00     0.002 A 
ATOM      9  C   UNL d   1      13.331  15.209  -5.287  0.00  0.00     0.000 A 
ATOM     10  C   UNL d   1      13.592  14.514  -5.615  0.00  0.00     0.002 A 
ATOM     11  C   UNL d   1      13.477  15.947  -5.674  0.00  0.00     0.000 C 
ATOM     12  C   UNL d   1      13.450  13.799  -5.238  0.00  0.00     0.021 A 
ENDBRANCH   5   6
ENDBRANCH   4   5
ENDBRANCH   1   4
BRANCH   1  13
ATOM     13  C   UNL d   1      13.901  12.258  -2.396  0.00  0.00     0.107 A 
ATOM     14  C   UNL d   1      14.685  12.271  -2.155  0.00  0.00     0.013 A 
ATOM     15  C   UNL d   1      14.863  12.113  -1.365  0.00  0.00     0.001 A 
ATOM     16  C   UNL d   1      14.259  11.944  -0.816  0.00  0.00     0.000 A 
ATOM     17  C   UNL d   1      13.465  11.931  -1.059  0.00  0.00     0.001 A 
ATOM     18  C   UNL d   1      14.448  11.785  -0.014  0.00  0.00     0.000 C 
ATOM     19  C   UNL d   1      13.307  12.091  -1.854  0.00  0.00     0.013 A 
ENDBRANCH   1  13
TORSDOF 4
ENDMDL
