MODEL 1
REMARK VINA RESULT:      -7.5      0.000      0.000
REMARK  5 active torsions:
REMARK  status: ('A' for Active; 'I' for Inactive)
REMARK    1  A    between atoms: N_6  and  C_1 
REMARK    2  A    between atoms: S_10  and  C_4 
REMARK       I    between atoms: C_7  and  N_6 
REMARK       I    between atoms: N_8  and  C_7 
REMARK    3  A    between atoms: C_11  and  N_8 
REMARK    4  A    between atoms: C_18  and  S_10 
REMARK    5  A    between atoms: C_19  and  C_18 
ROOT
ATOM      1  N   UNL d   1      52.076  33.489  53.132  0.00  0.00    -0.321 NA
ATOM      2  C   UNL d   1      52.605  33.083  53.367  0.00  0.00     0.422 C 
ATOM      3  N   UNL d   1      53.250  32.561  53.646  0.00  0.00    -0.180 NA
ATOM      4  O   UNL d   1      52.893  33.622  53.708  0.00  0.00    -0.228 OA
ENDROOT
BRANCH   1   5
ATOM      5  C   UNL d   1      51.370  33.841  52.764  0.00  0.00     0.271 A 
ATOM      6  S   UNL d   1      50.745  34.087  52.982  0.00  0.00    -0.006 SA
ATOM      7  C   UNL d   1      50.289  34.343  52.499  0.00  0.00     0.166 A 
ATOM      8  N   UNL d   1      50.461  34.351  51.813  0.00  0.00    -0.132 NA
ATOM      9  N   UNL d   1      51.542  33.849  52.078  0.00  0.00    -0.107 NA
BRANCH   7  10
ATOM     10  S   UNL d   1      49.626  34.621  52.587  0.00  0.00    -0.059 SA
BRANCH  10  11
ATOM     11  C   UNL d   1      49.152  34.766  51.932  0.00  0.00     0.037 C 
BRANCH  11  12
ATOM     12  C   UNL d   1      48.441  35.166  52.023  0.00  0.00     0.007 C 
ATOM     13  C   UNL d   1      47.897  35.189  51.410  0.00  0.00     0.001 C 
ENDBRANCH  11  12
ENDBRANCH  10  11
ENDBRANCH   7  10
ENDBRANCH   1   5
BRANCH   3  14
ATOM     14  C   UNL d   1      53.849  32.874  54.129  0.00  0.00     0.087 A 
ATOM     15  C   UNL d   1      54.543  33.162  53.786  0.00  0.00     0.022 A 
ATOM     16  C   UNL d   1      55.132  33.470  54.275  0.00  0.00     0.031 A 
ATOM     17  C   UNL d   1      55.035  33.494  55.094  0.00  0.00     0.140 A 
ATOM     18  C   UNL d   1      54.338  33.204  55.430  0.00  0.00     0.031 A 
ATOM     19  F   UNL d   1      55.634  33.806  55.578  0.00  0.00    -0.204 F 
ATOM     20  C   UNL d   1      53.746  32.894  54.948  0.00  0.00     0.022 A 
ENDBRANCH   3  14
TORSDOF 5
ENDMDL
MODEL 2
REMARK VINA RESULT:      -7.5      2.826      5.171
REMARK  5 active torsions:
REMARK  status: ('A' for Active; 'I' for Inactive)
REMARK    1  A    between atoms: N_6  and  C_1 
REMARK    2  A    between atoms: S_10  and  C_4 
REMARK       I    between atoms: C_7  and  N_6 
REMARK       I    between atoms: N_8  and  C_7 
REMARK    3  A    between atoms: C_11  and  N_8 
REMARK    4  A    between atoms: C_18  and  S_10 
REMARK    5  A    between atoms: C_19  and  C_18 
ROOT
ATOM      1  N   UNL d   1      52.563  32.623  53.013  0.00  0.00    -0.321 NA
ATOM      2  C   UNL d   1      52.338  33.282  52.896  0.00  0.00     0.422 C 
ATOM      3  N   UNL d   1      52.081  34.107  52.755  0.00  0.00    -0.180 NA
ATOM      4  O   UNL d   1      51.691  33.056  52.752  0.00  0.00    -0.228 OA
ENDROOT
BRANCH   1   5
ATOM      5  C   UNL d   1      52.996  31.888  53.190  0.00  0.00     0.271 A 
ATOM      6  S   UNL d   1      52.843  31.201  53.242  0.00  0.00    -0.006 SA
ATOM      7  C   UNL d   1      53.365  30.744  53.404  0.00  0.00     0.166 A 
ATOM      8  N   UNL d   1      54.024  30.976  53.510  0.00  0.00    -0.132 NA
ATOM      9  N   UNL d   1      53.655  32.120  53.297  0.00  0.00    -0.107 NA
BRANCH   7  10
ATOM     10  S   UNL d   1      53.344  30.025  53.486  0.00  0.00    -0.059 SA
BRANCH  10  11
ATOM     11  C   UNL d   1      53.336  29.698  54.239  0.00  0.00     0.037 C 
BRANCH  11  12
ATOM     12  C   UNL d   1      53.329  28.883  54.331  0.00  0.00     0.007 C 
ATOM     13  C   UNL d   1      53.394  28.549  55.077  0.00  0.00     0.001 C 
ENDBRANCH  11  12
ENDBRANCH  10  11
ENDBRANCH   7  10
ENDBRANCH   1   5
BRANCH   3  14
ATOM     14  C   UNL d   1      51.293  34.259  52.541  0.00  0.00     0.087 A 
ATOM     15  C   UNL d   1      50.738  34.443  53.125  0.00  0.00     0.022 A 
ATOM     16  C   UNL d   1      49.959  34.593  52.902  0.00  0.00     0.031 A 
ATOM     17  C   UNL d   1      49.730  34.561  52.110  0.00  0.00     0.140 A 
ATOM     18  C   UNL d   1      50.289  34.377  51.532  0.00  0.00     0.031 A 
ATOM     19  F   UNL d   1      48.942  34.713  51.896  0.00  0.00    -0.204 F 
ATOM     20  C   UNL d   1      51.071  34.226  51.747  0.00  0.00     0.022 A 
ENDBRANCH   3  14
TORSDOF 5
ENDMDL
MODEL 3
REMARK VINA RESULT:      -7.2      2.778      4.517
REMARK  5 active torsions:
REMARK  status: ('A' for Active; 'I' for Inactive)
REMARK    1  A    between atoms: N_6  and  C_1 
REMARK    2  A    between atoms: S_10  and  C_4 
REMARK       I    between atoms: C_7  and  N_6 
REMARK       I    between atoms: N_8  and  C_7 
REMARK    3  A    between atoms: C_11  and  N_8 
REMARK    4  A    between atoms: C_18  and  S_10 
REMARK    5  A    between atoms: C_19  and  C_18 
ROOT
ATOM      1  N   UNL d   1      52.730  32.289  53.043  0.00  0.00    -0.321 NA
ATOM      2  C   UNL d   1      52.580  32.964  52.894  0.00  0.00     0.422 C 
ATOM      3  N   UNL d   1      52.385  33.792  52.688  0.00  0.00    -0.180 NA
ATOM      4  O   UNL d   1      52.790  33.171  53.529  0.00  0.00    -0.228 OA
ENDROOT
BRANCH   1   5
ATOM      5  C   UNL d   1      52.859  31.428  53.062  0.00  0.00     0.271 A 
ATOM      6  S   UNL d   1      53.221  30.971  53.460  0.00  0.00    -0.006 SA
ATOM      7  C   UNL d   1      53.191  30.278  53.299  0.00  0.00     0.166 A 
ATOM      8  N   UNL d   1      52.805  30.053  52.751  0.00  0.00    -0.132 NA
ATOM      9  N   UNL d   1      52.473  31.204  52.513  0.00  0.00    -0.107 NA
BRANCH   7  10
ATOM     10  S   UNL d   1      53.509  29.712  53.620  0.00  0.00    -0.059 SA
BRANCH  10  11
ATOM     11  C   UNL d   1      53.175  29.381  54.293  0.00  0.00     0.037 C 
BRANCH  11  12
ATOM     12  C   UNL d   1      53.551  28.757  54.672  0.00  0.00     0.007 C 
ATOM     13  C   UNL d   1      53.326  28.535  55.428  0.00  0.00     0.001 C 
ENDBRANCH  11  12
ENDBRANCH  10  11
ENDBRANCH   7  10
ENDBRANCH   1   5
BRANCH   3  14
ATOM     14  C   UNL d   1      52.511  34.393  53.247  0.00  0.00     0.087 A 
ATOM     15  C   UNL d   1      51.894  34.626  53.744  0.00  0.00     0.022 A 
ATOM     16  C   UNL d   1      52.030  35.224  54.296  0.00  0.00     0.031 A 
ATOM     17  C   UNL d   1      52.768  35.587  54.356  0.00  0.00     0.140 A 
ATOM     18  C   UNL d   1      53.381  35.349  53.856  0.00  0.00     0.031 A 
ATOM     19  F   UNL d   1      52.895  36.188  54.915  0.00  0.00    -0.204 F 
ATOM     20  C   UNL d   1      53.252  34.752  53.302  0.00  0.00     0.022 A 
ENDBRANCH   3  14
TORSDOF 5
ENDMDL
MODEL 4
REMARK VINA RESULT:      -7.1      2.040      2.365
REMARK  5 active torsions:
REMARK  status: ('A' for Active; 'I' for Inactive)
REMARK    1  A    between atoms: N_6  and  C_1 
REMARK    2  A    between atoms: S_10  and  C_4 
REMARK       I    between atoms: C_7  and  N_6 
REMARK       I    between atoms: N_8  and  C_7 
REMARK    3  A    between atoms: C_11  and  N_8 
REMARK    4  A    between atoms: C_18  and  S_10 
REMARK    5  A    between atoms: C_19  and  C_18 
ROOT
ATOM      1  N   UNL d   1      52.091  32.892  52.926  0.00  0.00    -0.321 NA
ATOM      2  C   UNL d   1      52.615  32.423  52.845  0.00  0.00     0.422 C 
ATOM      3  N   UNL d   1      53.274  31.859  52.729  0.00  0.00    -0.180 NA
ATOM      4  O   UNL d   1      52.308  31.976  53.287  0.00  0.00    -0.228 OA
ENDROOT
BRANCH   1   5
ATOM      5  C   UNL d   1      51.540  33.566  52.912  0.00  0.00     0.271 A 
ATOM      6  S   UNL d   1      50.846  33.661  52.826  0.00  0.00    -0.006 SA
ATOM      7  C   UNL d   1      50.584  34.323  52.850  0.00  0.00     0.166 A 
ATOM      8  N   UNL d   1      51.014  34.874  52.958  0.00  0.00    -0.132 NA
ATOM      9  N   UNL d   1      51.970  34.117  53.019  0.00  0.00    -0.107 NA
BRANCH   7  10
ATOM     10  S   UNL d   1      49.902  34.556  52.779  0.00  0.00    -0.059 SA
BRANCH  10  11
ATOM     11  C   UNL d   1      49.571  34.634  52.032  0.00  0.00     0.037 C 
BRANCH  11  12
ATOM     12  C   UNL d   1      48.794  34.886  51.954  0.00  0.00     0.007 C 
ATOM     13  C   UNL d   1      48.423  34.867  51.223  0.00  0.00     0.001 C 
ENDBRANCH  11  12
ENDBRANCH  10  11
ENDBRANCH   7  10
ENDBRANCH   1   5
BRANCH   3  14
ATOM     14  C   UNL d   1      53.265  31.133  53.131  0.00  0.00     0.087 A 
ATOM     15  C   UNL d   1      53.648  31.064  53.860  0.00  0.00     0.022 A 
ATOM     16  C   UNL d   1      53.633  30.337  54.251  0.00  0.00     0.031 A 
ATOM     17  C   UNL d   1      53.245  29.687  53.925  0.00  0.00     0.140 A 
ATOM     18  C   UNL d   1      52.865  29.763  53.196  0.00  0.00     0.031 A 
ATOM     19  F   UNL d   1      53.237  28.960  54.327  0.00  0.00    -0.204 F 
ATOM     20  C   UNL d   1      52.875  30.486  52.800  0.00  0.00     0.022 A 
ENDBRANCH   3  14
TORSDOF 5
ENDMDL
MODEL 5
REMARK VINA RESULT:      -6.9      2.789      3.565
REMARK  5 active torsions:
REMARK  status: ('A' for Active; 'I' for Inactive)
REMARK    1  A    between atoms: N_6  and  C_1 
REMARK    2  A    between atoms: S_10  and  C_4 
REMARK       I    between atoms: C_7  and  N_6 
REMARK       I    between atoms: N_8  and  C_7 
REMARK    3  A    between atoms: C_11  and  N_8 
REMARK    4  A    between atoms: C_18  and  S_10 
REMARK    5  A    between atoms: C_19  and  C_18 
ROOT
ATOM      1  N   UNL d   1      52.597  32.107  52.881  0.00  0.00    -0.321 NA
ATOM      2  C   UNL d   1      52.736  31.427  52.749  0.00  0.00     0.422 C 
ATOM      3  N   UNL d   1      52.906  30.589  52.562  0.00  0.00    -0.180 NA
ATOM      4  O   UNL d   1      52.801  31.288  53.432  0.00  0.00    -0.228 OA
ENDROOT
BRANCH   1   5
ATOM      5  C   UNL d   1      52.413  32.958  52.868  0.00  0.00     0.271 A 
ATOM      6  S   UNL d   1      52.685  33.547  53.148  0.00  0.00    -0.006 SA
ATOM      7  C   UNL d   1      52.370  34.170  53.008  0.00  0.00     0.166 A 
ATOM      8  N   UNL d   1      51.797  34.197  52.595  0.00  0.00    -0.132 NA
ATOM      9  N   UNL d   1      51.840  32.985  52.456  0.00  0.00    -0.107 NA
BRANCH   7  10
ATOM     10  S   UNL d   1      52.543  34.838  53.228  0.00  0.00    -0.059 SA
BRANCH  10  11
ATOM     11  C   UNL d   1      52.719  34.978  54.017  0.00  0.00     0.037 C 
BRANCH  11  12
ATOM     12  C   UNL d   1      52.999  35.713  54.250  0.00  0.00     0.007 C 
ATOM     13  C   UNL d   1      53.034  35.911  55.045  0.00  0.00     0.001 C 
ENDBRANCH  11  12
ENDBRANCH  10  11
ENDBRANCH   7  10
ENDBRANCH   1   5
BRANCH   3  14
ATOM     14  C   UNL d   1      53.053  30.053  53.180  0.00  0.00     0.087 A 
ATOM     15  C   UNL d   1      53.811  30.000  53.504  0.00  0.00     0.022 A 
ATOM     16  C   UNL d   1      53.946  29.465  54.117  0.00  0.00     0.031 A 
ATOM     17  C   UNL d   1      53.338  28.988  54.406  0.00  0.00     0.140 A 
ATOM     18  C   UNL d   1      52.584  29.046  54.077  0.00  0.00     0.031 A 
ATOM     19  F   UNL d   1      53.485  28.452  55.024  0.00  0.00    -0.204 F 
ATOM     20  C   UNL d   1      52.441  29.579  53.464  0.00  0.00     0.022 A 
ENDBRANCH   3  14
TORSDOF 5
ENDMDL
