MODEL 1
REMARK VINA RESULT:      47.4      0.000      0.000
REMARK  4 active torsions:
REMARK  status: ('A' for Active; 'I' for Inactive)
REMARK    1  A    between atoms: C_7  and  C_4 
REMARK    2  A    between atoms: C_8  and  C_5 
REMARK    3  A    between atoms: S_9  and  C_6 
REMARK    4  A    between atoms: C_14  and  S_9 
ROOT
ATOM      1  N   UNL d   1      60.581  49.212  51.406  0.00  0.00    -0.200 NA
ATOM      2  N   UNL d   1      59.222  49.228  51.790  0.00  0.00    -0.202 NA
ATOM      3  N   UNL d   1      59.575  49.288  50.405  0.00  0.00    -0.206 NA
ATOM      4  C   UNL d   1      60.383  49.256  50.626  0.00  0.00     0.187 A 
ATOM      5  C   UNL d   1      59.008  49.273  50.995  0.00  0.00     0.166 A 
ATOM      6  C   UNL d   1      60.003  49.198  51.985  0.00  0.00     0.197 A 
ENDROOT
BRANCH   5   7
ATOM      7  C   UNL d   1      58.211  49.305  50.784  0.00  0.00     0.036 A 
ATOM      8  C   UNL d   1      57.689  49.671  51.277  0.00  0.00     0.003 A 
ATOM      9  C   UNL d   1      56.893  49.702  51.066  0.00  0.00     0.000 A 
ATOM     10  C   UNL d   1      56.638  49.361  50.358  0.00  0.00     0.000 A 
ATOM     11  C   UNL d   1      57.181  48.988  49.861  0.00  0.00     0.000 A 
ATOM     12  C   UNL d   1      57.957  48.963  50.076  0.00  0.00     0.003 A 
ENDBRANCH   5   7
BRANCH   6  13
ATOM     13  S   UNL d   1      60.217  49.151  52.808  0.00  0.00    -0.048 SA
BRANCH  13  14
ATOM     14  C   UNL d   1      60.850  49.597  53.104  0.00  0.00     0.038 C 
ATOM     15  C   UNL d   1      60.942  49.706  53.920  0.00  0.00     0.008 C 
ENDBRANCH  13  14
ENDBRANCH   6  13
BRANCH   4  16
ATOM     16  C   UNL d   1      60.979  49.269  50.061  0.00  0.00     0.151 C 
ATOM     17 CL   UNL d   1      61.749  49.332  50.302  0.00  0.00    -0.067 Cl
ATOM     18 CL   UNL d   1      60.803  49.219  49.277  0.00  0.00    -0.067 Cl
ENDBRANCH   4  16
TORSDOF 4
ENDMDL
MODEL 2
REMARK VINA RESULT:      49.4      2.010      3.601
REMARK  4 active torsions:
REMARK  status: ('A' for Active; 'I' for Inactive)
REMARK    1  A    between atoms: C_7  and  C_4 
REMARK    2  A    between atoms: C_8  and  C_5 
REMARK    3  A    between atoms: S_9  and  C_6 
REMARK    4  A    between atoms: C_14  and  S_9 
ROOT
ATOM      1  N   UNL d   1      60.297  49.527  51.218  0.00  0.00    -0.200 NA
ATOM      2  N   UNL d   1      60.219  48.474  50.280  0.00  0.00    -0.202 NA
ATOM      3  N   UNL d   1      61.188  48.426  51.332  0.00  0.00    -0.206 NA
ATOM      4  C   UNL d   1      60.902  49.164  51.607  0.00  0.00     0.187 A 
ATOM      5  C   UNL d   1      60.838  48.094  50.670  0.00  0.00     0.166 A 
ATOM      6  C   UNL d   1      59.957  49.184  50.558  0.00  0.00     0.197 A 
ENDROOT
BRANCH   5   7
ATOM      7  C   UNL d   1      61.114  47.368  50.394  0.00  0.00     0.036 A 
ATOM      8  C   UNL d   1      61.701  47.355  49.842  0.00  0.00     0.003 A 
ATOM      9  C   UNL d   1      61.977  46.628  49.566  0.00  0.00     0.000 A 
ATOM     10  C   UNL d   1      61.652  45.926  49.855  0.00  0.00     0.000 A 
ATOM     11  C   UNL d   1      61.052  45.950  50.420  0.00  0.00     0.000 A 
ATOM     12  C   UNL d   1      60.789  46.665  50.683  0.00  0.00     0.003 A 
ENDBRANCH   5   7
BRANCH   6  13
ATOM     13  S   UNL d   1      59.318  49.571  50.151  0.00  0.00    -0.048 SA
BRANCH  13  14
ATOM     14  C   UNL d   1      58.564  49.612  50.494  0.00  0.00     0.038 C 
ATOM     15  C   UNL d   1      57.892  49.707  50.019  0.00  0.00     0.008 C 
ENDBRANCH  13  14
ENDBRANCH   6  13
BRANCH   4  16
ATOM     16  C   UNL d   1      61.230  49.526  52.268  0.00  0.00     0.151 C 
ATOM     17 CL   UNL d   1      60.751  49.706  52.896  0.00  0.00    -0.067 Cl
ATOM     18 CL   UNL d   1      62.014  49.702  52.294  0.00  0.00    -0.067 Cl
ENDBRANCH   4  16
TORSDOF 4
ENDMDL
