MODEL 1
REMARK VINA RESULT:      -8.5      0.000      0.000
REMARK  2 active torsions:
REMARK  status: ('A' for Active; 'I' for Inactive)
REMARK    1  A    between atoms: C_7  and  C_1 
REMARK    2  A    between atoms: O_19  and  C_15 
ROOT
ATOM      1  C   UNL d   1     -47.918  13.762  22.820  0.00  0.00     0.064 A 
ATOM      2  C   UNL d   1     -47.921  13.018  23.198  0.00  0.00     0.199 A 
ATOM      3  C   UNL d   1     -47.223  12.578  23.262  0.00  0.00     0.062 A 
ATOM      4  C   UNL d   1     -47.203  14.064  22.506  0.00  0.00     0.126 A 
ATOM      5  C   UNL d   1     -46.510  12.884  22.947  0.00  0.00     0.106 A 
ATOM      6  O   UNL d   1     -46.498  13.619  22.571  0.00  0.00    -0.305 OA
ATOM      7  C   UNL d   1     -47.228  11.847  23.634  0.00  0.00     0.009 A 
ATOM      8  C   UNL d   1     -45.814  12.444  23.012  0.00  0.00     0.067 A 
ATOM      9  O   UNL d   1     -48.625  12.720  23.507  0.00  0.00    -0.286 OA
ATOM     10  C   UNL d   1     -45.829  11.709  23.388  0.00  0.00     0.198 A 
ATOM     11  C   UNL d   1     -46.533  11.411  23.698  0.00  0.00     0.042 A 
ATOM     12  O   UNL d   1     -45.134  11.272  23.452  0.00  0.00    -0.286 OA
ENDROOT
BRANCH   1  13
ATOM     13  C   UNL d   1     -48.611  14.194  22.758  0.00  0.00     0.005 A 
ATOM     14  C   UNL d   1     -49.124  14.054  22.126  0.00  0.00     0.002 A 
ATOM     15  C   UNL d   1     -49.820  14.490  22.067  0.00  0.00     0.024 A 
ATOM     16  C   UNL d   1     -50.008  15.063  22.631  0.00  0.00     0.094 A 
ATOM     17  C   UNL d   1     -49.485  15.197  23.266  0.00  0.00     0.024 A 
ATOM     18  C   UNL d   1     -48.789  14.762  23.326  0.00  0.00     0.002 A 
BRANCH  16  19
ATOM     19  O   UNL d   1     -50.704  15.498  22.571  0.00  0.00    -0.328 OA
ATOM     20  C   UNL d   1     -51.064  15.798  23.252  0.00  0.00     0.181 C 
ENDBRANCH  16  19
ENDBRANCH   1  13
TORSDOF 2
ENDMDL
MODEL 2
REMARK VINA RESULT:      -8.4      0.948      4.257
REMARK  2 active torsions:
REMARK  status: ('A' for Active; 'I' for Inactive)
REMARK    1  A    between atoms: C_7  and  C_1 
REMARK    2  A    between atoms: O_19  and  C_15 
ROOT
ATOM      1  C   UNL d   1     -47.822  13.302  22.829  0.00  0.00     0.064 A 
ATOM      2  C   UNL d   1     -48.424  13.016  22.326  0.00  0.00     0.199 A 
ATOM      3  C   UNL d   1     -49.087  13.483  22.160  0.00  0.00     0.062 A 
ATOM      4  C   UNL d   1     -47.892  14.064  23.167  0.00  0.00     0.126 A 
ATOM      5  C   UNL d   1     -49.153  14.245  22.500  0.00  0.00     0.106 A 
ATOM      6  O   UNL d   1     -48.562  14.535  22.999  0.00  0.00    -0.305 OA
ATOM      7  C   UNL d   1     -49.678  13.200  21.666  0.00  0.00     0.009 A 
ATOM      8  C   UNL d   1     -49.815  14.710  22.335  0.00  0.00     0.067 A 
ATOM      9  O   UNL d   1     -48.356  12.265  21.993  0.00  0.00    -0.286 OA
ATOM     10  C   UNL d   1     -50.405  14.417  21.835  0.00  0.00     0.198 A 
ATOM     11  C   UNL d   1     -50.337  13.665  21.502  0.00  0.00     0.042 A 
ATOM     12  O   UNL d   1     -51.064  14.882  21.671  0.00  0.00    -0.286 OA
ENDROOT
BRANCH   1  13
ATOM     13  C   UNL d   1     -47.167  12.837  22.990  0.00  0.00     0.005 A 
ATOM     14  C   UNL d   1     -46.451  12.995  22.613  0.00  0.00     0.002 A 
ATOM     15  C   UNL d   1     -45.794  12.526  22.777  0.00  0.00     0.024 A 
ATOM     16  C   UNL d   1     -45.847  11.901  23.314  0.00  0.00     0.094 A 
ATOM     17  C   UNL d   1     -46.574  11.748  23.691  0.00  0.00     0.024 A 
ATOM     18  C   UNL d   1     -47.231  12.216  23.527  0.00  0.00     0.002 A 
BRANCH  16  19
ATOM     19  O   UNL d   1     -45.191  11.433  23.478  0.00  0.00    -0.328 OA
ATOM     20  C   UNL d   1     -45.291  10.640  23.691  0.00  0.00     0.181 C 
ENDBRANCH  16  19
ENDBRANCH   1  13
TORSDOF 2
ENDMDL
MODEL 3
REMARK VINA RESULT:      -7.2      1.719      3.919
REMARK  2 active torsions:
REMARK  status: ('A' for Active; 'I' for Inactive)
REMARK    1  A    between atoms: C_7  and  C_1 
REMARK    2  A    between atoms: O_19  and  C_15 
ROOT
ATOM      1  C   UNL d   1     -47.593  13.030  22.644  0.00  0.00     0.064 A 
ATOM      2  C   UNL d   1     -47.861  12.327  23.004  0.00  0.00     0.199 A 
ATOM      3  C   UNL d   1     -48.664  12.223  23.175  0.00  0.00     0.062 A 
ATOM      4  C   UNL d   1     -48.141  13.634  22.456  0.00  0.00     0.126 A 
ATOM      5  C   UNL d   1     -49.209  12.829  22.985  0.00  0.00     0.106 A 
ATOM      6  O   UNL d   1     -48.953  13.529  22.628  0.00  0.00    -0.305 OA
ATOM      7  C   UNL d   1     -48.925  11.531  23.529  0.00  0.00     0.009 A 
ATOM      8  C   UNL d   1     -50.011  12.726  23.155  0.00  0.00     0.067 A 
ATOM      9  O   UNL d   1     -47.320  11.732  23.191  0.00  0.00    -0.286 OA
ATOM     10  C   UNL d   1     -50.264  12.024  23.512  0.00  0.00     0.198 A 
ATOM     11  C   UNL d   1     -49.724  11.430  23.698  0.00  0.00     0.042 A 
ATOM     12  O   UNL d   1     -51.064  11.923  23.681  0.00  0.00    -0.286 OA
ENDROOT
BRANCH   1  13
ATOM     13  C   UNL d   1     -46.796  13.129  22.477  0.00  0.00     0.005 A 
ATOM     14  C   UNL d   1     -46.317  13.544  23.005  0.00  0.00     0.002 A 
ATOM     15  C   UNL d   1     -45.517  13.641  22.834  0.00  0.00     0.024 A 
ATOM     16  C   UNL d   1     -45.193  13.327  22.142  0.00  0.00     0.094 A 
ATOM     17  C   UNL d   1     -45.685  12.910  21.615  0.00  0.00     0.024 A 
ATOM     18  C   UNL d   1     -46.484  12.812  21.784  0.00  0.00     0.002 A 
BRANCH  16  19
ATOM     19  O   UNL d   1     -44.394  13.425  21.972  0.00  0.00    -0.328 OA
ATOM     20  C   UNL d   1     -43.942  12.778  21.724  0.00  0.00     0.181 C 
ENDBRANCH  16  19
ENDBRANCH   1  13
TORSDOF 2
ENDMDL
MODEL 4
REMARK VINA RESULT:      -6.7      1.032      1.564
REMARK  2 active torsions:
REMARK  status: ('A' for Active; 'I' for Inactive)
REMARK    1  A    between atoms: C_7  and  C_1 
REMARK    2  A    between atoms: O_19  and  C_15 
ROOT
ATOM      1  C   UNL d   1     -46.631  12.899  22.713  0.00  0.00     0.064 A 
ATOM      2  C   UNL d   1     -46.639  12.160  23.100  0.00  0.00     0.199 A 
ATOM      3  C   UNL d   1     -45.941  11.722  23.180  0.00  0.00     0.062 A 
ATOM      4  C   UNL d   1     -45.913  13.198  22.406  0.00  0.00     0.126 A 
ATOM      5  C   UNL d   1     -45.224  12.025  22.872  0.00  0.00     0.106 A 
ATOM      6  O   UNL d   1     -45.208  12.756  22.488  0.00  0.00    -0.305 OA
ATOM      7  C   UNL d   1     -45.951  10.995  23.561  0.00  0.00     0.009 A 
ATOM      8  C   UNL d   1     -44.528  11.588  22.953  0.00  0.00     0.067 A 
ATOM      9  O   UNL d   1     -47.347  11.865  23.403  0.00  0.00    -0.286 OA
ATOM     10  C   UNL d   1     -44.548  10.857  23.338  0.00  0.00     0.198 A 
ATOM     11  C   UNL d   1     -45.256  10.562  23.640  0.00  0.00     0.042 A 
ATOM     12  O   UNL d   1     -43.853  10.422  23.417  0.00  0.00    -0.286 OA
ENDROOT
BRANCH   1  13
ATOM     13  C   UNL d   1     -47.325  13.329  22.635  0.00  0.00     0.005 A 
ATOM     14  C   UNL d   1     -47.935  13.037  22.163  0.00  0.00     0.002 A 
ATOM     15  C   UNL d   1     -48.630  13.471  22.087  0.00  0.00     0.024 A 
ATOM     16  C   UNL d   1     -48.721  14.193  22.478  0.00  0.00     0.094 A 
ATOM     17  C   UNL d   1     -48.100  14.481  22.952  0.00  0.00     0.024 A 
ATOM     18  C   UNL d   1     -47.405  14.047  23.029  0.00  0.00     0.002 A 
BRANCH  16  19
ATOM     19  O   UNL d   1     -49.416  14.627  22.401  0.00  0.00    -0.328 OA
ATOM     20  C   UNL d   1     -49.465  15.390  22.716  0.00  0.00     0.181 C 
ENDBRANCH  16  19
ENDBRANCH   1  13
TORSDOF 2
ENDMDL
MODEL 5
REMARK VINA RESULT:      -6.4      8.229      9.178
REMARK  2 active torsions:
REMARK  status: ('A' for Active; 'I' for Inactive)
REMARK    1  A    between atoms: C_7  and  C_1 
REMARK    2  A    between atoms: O_19  and  C_15 
ROOT
ATOM      1  C   UNL d   1     -39.971  14.511  19.873  0.00  0.00     0.064 A 
ATOM      2  C   UNL d   1     -39.203  14.226  20.031  0.00  0.00     0.199 A 
ATOM      3  C   UNL d   1     -38.999  13.972  20.791  0.00  0.00     0.062 A 
ATOM      4  C   UNL d   1     -40.537  14.541  20.490  0.00  0.00     0.126 A 
ATOM      5  C   UNL d   1     -39.567  14.003  21.405  0.00  0.00     0.106 A 
ATOM      6  O   UNL d   1     -40.329  14.284  21.258  0.00  0.00    -0.305 OA
ATOM      7  C   UNL d   1     -38.243  13.691  20.944  0.00  0.00     0.009 A 
ATOM      8  C   UNL d   1     -39.362  13.750  22.164  0.00  0.00     0.067 A 
ATOM      9  O   UNL d   1     -38.646  14.196  19.423  0.00  0.00    -0.286 OA
ATOM     10  C   UNL d   1     -38.598  13.468  22.308  0.00  0.00     0.198 A 
ATOM     11  C   UNL d   1     -38.041  13.439  21.700  0.00  0.00     0.042 A 
ATOM     12  O   UNL d   1     -38.396  13.216  23.065  0.00  0.00    -0.286 OA
ENDROOT
BRANCH   1  13
ATOM     13  C   UNL d   1     -40.170  14.762  19.119  0.00  0.00     0.005 A 
ATOM     14  C   UNL d   1     -40.117  15.562  18.927  0.00  0.00     0.002 A 
ATOM     15  C   UNL d   1     -40.317  15.811  18.168  0.00  0.00     0.024 A 
ATOM     16  C   UNL d   1     -40.569  15.267  17.600  0.00  0.00     0.094 A 
ATOM     17  C   UNL d   1     -40.620  14.461  17.802  0.00  0.00     0.024 A 
ATOM     18  C   UNL d   1     -40.420  14.211  18.560  0.00  0.00     0.002 A 
BRANCH  16  19
ATOM     19  O   UNL d   1     -40.769  15.516  16.842  0.00  0.00    -0.328 OA
ATOM     20  C   UNL d   1     -41.484  15.909  16.710  0.00  0.00     0.181 C 
ENDBRANCH  16  19
ENDBRANCH   1  13
TORSDOF 2
ENDMDL
MODEL 6
REMARK VINA RESULT:      -6.1      8.548      9.626
REMARK  2 active torsions:
REMARK  status: ('A' for Active; 'I' for Inactive)
REMARK    1  A    between atoms: C_7  and  C_1 
REMARK    2  A    between atoms: O_19  and  C_15 
ROOT
ATOM      1  C   UNL d   1     -39.897  14.791  19.919  0.00  0.00     0.064 A 
ATOM      2  C   UNL d   1     -39.901  14.415  19.174  0.00  0.00     0.199 A 
ATOM      3  C   UNL d   1     -40.245  14.787  18.520  0.00  0.00     0.062 A 
ATOM      4  C   UNL d   1     -40.245  15.547  20.003  0.00  0.00     0.126 A 
ATOM      5  C   UNL d   1     -40.592  15.543  18.608  0.00  0.00     0.106 A 
ATOM      6  O   UNL d   1     -40.594  15.922  19.342  0.00  0.00    -0.305 OA
ATOM      7  C   UNL d   1     -40.248  14.416  17.788  0.00  0.00     0.009 A 
ATOM      8  C   UNL d   1     -40.937  15.913  17.955  0.00  0.00     0.067 A 
ATOM      9  O   UNL d   1     -39.558  13.670  19.091  0.00  0.00    -0.286 OA
ATOM     10  C   UNL d   1     -40.934  15.532  17.221  0.00  0.00     0.198 A 
ATOM     11  C   UNL d   1     -40.591  14.786  17.138  0.00  0.00     0.042 A 
ATOM     12  O   UNL d   1     -41.277  15.902  16.571  0.00  0.00    -0.286 OA
ENDROOT
BRANCH   1  13
ATOM     13  C   UNL d   1     -39.555  14.419  20.564  0.00  0.00     0.005 A 
ATOM     14  C   UNL d   1     -40.035  14.051  21.125  0.00  0.00     0.002 A 
ATOM     15  C   UNL d   1     -39.688  13.679  21.773  0.00  0.00     0.024 A 
ATOM     16  C   UNL d   1     -38.867  13.671  21.864  0.00  0.00     0.094 A 
ATOM     17  C   UNL d   1     -38.390  14.046  21.293  0.00  0.00     0.024 A 
ATOM     18  C   UNL d   1     -38.736  14.418  20.646  0.00  0.00     0.002 A 
BRANCH  16  19
ATOM     19  O   UNL d   1     -38.521  13.300  22.511  0.00  0.00    -0.328 OA
ATOM     20  C   UNL d   1     -38.684  13.564  23.277  0.00  0.00     0.181 C 
ENDBRANCH  16  19
ENDBRANCH   1  13
TORSDOF 2
ENDMDL
MODEL 7
REMARK VINA RESULT:      -6.0      8.432     10.436
REMARK  2 active torsions:
REMARK  status: ('A' for Active; 'I' for Inactive)
REMARK    1  A    between atoms: C_7  and  C_1 
REMARK    2  A    between atoms: O_19  and  C_15 
ROOT
ATOM      1  C   UNL d   1     -39.687  14.480  18.201  0.00  0.00     0.064 A 
ATOM      2  C   UNL d   1     -39.299  14.832  18.851  0.00  0.00     0.199 A 
ATOM      3  C   UNL d   1     -39.734  15.106  19.499  0.00  0.00     0.062 A 
ATOM      4  C   UNL d   1     -40.520  14.404  18.207  0.00  0.00     0.126 A 
ATOM      5  C   UNL d   1     -40.567  15.029  19.501  0.00  0.00     0.106 A 
ATOM      6  O   UNL d   1     -40.959  14.682  18.862  0.00  0.00    -0.305 OA
ATOM      7  C   UNL d   1     -39.351  15.452  20.137  0.00  0.00     0.009 A 
ATOM      8  C   UNL d   1     -41.001  15.303  20.149  0.00  0.00     0.067 A 
ATOM      9  O   UNL d   1     -38.477  14.906  18.845  0.00  0.00    -0.286 OA
ATOM     10  C   UNL d   1     -40.606  15.649  20.787  0.00  0.00     0.198 A 
ATOM     11  C   UNL d   1     -39.785  15.724  20.781  0.00  0.00     0.042 A 
ATOM     12  O   UNL d   1     -41.040  15.922  21.432  0.00  0.00    -0.286 OA
ENDROOT
BRANCH   1  13
ATOM     13  C   UNL d   1     -39.252  14.209  17.561  0.00  0.00     0.005 A 
ATOM     14  C   UNL d   1     -38.973  13.433  17.555  0.00  0.00     0.002 A 
ATOM     15  C   UNL d   1     -38.537  13.164  16.910  0.00  0.00     0.024 A 
ATOM     16  C   UNL d   1     -38.377  13.664  16.273  0.00  0.00     0.094 A 
ATOM     17  C   UNL d   1     -38.662  14.446  16.286  0.00  0.00     0.024 A 
ATOM     18  C   UNL d   1     -39.098  14.716  16.930  0.00  0.00     0.002 A 
BRANCH  16  19
ATOM     19  O   UNL d   1     -37.941  13.395  15.629  0.00  0.00    -0.328 OA
ATOM     20  C   UNL d   1     -37.980  13.795  14.906  0.00  0.00     0.181 C 
ENDBRANCH  16  19
ENDBRANCH   1  13
TORSDOF 2
ENDMDL
