MODEL 1
REMARK VINA RESULT:      -8.6      0.000      0.000
REMARK  6 active torsions:
REMARK  status: ('A' for Active; 'I' for Inactive)
REMARK    1  A    between atoms: C_9  and  N_1 
REMARK    2  A    between atoms: C_3  and  C_2 
REMARK    3  A    between atoms: C_12  and  C_9 
REMARK    4  A    between atoms: C_15  and  C_9 
REMARK    5  A    between atoms: C_20  and  C_15 
REMARK    6  A    between atoms: C_17  and  C_20 
ROOT
ATOM      1  N   UNL d   1      54.107  33.028  54.075  0.00  0.00    -0.254 N 
ATOM      2  C   UNL d   1      53.743  31.921  53.559  0.00  0.00     0.093 A 
ATOM      3  C   UNL d   1      54.648  32.876  53.558  0.00  0.00     0.153 A 
ATOM      4  C   UNL d   1      53.532  32.464  54.106  0.00  0.00     0.272 A 
ATOM      5  S   UNL d   1      54.430  32.176  53.223  0.00  0.00    -0.053 SA
ATOM      6  S   UNL d   1      55.306  33.360  53.408  0.00  0.00    -0.052 SA
ATOM      7  O   UNL d   1      52.875  32.435  54.581  0.00  0.00    -0.266 OA
ENDROOT
BRANCH   2   8
ATOM      8  C   UNL d   1      53.329  31.231  53.379  0.00  0.00     0.070 A 
ATOM      9  C   UNL d   1      52.806  31.271  52.759  0.00  0.00     0.280 A 
ATOM     10  N   UNL d   1      52.440  30.527  52.657  0.00  0.00    -0.208 NA
ATOM     11  O   UNL d   1      52.657  31.941  52.297  0.00  0.00    -0.265 OA
ATOM     12  C   UNL d   1      52.750  30.025  53.230  0.00  0.00     0.085 A 
ATOM     13  C   UNL d   1      53.299  30.448  53.682  0.00  0.00     0.023 A 
ATOM     14  C   UNL d   1      52.603  29.220  53.408  0.00  0.00     0.019 A 
ATOM     15  C   UNL d   1      53.685  30.098  54.278  0.00  0.00     0.002 A 
ATOM     16  C   UNL d   1      53.556  29.332  54.459  0.00  0.00     0.000 A 
ATOM     17  C   UNL d   1      52.998  28.855  54.020  0.00  0.00     0.002 A 
ENDBRANCH   2   8
BRANCH   1  18
ATOM     18  C   UNL d   1      54.159  33.748  54.550  0.00  0.00     0.133 C 
BRANCH  18  19
ATOM     19  C   UNL d   1      54.549  33.684  55.287  0.00  0.00     0.228 C 
ATOM     20  O   UNL d   1      54.239  33.277  55.898  0.00  0.00    -0.643 OA
ATOM     21  O   UNL d   1      55.293  34.075  55.349  0.00  0.00    -0.643 OA
ENDBRANCH  18  19
BRANCH  18  22
ATOM     22  C   UNL d   1      53.845  34.441  54.291  0.00  0.00     0.030 C 
BRANCH  22  23
ATOM     23  C   UNL d   1      53.341  34.837  54.810  0.00  0.00     0.072 C 
BRANCH  23  24
ATOM     24  C   UNL d   1      52.946  35.522  54.478  0.00  0.00     0.211 C 
ATOM     25  O   UNL d   1      52.276  35.440  54.016  0.00  0.00    -0.644 OA
ATOM     26  O   UNL d   1      53.273  36.244  54.648  0.00  0.00    -0.644 OA
ENDBRANCH  23  24
ENDBRANCH  22  23
ENDBRANCH  18  22
ENDBRANCH   1  18
TORSDOF 6
ENDMDL
MODEL 2
REMARK VINA RESULT:      -7.6      1.416      4.505
REMARK  6 active torsions:
REMARK  status: ('A' for Active; 'I' for Inactive)
REMARK    1  A    between atoms: C_9  and  N_1 
REMARK    2  A    between atoms: C_3  and  C_2 
REMARK    3  A    between atoms: C_12  and  C_9 
REMARK    4  A    between atoms: C_15  and  C_9 
REMARK    5  A    between atoms: C_20  and  C_15 
REMARK    6  A    between atoms: C_17  and  C_20 
ROOT
ATOM      1  N   UNL d   1      53.604  31.433  53.629  0.00  0.00    -0.254 N 
ATOM      2  C   UNL d   1      53.804  32.642  53.979  0.00  0.00     0.093 A 
ATOM      3  C   UNL d   1      54.268  31.615  53.300  0.00  0.00     0.153 A 
ATOM      4  C   UNL d   1      53.287  32.039  54.056  0.00  0.00     0.272 A 
ATOM      5  S   UNL d   1      54.408  32.379  53.513  0.00  0.00    -0.053 SA
ATOM      6  S   UNL d   1      54.717  31.099  52.829  0.00  0.00    -0.052 SA
ATOM      7  O   UNL d   1      52.594  32.054  54.479  0.00  0.00    -0.266 OA
ENDROOT
BRANCH   2   8
ATOM      8  C   UNL d   1      53.728  33.391  54.316  0.00  0.00     0.070 A 
ATOM      9  C   UNL d   1      54.121  33.517  55.015  0.00  0.00     0.280 A 
ATOM     10  N   UNL d   1      53.982  34.300  55.273  0.00  0.00    -0.208 NA
ATOM     11  O   UNL d   1      54.588  32.962  55.413  0.00  0.00    -0.265 OA
ATOM     12  C   UNL d   1      53.492  34.654  54.716  0.00  0.00     0.085 A 
ATOM     13  C   UNL d   1      53.329  34.104  54.120  0.00  0.00     0.023 A 
ATOM     14  C   UNL d   1      53.164  35.423  54.667  0.00  0.00     0.019 A 
ATOM     15  C   UNL d   1      52.866  34.298  53.508  0.00  0.00     0.002 A 
ATOM     16  C   UNL d   1      52.547  35.027  53.448  0.00  0.00     0.000 A 
ATOM     17  C   UNL d   1      52.687  35.628  54.039  0.00  0.00     0.002 A 
ENDBRANCH   2   8
BRANCH   1  18
ATOM     18  C   UNL d   1      53.273  30.642  53.520  0.00  0.00     0.133 C 
BRANCH  18  19
ATOM     19  C   UNL d   1      52.663  30.565  52.954  0.00  0.00     0.228 C 
ATOM     20  O   UNL d   1      51.901  30.717  53.127  0.00  0.00    -0.643 OA
ATOM     21  O   UNL d   1      52.901  30.317  52.183  0.00  0.00    -0.643 OA
ENDBRANCH  18  19
BRANCH  18  22
ATOM     22  C   UNL d   1      53.543  30.017  53.946  0.00  0.00     0.030 C 
BRANCH  22  23
ATOM     23  C   UNL d   1      52.988  29.444  54.156  0.00  0.00     0.072 C 
BRANCH  23  24
ATOM     24  C   UNL d   1      53.277  28.840  54.692  0.00  0.00     0.211 C 
ATOM     25  O   UNL d   1      53.713  28.205  54.417  0.00  0.00    -0.644 OA
ATOM     26  O   UNL d   1      53.095  28.936  55.476  0.00  0.00    -0.644 OA
ENDBRANCH  23  24
ENDBRANCH  22  23
ENDBRANCH  18  22
ENDBRANCH   1  18
TORSDOF 6
ENDMDL
MODEL 3
REMARK VINA RESULT:      -7.1      1.870      2.486
REMARK  6 active torsions:
REMARK  status: ('A' for Active; 'I' for Inactive)
REMARK    1  A    between atoms: C_9  and  N_1 
REMARK    2  A    between atoms: C_3  and  C_2 
REMARK    3  A    between atoms: C_12  and  C_9 
REMARK    4  A    between atoms: C_15  and  C_9 
REMARK    5  A    between atoms: C_20  and  C_15 
REMARK    6  A    between atoms: C_17  and  C_20 
ROOT
ATOM      1  N   UNL d   1      52.555  33.611  53.521  0.00  0.00    -0.254 N 
ATOM      2  C   UNL d   1      53.135  32.486  53.669  0.00  0.00     0.093 A 
ATOM      3  C   UNL d   1      52.838  33.639  54.229  0.00  0.00     0.153 A 
ATOM      4  C   UNL d   1      52.716  32.918  53.144  0.00  0.00     0.272 A 
ATOM      5  S   UNL d   1      53.209  32.932  54.338  0.00  0.00    -0.053 SA
ATOM      6  S   UNL d   1      52.756  34.285  54.745  0.00  0.00    -0.052 SA
ATOM      7  O   UNL d   1      52.508  32.687  52.394  0.00  0.00    -0.266 OA
ENDROOT
BRANCH   2   8
ATOM      8  C   UNL d   1      53.432  31.727  53.544  0.00  0.00     0.070 A 
ATOM      9  C   UNL d   1      54.228  31.667  53.400  0.00  0.00     0.280 A 
ATOM     10  N   UNL d   1      54.430  30.863  53.287  0.00  0.00    -0.208 NA
ATOM     11  O   UNL d   1      54.762  32.299  53.369  0.00  0.00    -0.265 OA
ATOM     12  C   UNL d   1      53.736  30.428  53.365  0.00  0.00     0.085 A 
ATOM     13  C   UNL d   1      53.114  30.949  53.524  0.00  0.00     0.023 A 
ATOM     14  C   UNL d   1      53.582  29.607  53.313  0.00  0.00     0.019 A 
ATOM     15  C   UNL d   1      52.377  30.679  53.626  0.00  0.00     0.002 A 
ATOM     16  C   UNL d   1      52.215  29.899  53.578  0.00  0.00     0.000 A 
ATOM     17  C   UNL d   1      52.825  29.322  53.416  0.00  0.00     0.002 A 
ENDBRANCH   2   8
BRANCH   1  18
ATOM     18  C   UNL d   1      52.113  34.285  53.209  0.00  0.00     0.133 C 
BRANCH  18  19
ATOM     19  C   UNL d   1      52.562  34.897  52.859  0.00  0.00     0.228 C 
ATOM     20  O   UNL d   1      52.814  34.862  52.104  0.00  0.00    -0.643 OA
ATOM     21  O   UNL d   1      52.736  35.560  53.351  0.00  0.00    -0.643 OA
ENDBRANCH  18  19
BRANCH  18  22
ATOM     22  C   UNL d   1      51.312  34.315  53.256  0.00  0.00     0.030 C 
BRANCH  22  23
ATOM     23  C   UNL d   1      50.912  34.611  52.598  0.00  0.00     0.072 C 
BRANCH  23  24
ATOM     24  C   UNL d   1      50.057  34.580  52.651  0.00  0.00     0.211 C 
ATOM     25  O   UNL d   1      49.661  34.894  53.293  0.00  0.00    -0.644 OA
ATOM     26  O   UNL d   1      49.671  34.225  52.032  0.00  0.00    -0.644 OA
ENDBRANCH  23  24
ENDBRANCH  22  23
ENDBRANCH  18  22
ENDBRANCH   1  18
TORSDOF 6
ENDMDL
MODEL 4
REMARK VINA RESULT:      -7.1      1.025      1.549
REMARK  6 active torsions:
REMARK  status: ('A' for Active; 'I' for Inactive)
REMARK    1  A    between atoms: C_9  and  N_1 
REMARK    2  A    between atoms: C_3  and  C_2 
REMARK    3  A    between atoms: C_12  and  C_9 
REMARK    4  A    between atoms: C_15  and  C_9 
REMARK    5  A    between atoms: C_20  and  C_15 
REMARK    6  A    between atoms: C_17  and  C_20 
ROOT
ATOM      1  N   UNL d   1      53.275  33.034  53.490  0.00  0.00    -0.254 N 
ATOM      2  C   UNL d   1      53.386  31.765  53.445  0.00  0.00     0.093 A 
ATOM      3  C   UNL d   1      54.019  32.916  53.363  0.00  0.00     0.153 A 
ATOM      4  C   UNL d   1      52.852  32.351  53.547  0.00  0.00     0.272 A 
ATOM      5  S   UNL d   1      54.104  32.116  53.332  0.00  0.00    -0.053 SA
ATOM      6  S   UNL d   1      54.585  33.519  53.281  0.00  0.00    -0.052 SA
ATOM      7  O   UNL d   1      52.057  32.255  53.678  0.00  0.00    -0.266 OA
ENDROOT
BRANCH   2   8
ATOM      8  C   UNL d   1      53.225  30.957  53.455  0.00  0.00     0.070 A 
ATOM      9  C   UNL d   1      52.971  30.627  52.759  0.00  0.00     0.280 A 
ATOM     10  N   UNL d   1      52.836  29.810  52.872  0.00  0.00    -0.208 NA
ATOM     11  O   UNL d   1      52.860  31.032  52.046  0.00  0.00    -0.265 OA
ATOM     12  C   UNL d   1      53.014  29.643  53.657  0.00  0.00     0.085 A 
ATOM     13  C   UNL d   1      53.255  30.342  54.028  0.00  0.00     0.023 A 
ATOM     14  C   UNL d   1      52.988  28.932  54.098  0.00  0.00     0.019 A 
ATOM     15  C   UNL d   1      53.462  30.343  54.792  0.00  0.00     0.002 A 
ATOM     16  C   UNL d   1      53.442  29.673  55.224  0.00  0.00     0.000 A 
ATOM     17  C   UNL d   1      53.200  28.926  54.885  0.00  0.00     0.002 A 
ENDBRANCH   2   8
BRANCH   1  18
ATOM     18  C   UNL d   1      52.974  33.842  53.557  0.00  0.00     0.133 C 
BRANCH  18  19
ATOM     19  C   UNL d   1      52.510  34.123  52.922  0.00  0.00     0.228 C 
ATOM     20  O   UNL d   1      52.833  34.463  52.278  0.00  0.00    -0.643 OA
ATOM     21  O   UNL d   1      51.676  34.027  52.999  0.00  0.00    -0.643 OA
ENDBRANCH  18  19
BRANCH  18  22
ATOM     22  C   UNL d   1      53.137  34.293  54.202  0.00  0.00     0.030 C 
BRANCH  22  23
ATOM     23  C   UNL d   1      52.773  35.032  54.238  0.00  0.00     0.072 C 
BRANCH  23  24
ATOM     24  C   UNL d   1      52.984  35.507  54.920  0.00  0.00     0.211 C 
ATOM     25  O   UNL d   1      53.179  35.158  55.634  0.00  0.00    -0.644 OA
ATOM     26  O   UNL d   1      52.979  36.311  54.815  0.00  0.00    -0.644 OA
ENDBRANCH  23  24
ENDBRANCH  22  23
ENDBRANCH  18  22
ENDBRANCH   1  18
TORSDOF 6
ENDMDL
MODEL 5
REMARK VINA RESULT:      -6.1      2.238      4.271
REMARK  6 active torsions:
REMARK  status: ('A' for Active; 'I' for Inactive)
REMARK    1  A    between atoms: C_9  and  N_1 
REMARK    2  A    between atoms: C_3  and  C_2 
REMARK    3  A    between atoms: C_12  and  C_9 
REMARK    4  A    between atoms: C_15  and  C_9 
REMARK    5  A    between atoms: C_20  and  C_15 
REMARK    6  A    between atoms: C_17  and  C_20 
ROOT
ATOM      1  N   UNL d   1      53.243  31.782  53.646  0.00  0.00    -0.254 N 
ATOM      2  C   UNL d   1      52.699  32.913  53.426  0.00  0.00     0.093 A 
ATOM      3  C   UNL d   1      53.520  32.232  54.196  0.00  0.00     0.153 A 
ATOM      4  C   UNL d   1      52.734  32.164  53.152  0.00  0.00     0.272 A 
ATOM      5  S   UNL d   1      53.184  32.953  54.070  0.00  0.00    -0.053 SA
ATOM      6  S   UNL d   1      54.055  31.986  54.782  0.00  0.00    -0.052 SA
ATOM      7  O   UNL d   1      52.333  31.870  52.510  0.00  0.00    -0.266 OA
ENDROOT
BRANCH   2   8
ATOM      8  C   UNL d   1      52.248  33.525  53.106  0.00  0.00     0.070 A 
ATOM      9  C   UNL d   1      52.654  34.112  52.719  0.00  0.00     0.280 A 
ATOM     10  N   UNL d   1      52.112  34.680  52.433  0.00  0.00    -0.208 NA
ATOM     11  O   UNL d   1      53.475  34.146  52.621  0.00  0.00    -0.265 OA
ATOM     12  C   UNL d   1      51.360  34.429  52.653  0.00  0.00     0.085 A 
ATOM     13  C   UNL d   1      51.431  33.717  53.069  0.00  0.00     0.023 A 
ATOM     14  C   UNL d   1      50.601  34.759  52.529  0.00  0.00     0.019 A 
ATOM     15  C   UNL d   1      50.789  33.348  53.348  0.00  0.00     0.002 A 
ATOM     16  C   UNL d   1      50.059  33.651  53.237  0.00  0.00     0.000 A 
ATOM     17  C   UNL d   1      49.937  34.384  52.814  0.00  0.00     0.002 A 
ENDBRANCH   2   8
BRANCH   1  18
ATOM     18  C   UNL d   1      53.486  30.953  53.607  0.00  0.00     0.133 C 
BRANCH  18  19
ATOM     19  C   UNL d   1      53.964  30.733  52.957  0.00  0.00     0.228 C 
ATOM     20  O   UNL d   1      54.756  30.812  52.966  0.00  0.00    -0.643 OA
ATOM     21  O   UNL d   1      53.559  30.421  52.286  0.00  0.00    -0.643 OA
ENDBRANCH  18  19
BRANCH  18  22
ATOM     22  C   UNL d   1      53.261  30.427  54.170  0.00  0.00     0.030 C 
BRANCH  22  23
ATOM     23  C   UNL d   1      53.292  29.628  53.965  0.00  0.00     0.072 C 
BRANCH  23  24
ATOM     24  C   UNL d   1      53.023  29.088  54.574  0.00  0.00     0.211 C 
ATOM     25  O   UNL d   1      52.265  29.136  54.877  0.00  0.00    -0.644 OA
ATOM     26  O   UNL d   1      53.559  28.535  54.828  0.00  0.00    -0.644 OA
ENDBRANCH  23  24
ENDBRANCH  22  23
ENDBRANCH  18  22
ENDBRANCH   1  18
TORSDOF 6
ENDMDL
MODEL 6
REMARK VINA RESULT:      -5.8      2.438      3.925
REMARK  6 active torsions:
REMARK  status: ('A' for Active; 'I' for Inactive)
REMARK    1  A    between atoms: C_9  and  N_1 
REMARK    2  A    between atoms: C_3  and  C_2 
REMARK    3  A    between atoms: C_12  and  C_9 
REMARK    4  A    between atoms: C_15  and  C_9 
REMARK    5  A    between atoms: C_20  and  C_15 
REMARK    6  A    between atoms: C_17  and  C_20 
ROOT
ATOM      1  N   UNL d   1      51.448  33.655  53.004  0.00  0.00    -0.254 N 
ATOM      2  C   UNL d   1      52.556  33.237  53.476  0.00  0.00     0.093 A 
ATOM      3  C   UNL d   1      51.292  32.949  53.250  0.00  0.00     0.153 A 
ATOM      4  C   UNL d   1      52.215  33.869  53.125  0.00  0.00     0.272 A 
ATOM      5  S   UNL d   1      51.985  32.672  53.552  0.00  0.00    -0.053 SA
ATOM      6  S   UNL d   1      50.547  32.585  53.196  0.00  0.00    -0.052 SA
ATOM      7  O   UNL d   1      52.583  34.568  52.939  0.00  0.00    -0.266 OA
ENDROOT
BRANCH   2   8
ATOM      8  C   UNL d   1      53.343  33.181  53.714  0.00  0.00     0.070 A 
ATOM      9  C   UNL d   1      53.833  32.733  53.248  0.00  0.00     0.280 A 
ATOM     10  N   UNL d   1      54.604  32.740  53.570  0.00  0.00    -0.208 NA
ATOM     11  O   UNL d   1      53.610  32.331  52.560  0.00  0.00    -0.265 OA
ATOM     12  C   UNL d   1      54.578  33.204  54.249  0.00  0.00     0.085 A 
ATOM     13  C   UNL d   1      53.806  33.483  54.348  0.00  0.00     0.023 A 
ATOM     14  C   UNL d   1      55.167  33.418  54.804  0.00  0.00     0.019 A 
ATOM     15  C   UNL d   1      53.620  33.947  54.961  0.00  0.00     0.002 A 
ATOM     16  C   UNL d   1      54.171  34.159  55.499  0.00  0.00     0.000 A 
ATOM     17  C   UNL d   1      54.982  33.896  55.438  0.00  0.00     0.002 A 
ENDBRANCH   2   8
BRANCH   1  18
ATOM     18  C   UNL d   1      50.825  34.130  52.639  0.00  0.00     0.133 C 
BRANCH  18  19
ATOM     19  C   UNL d   1      50.827  34.175  51.805  0.00  0.00     0.228 C 
ATOM     20  O   UNL d   1      51.384  34.577  51.402  0.00  0.00    -0.643 OA
ATOM     21  O   UNL d   1      50.203  33.768  51.409  0.00  0.00    -0.643 OA
ENDBRANCH  18  19
BRANCH  18  22
ATOM     22  C   UNL d   1      50.275  34.507  53.087  0.00  0.00     0.030 C 
BRANCH  22  23
ATOM     23  C   UNL d   1      49.764  35.021  52.693  0.00  0.00     0.072 C 
BRANCH  23  24
ATOM     24  C   UNL d   1      49.211  35.439  53.197  0.00  0.00     0.211 C 
ATOM     25  O   UNL d   1      49.470  35.879  53.835  0.00  0.00    -0.644 OA
ATOM     26  O   UNL d   1      48.426  35.371  53.004  0.00  0.00    -0.644 OA
ENDBRANCH  23  24
ENDBRANCH  22  23
ENDBRANCH  18  22
ENDBRANCH   1  18
TORSDOF 6
ENDMDL
