MODEL 1
REMARK VINA RESULT:      -3.1      0.000      0.000
REMARK  6 active torsions:
REMARK  status: ('A' for Active; 'I' for Inactive)
REMARK       I    between atoms: N_2  and  C_1 
REMARK    1  A    between atoms: C_14  and  C_1 
REMARK    2  A    between atoms: C_6  and  N_2 
REMARK    3  A    between atoms: C_4  and  O_13 
REMARK    4  A    between atoms: O_13  and  C_18 
REMARK    5  A    between atoms: C_19  and  C_14 
REMARK    6  A    between atoms: C_18  and  C_19 
ROOT
ATOM      1  C   UNL d   1      32.780  19.285 -22.838  0.00  0.00     0.078 C 
ENDROOT
BRANCH   1   2
ATOM      2  C   UNL d   1      32.954  19.530 -22.072  0.00  0.00     0.328 C 
ATOM      3  N   UNL d   1      32.842  20.326 -21.850  0.00  0.00    -0.365 NA
ATOM      4  O   UNL d   1      33.240  18.989 -21.519  0.00  0.00    -0.251 OA
BRANCH   3   5
ATOM      5  C   UNL d   1      32.733  21.108 -21.632  0.00  0.00     0.135 A 
ATOM      6  C   UNL d   1      32.204  21.292 -21.010  0.00  0.00     0.033 A 
ATOM      7  C   UNL d   1      32.100  22.086 -20.796  0.00  0.00     0.009 A 
ATOM      8  C   UNL d   1      32.509  22.686 -21.187  0.00  0.00     0.035 A 
ATOM      9  C   UNL d   1      33.030  22.503 -21.800  0.00  0.00     0.009 A 
ATOM     10 BR   UNL d   1      32.392  23.470 -20.959  0.00  0.00    -0.049 Br
ATOM     11  C   UNL d   1      33.142  21.708 -22.023  0.00  0.00     0.033 A 
ENDBRANCH   3   5
ENDBRANCH   1   2
BRANCH   1  12
ATOM     12  C   UNL d   1      32.708  18.490 -23.013  0.00  0.00     0.033 C 
BRANCH  12  13
ATOM     13  C   UNL d   1      32.125  18.220 -23.520  0.00  0.00     0.123 C 
BRANCH  13  14
ATOM     14  O   UNL d   1      32.069  17.426 -23.711  0.00  0.00    -0.305 OA
BRANCH  14  15
ATOM     15  C   UNL d   1      31.438  17.150 -24.161  0.00  0.00     0.100 A 
ATOM     16  C   UNL d   1      31.229  16.343 -24.143  0.00  0.00     0.023 A 
ATOM     17  C   UNL d   1      31.656  15.824 -23.671  0.00  0.00     0.002 C 
ATOM     18  C   UNL d   1      30.596  16.069 -24.595  0.00  0.00     0.002 A 
ATOM     19  C   UNL d   1      30.167  16.591 -25.069  0.00  0.00     0.000 A 
ATOM     20  C   UNL d   1      30.364  17.394 -25.097  0.00  0.00     0.002 A 
ATOM     21  C   UNL d   1      31.007  17.674 -24.637  0.00  0.00     0.025 A 
ENDBRANCH  14  15
ENDBRANCH  13  14
ENDBRANCH  12  13
ENDBRANCH   1  12
TORSDOF 6
ENDMDL
MODEL 2
REMARK VINA RESULT:      -2.9      2.302      5.627
REMARK  6 active torsions:
REMARK  status: ('A' for Active; 'I' for Inactive)
REMARK       I    between atoms: N_2  and  C_1 
REMARK    1  A    between atoms: C_14  and  C_1 
REMARK    2  A    between atoms: C_6  and  N_2 
REMARK    3  A    between atoms: C_4  and  O_13 
REMARK    4  A    between atoms: O_13  and  C_18 
REMARK    5  A    between atoms: C_19  and  C_14 
REMARK    6  A    between atoms: C_18  and  C_19 
ROOT
ATOM      1  C   UNL d   1      32.374  18.371 -22.967  0.00  0.00     0.078 C 
ENDROOT
BRANCH   1   2
ATOM      2  C   UNL d   1      32.481  17.723 -23.463  0.00  0.00     0.328 C 
ATOM      3  N   UNL d   1      31.823  17.294 -23.742  0.00  0.00    -0.365 NA
ATOM      4  O   UNL d   1      33.241  17.496 -23.688  0.00  0.00    -0.251 OA
BRANCH   3   5
ATOM      5  C   UNL d   1      31.177  16.872 -24.016  0.00  0.00     0.135 A 
ATOM      6  C   UNL d   1      30.950  16.166 -23.628  0.00  0.00     0.033 A 
ATOM      7  C   UNL d   1      30.295  15.746 -23.912  0.00  0.00     0.009 A 
ATOM      8  C   UNL d   1      29.873  16.015 -24.568  0.00  0.00     0.035 A 
ATOM      9  C   UNL d   1      30.097  16.711 -24.951  0.00  0.00     0.009 A 
ATOM     10 BR   UNL d   1      29.224  15.582 -24.836  0.00  0.00    -0.049 Br
ATOM     11  C   UNL d   1      30.755  17.141 -24.672  0.00  0.00     0.033 A 
ENDBRANCH   3   5
ENDBRANCH   1   2
BRANCH   1  12
ATOM     12  C   UNL d   1      33.008  18.836 -22.747  0.00  0.00     0.033 C 
BRANCH  12  13
ATOM     13  C   UNL d   1      32.912  19.470 -22.239  0.00  0.00     0.123 C 
BRANCH  13  14
ATOM     14  O   UNL d   1      33.086  20.233 -22.482  0.00  0.00    -0.305 OA
BRANCH  14  15
ATOM     15  C   UNL d   1      33.078  20.853 -21.942  0.00  0.00     0.100 A 
ATOM     16  C   UNL d   1      33.156  21.641 -22.205  0.00  0.00     0.023 A 
ATOM     17  C   UNL d   1      33.241  21.795 -23.006  0.00  0.00     0.002 C 
ATOM     18  C   UNL d   1      33.147  22.261 -21.661  0.00  0.00     0.002 A 
ATOM     19  C   UNL d   1      33.061  22.106 -20.855  0.00  0.00     0.000 A 
ATOM     20  C   UNL d   1      32.983  21.330 -20.581  0.00  0.00     0.002 A 
ATOM     21  C   UNL d   1      32.991  20.698 -21.132  0.00  0.00     0.025 A 
ENDBRANCH  14  15
ENDBRANCH  13  14
ENDBRANCH  12  13
ENDBRANCH   1  12
TORSDOF 6
ENDMDL
MODEL 3
REMARK VINA RESULT:      -1.6      3.602      4.766
REMARK  6 active torsions:
REMARK  status: ('A' for Active; 'I' for Inactive)
REMARK       I    between atoms: N_2  and  C_1 
REMARK    1  A    between atoms: C_14  and  C_1 
REMARK    2  A    between atoms: C_6  and  N_2 
REMARK    3  A    between atoms: C_4  and  O_13 
REMARK    4  A    between atoms: O_13  and  C_18 
REMARK    5  A    between atoms: C_19  and  C_14 
REMARK    6  A    between atoms: C_18  and  C_19 
ROOT
ATOM      1  C   UNL d   1      33.150  22.287 -20.800  0.00  0.00     0.078 C 
ENDROOT
BRANCH   1   2
ATOM      2  C   UNL d   1      32.881  21.877 -20.139  0.00  0.00     0.328 C 
ATOM      3  N   UNL d   1      32.870  22.248 -19.392  0.00  0.00    -0.365 NA
ATOM      4  O   UNL d   1      32.620  21.099 -20.212  0.00  0.00    -0.251 OA
BRANCH   3   5
ATOM      5  C   UNL d   1      32.860  22.610 -18.658  0.00  0.00     0.135 A 
ATOM      6  C   UNL d   1      33.241  22.242 -18.010  0.00  0.00     0.033 A 
ATOM      7  C   UNL d   1      33.225  22.616 -17.271  0.00  0.00     0.009 A 
ATOM      8  C   UNL d   1      32.840  23.340 -17.173  0.00  0.00     0.035 A 
ATOM      9  C   UNL d   1      32.464  23.702 -17.811  0.00  0.00     0.009 A 
ATOM     10 BR   UNL d   1      32.835  23.696 -16.429  0.00  0.00    -0.049 Br
ATOM     11  C   UNL d   1      32.475  23.334 -18.559  0.00  0.00     0.033 A 
ENDBRANCH   3   5
ENDBRANCH   1   2
BRANCH   1  12
ATOM     12  C   UNL d   1      33.241  21.905 -21.517  0.00  0.00     0.033 C 
BRANCH  12  13
ATOM     13  C   UNL d   1      33.133  22.302 -22.224  0.00  0.00     0.123 C 
BRANCH  13  14
ATOM     14  O   UNL d   1      33.158  21.902 -22.938  0.00  0.00    -0.305 OA
BRANCH  14  15
ATOM     15  C   UNL d   1      33.174  22.318 -23.648  0.00  0.00     0.100 A 
ATOM     16  C   UNL d   1      33.215  21.911 -24.374  0.00  0.00     0.023 A 
ATOM     17  C   UNL d   1      33.238  21.090 -24.378  0.00  0.00     0.002 C 
ATOM     18  C   UNL d   1      33.231  22.331 -25.083  0.00  0.00     0.002 A 
ATOM     19  C   UNL d   1      33.208  23.156 -25.079  0.00  0.00     0.000 A 
ATOM     20  C   UNL d   1      33.168  23.572 -24.366  0.00  0.00     0.002 A 
ATOM     21  C   UNL d   1      33.151  23.147 -23.643  0.00  0.00     0.025 A 
ENDBRANCH  14  15
ENDBRANCH  13  14
ENDBRANCH  12  13
ENDBRANCH   1  12
TORSDOF 6
ENDMDL
MODEL 4
REMARK VINA RESULT:      -1.6      2.370      6.073
REMARK  6 active torsions:
REMARK  status: ('A' for Active; 'I' for Inactive)
REMARK       I    between atoms: N_2  and  C_1 
REMARK    1  A    between atoms: C_14  and  C_1 
REMARK    2  A    between atoms: C_6  and  N_2 
REMARK    3  A    between atoms: C_4  and  O_13 
REMARK    4  A    between atoms: O_13  and  C_18 
REMARK    5  A    between atoms: C_19  and  C_14 
REMARK    6  A    between atoms: C_18  and  C_19 
ROOT
ATOM      1  C   UNL d   1      32.850  20.815 -21.818  0.00  0.00     0.078 C 
ENDROOT
BRANCH   1   2
ATOM      2  C   UNL d   1      33.011  20.557 -22.583  0.00  0.00     0.328 C 
ATOM      3  N   UNL d   1      32.942  19.748 -22.777  0.00  0.00    -0.365 NA
ATOM      4  O   UNL d   1      33.241  21.096 -23.162  0.00  0.00    -0.251 OA
BRANCH   3   5
ATOM      5  C   UNL d   1      32.874  18.955 -22.968  0.00  0.00     0.135 A 
ATOM      6  C   UNL d   1      33.142  18.375 -22.426  0.00  0.00     0.033 A 
ATOM      7  C   UNL d   1      33.070  17.575 -22.628  0.00  0.00     0.009 A 
ATOM      8  C   UNL d   1      32.740  17.351 -23.350  0.00  0.00     0.035 A 
ATOM      9  C   UNL d   1      32.477  17.922 -23.884  0.00  0.00     0.009 A 
ATOM     10 BR   UNL d   1      32.677  16.548 -23.533  0.00  0.00    -0.049 Br
ATOM     11  C   UNL d   1      32.545  18.730 -23.690  0.00  0.00     0.033 A 
ENDBRANCH   3   5
ENDBRANCH   1   2
BRANCH   1  12
ATOM     12  C   UNL d   1      32.756  21.610 -21.660  0.00  0.00     0.033 C 
BRANCH  12  13
ATOM     13  C   UNL d   1      32.938  21.920 -20.924  0.00  0.00     0.123 C 
BRANCH  13  14
ATOM     14  O   UNL d   1      32.773  22.701 -20.744  0.00  0.00    -0.305 OA
BRANCH  14  15
ATOM     15  C   UNL d   1      32.695  22.940 -19.961  0.00  0.00     0.100 A 
ATOM     16  C   UNL d   1      32.070  23.443 -19.735  0.00  0.00     0.023 A 
ATOM     17  C   UNL d   1      31.531  23.700 -20.299  0.00  0.00     0.002 C 
ATOM     18  C   UNL d   1      31.994  23.681 -18.949  0.00  0.00     0.002 A 
ATOM     19  C   UNL d   1      32.535  23.423 -18.382  0.00  0.00     0.000 A 
ATOM     20  C   UNL d   1      33.160  22.923 -18.593  0.00  0.00     0.002 A 
ATOM     21  C   UNL d   1      33.239  22.680 -19.392  0.00  0.00     0.025 A 
ENDBRANCH  14  15
ENDBRANCH  13  14
ENDBRANCH  12  13
ENDBRANCH   1  12
TORSDOF 6
ENDMDL
MODEL 5
REMARK VINA RESULT:      -1.3      1.880      2.948
REMARK  6 active torsions:
REMARK  status: ('A' for Active; 'I' for Inactive)
REMARK       I    between atoms: N_2  and  C_1 
REMARK    1  A    between atoms: C_14  and  C_1 
REMARK    2  A    between atoms: C_6  and  N_2 
REMARK    3  A    between atoms: C_4  and  O_13 
REMARK    4  A    between atoms: O_13  and  C_18 
REMARK    5  A    between atoms: C_19  and  C_14 
REMARK    6  A    between atoms: C_18  and  C_19 
ROOT
ATOM      1  C   UNL d   1      31.835  16.683 -23.276  0.00  0.00     0.078 C 
ENDROOT
BRANCH   1   2
ATOM      2  C   UNL d   1      32.589  17.002 -23.357  0.00  0.00     0.328 C 
ATOM      3  N   UNL d   1      32.720  17.813 -23.208  0.00  0.00    -0.365 NA
ATOM      4  O   UNL d   1      33.219  16.523 -23.587  0.00  0.00    -0.251 OA
BRANCH   3   5
ATOM      5  C   UNL d   1      32.849  18.608 -23.062  0.00  0.00     0.135 A 
ATOM      6  C   UNL d   1      32.856  19.149 -23.699  0.00  0.00     0.033 A 
ATOM      7  C   UNL d   1      32.988  19.952 -23.542  0.00  0.00     0.009 A 
ATOM      8  C   UNL d   1      33.111  20.215 -22.770  0.00  0.00     0.035 A 
ATOM      9  C   UNL d   1      33.105  19.681 -22.141  0.00  0.00     0.009 A 
ATOM     10 BR   UNL d   1      33.241  21.018 -22.633  0.00  0.00    -0.049 Br
ATOM     11  C   UNL d   1      32.973  18.871 -22.289  0.00  0.00     0.033 A 
ENDBRANCH   3   5
ENDBRANCH   1   2
BRANCH   1  12
ATOM     12  C   UNL d   1      31.463  16.328 -23.911  0.00  0.00     0.033 C 
BRANCH  12  13
ATOM     13  C   UNL d   1      30.679  16.099 -23.868  0.00  0.00     0.123 C 
BRANCH  13  14
ATOM     14  O   UNL d   1      30.076  16.639 -23.988  0.00  0.00    -0.305 OA
BRANCH  14  15
ATOM     15  C   UNL d   1      29.301  16.450 -23.786  0.00  0.00     0.100 A 
ATOM     16  C   UNL d   1      28.681  16.983 -23.949  0.00  0.00     0.023 A 
ATOM     17  C   UNL d   1      28.847  17.699 -24.313  0.00  0.00     0.002 C 
ATOM     18  C   UNL d   1      27.906  16.790 -23.744  0.00  0.00     0.002 A 
ATOM     19  C   UNL d   1      27.739  16.070 -23.378  0.00  0.00     0.000 A 
ATOM     20  C   UNL d   1      28.344  15.532 -23.211  0.00  0.00     0.002 A 
ATOM     21  C   UNL d   1      29.133  15.726 -23.418  0.00  0.00     0.025 A 
ENDBRANCH  14  15
ENDBRANCH  13  14
ENDBRANCH  12  13
ENDBRANCH   1  12
TORSDOF 6
ENDMDL
