MODEL 1
REMARK VINA RESULT:      -7.7      0.000      0.000
REMARK  3 active torsions:
REMARK  status: ('A' for Active; 'I' for Inactive)
REMARK    1  A    between atoms: C_2  and  N_1 
REMARK    2  A    between atoms: N_6  and  C_5 
REMARK    3  A    between atoms: C_12  and  N_6 
ROOT
ATOM      1  C   UNL d   1     -46.811  13.316  22.748  0.00  0.00     0.128 A 
ATOM      2  C   UNL d   1     -47.299  12.813  22.314  0.00  0.00     0.046 A 
ATOM      3  C   UNL d   1     -48.056  13.061  22.094  0.00  0.00     0.122 A 
ATOM      4  C   UNL d   1     -48.322  13.810  22.309  0.00  0.00     0.101 A 
ATOM      5  C   UNL d   1     -47.078  14.065  22.963  0.00  0.00     0.025 A 
ATOM      6  C   UNL d   1     -47.832  14.309  22.743  0.00  0.00     0.022 A 
ATOM      7  N   UNL d   1     -48.544  12.558  21.660  0.00  0.00    -0.146 N 
ENDROOT
BRANCH   4   8
ATOM      8  N   UNL d   1     -49.076  14.054  22.088  0.00  0.00    -0.244 NA
BRANCH   8   9
ATOM      9  C   UNL d   1     -49.544  14.473  22.623  0.00  0.00     0.081 A 
ATOM     10  C   UNL d   1     -50.073  14.071  23.113  0.00  0.00     0.019 A 
ATOM     11  C   UNL d   1     -50.540  14.490  23.648  0.00  0.00     0.002 A 
ATOM     12  C   UNL d   1     -50.479  15.312  23.693  0.00  0.00     0.000 A 
ATOM     13  C   UNL d   1     -49.950  15.713  23.204  0.00  0.00     0.002 A 
ATOM     14  C   UNL d   1     -49.483  15.294  22.669  0.00  0.00     0.019 A 
ENDBRANCH   8   9
ENDBRANCH   4   8
BRANCH   1  15
ATOM     15  N   UNL d   1     -46.056  13.068  22.968  0.00  0.00    -0.114 N 
ATOM     16  O   UNL d   1     -45.400  13.302  22.524  0.00  0.00    -0.532 OA
ATOM     17  O   UNL d   1     -45.955  12.586  23.630  0.00  0.00    -0.532 OA
ENDBRANCH   1  15
TORSDOF 3
ENDMDL
MODEL 2
REMARK VINA RESULT:      -7.6      1.290      1.788
REMARK  3 active torsions:
REMARK  status: ('A' for Active; 'I' for Inactive)
REMARK    1  A    between atoms: C_2  and  N_1 
REMARK    2  A    between atoms: N_6  and  C_5 
REMARK    3  A    between atoms: C_12  and  N_6 
ROOT
ATOM      1  C   UNL d   1     -46.438  13.093  22.877  0.00  0.00     0.128 A 
ATOM      2  C   UNL d   1     -46.601  13.892  22.756  0.00  0.00     0.046 A 
ATOM      3  C   UNL d   1     -47.380  14.164  22.793  0.00  0.00     0.122 A 
ATOM      4  C   UNL d   1     -47.993  13.637  22.952  0.00  0.00     0.101 A 
ATOM      5  C   UNL d   1     -47.051  12.566  23.036  0.00  0.00     0.025 A 
ATOM      6  C   UNL d   1     -47.825  12.840  23.072  0.00  0.00     0.022 A 
ATOM      7  N   UNL d   1     -47.543  14.963  22.672  0.00  0.00    -0.146 N 
ENDROOT
BRANCH   4   8
ATOM      8  N   UNL d   1     -48.768  13.911  22.988  0.00  0.00    -0.244 NA
BRANCH   8   9
ATOM      9  C   UNL d   1     -49.383  13.437  22.711  0.00  0.00     0.081 A 
ATOM     10  C   UNL d   1     -49.826  12.984  23.240  0.00  0.00     0.019 A 
ATOM     11  C   UNL d   1     -50.441  12.510  22.963  0.00  0.00     0.002 A 
ATOM     12  C   UNL d   1     -50.614  12.489  22.156  0.00  0.00     0.000 A 
ATOM     13  C   UNL d   1     -50.171  12.941  21.628  0.00  0.00     0.002 A 
ATOM     14  C   UNL d   1     -49.556  13.415  21.905  0.00  0.00     0.019 A 
ENDBRANCH   8   9
ENDBRANCH   4   8
BRANCH   1  15
ATOM     15  N   UNL d   1     -45.659  12.822  22.840  0.00  0.00    -0.114 N 
ATOM     16  O   UNL d   1     -45.420  12.189  23.313  0.00  0.00    -0.532 OA
ATOM     17  O   UNL d   1     -45.121  13.182  22.330  0.00  0.00    -0.532 OA
ENDBRANCH   1  15
TORSDOF 3
ENDMDL
MODEL 3
REMARK VINA RESULT:      -7.2      2.206      3.620
REMARK  3 active torsions:
REMARK  status: ('A' for Active; 'I' for Inactive)
REMARK    1  A    between atoms: C_2  and  N_1 
REMARK    2  A    between atoms: N_6  and  C_5 
REMARK    3  A    between atoms: C_12  and  N_6 
ROOT
ATOM      1  C   UNL d   1     -50.067  14.591  22.626  0.00  0.00     0.128 A 
ATOM      2  C   UNL d   1     -50.185  13.982  22.082  0.00  0.00     0.046 A 
ATOM      3  C   UNL d   1     -49.547  13.519  21.836  0.00  0.00     0.122 A 
ATOM      4  C   UNL d   1     -48.793  13.664  22.135  0.00  0.00     0.101 A 
ATOM      5  C   UNL d   1     -49.313  14.736  22.925  0.00  0.00     0.025 A 
ATOM      6  C   UNL d   1     -48.680  14.273  22.678  0.00  0.00     0.022 A 
ATOM      7  N   UNL d   1     -49.666  12.911  21.292  0.00  0.00    -0.146 N 
ENDROOT
BRANCH   4   8
ATOM      8  N   UNL d   1     -48.160  13.201  21.888  0.00  0.00    -0.244 NA
BRANCH   8   9
ATOM      9  C   UNL d   1     -47.600  12.947  22.438  0.00  0.00     0.081 A 
ATOM     10  C   UNL d   1     -46.887  13.356  22.520  0.00  0.00     0.019 A 
ATOM     11  C   UNL d   1     -46.328  13.102  23.069  0.00  0.00     0.002 A 
ATOM     12  C   UNL d   1     -46.480  12.439  23.538  0.00  0.00     0.000 A 
ATOM     13  C   UNL d   1     -47.192  12.031  23.455  0.00  0.00     0.002 A 
ATOM     14  C   UNL d   1     -47.751  12.285  22.906  0.00  0.00     0.019 A 
ENDBRANCH   8   9
ENDBRANCH   4   8
BRANCH   1  15
ATOM     15  N   UNL d   1     -50.704  15.053  22.871  0.00  0.00    -0.114 N 
ATOM     16  O   UNL d   1     -51.064  15.573  22.340  0.00  0.00    -0.532 OA
ATOM     17  O   UNL d   1     -50.982  14.996  23.646  0.00  0.00    -0.532 OA
ENDBRANCH   1  15
TORSDOF 3
ENDMDL
MODEL 4
REMARK VINA RESULT:      -6.9      2.226      3.668
REMARK  3 active torsions:
REMARK  status: ('A' for Active; 'I' for Inactive)
REMARK    1  A    between atoms: C_2  and  N_1 
REMARK    2  A    between atoms: N_6  and  C_5 
REMARK    3  A    between atoms: C_12  and  N_6 
ROOT
ATOM      1  C   UNL d   1     -49.901  13.746  21.830  0.00  0.00     0.128 A 
ATOM      2  C   UNL d   1     -49.880  14.341  22.400  0.00  0.00     0.046 A 
ATOM      3  C   UNL d   1     -49.164  14.546  22.757  0.00  0.00     0.122 A 
ATOM      4  C   UNL d   1     -48.471  14.155  22.544  0.00  0.00     0.101 A 
ATOM      5  C   UNL d   1     -49.207  13.355  21.616  0.00  0.00     0.025 A 
ATOM      6  C   UNL d   1     -48.496  13.561  21.974  0.00  0.00     0.022 A 
ATOM      7  N   UNL d   1     -49.144  15.141  23.327  0.00  0.00    -0.146 N 
ENDROOT
BRANCH   4   8
ATOM      8  N   UNL d   1     -47.760  14.361  22.902  0.00  0.00    -0.244 NA
BRANCH   8   9
ATOM      9  C   UNL d   1     -47.132  13.826  22.903  0.00  0.00     0.081 A 
ATOM     10  C   UNL d   1     -47.134  13.188  23.427  0.00  0.00     0.019 A 
ATOM     11  C   UNL d   1     -46.507  12.653  23.428  0.00  0.00     0.002 A 
ATOM     12  C   UNL d   1     -45.876  12.756  22.905  0.00  0.00     0.000 A 
ATOM     13  C   UNL d   1     -45.874  13.394  22.382  0.00  0.00     0.002 A 
ATOM     14  C   UNL d   1     -46.502  13.928  22.380  0.00  0.00     0.019 A 
ENDBRANCH   8   9
ENDBRANCH   4   8
BRANCH   1  15
ATOM     15  N   UNL d   1     -50.616  13.542  21.473  0.00  0.00    -0.114 N 
ATOM     16  O   UNL d   1     -51.064  14.119  21.089  0.00  0.00    -0.532 OA
ATOM     17  O   UNL d   1     -50.883  12.762  21.500  0.00  0.00    -0.532 OA
ENDBRANCH   1  15
TORSDOF 3
ENDMDL
