MODEL 1
REMARK VINA RESULT:      -6.1      0.000      0.000
REMARK  4 active torsions:
REMARK  status: ('A' for Active; 'I' for Inactive)
REMARK    1  A    between atoms: C_2  and  C_1 
REMARK    2  A    between atoms: C_3  and  C_2 
REMARK    3  A    between atoms: C_5  and  C_3 
REMARK    4  A    between atoms: C_13  and  C_5 
ROOT
ATOM      1  C   UNL d   1     -41.746-122.636 -51.312  0.00  0.00     0.042 C 
ENDROOT
BRANCH   1   2
ATOM      2  C   UNL d   1     -41.581-122.321 -50.567  0.00  0.00     0.199 C 
ATOM      3  O   UNL d   1     -41.126-121.649 -50.494  0.00  0.00    -0.286 OA
BRANCH   2   4
ATOM      4  C   UNL d   1     -41.879-122.693 -49.903  0.00  0.00     0.078 A 
ATOM      5  C   UNL d   1     -42.668-122.680 -49.712  0.00  0.00     0.199 A 
ATOM      6  C   UNL d   1     -42.952-123.049 -49.055  0.00  0.00     0.042 A 
ATOM      7  O   UNL d   1     -43.220-122.246 -50.246  0.00  0.00    -0.286 OA
ATOM      8  C   UNL d   1     -42.466-123.455 -48.545  0.00  0.00     0.003 A 
ATOM      9  C   UNL d   1     -41.683-123.488 -48.704  0.00  0.00     0.000 A 
ATOM     10  C   UNL d   1     -41.376-123.112 -49.378  0.00  0.00     0.006 A 
ATOM     11  C   UNL d   1     -41.166-123.817 -48.323  0.00  0.00     0.000 C 
ENDBRANCH   2   4
ENDBRANCH   1   2
BRANCH   1  12
ATOM     12  C   UNL d   1     -41.176-122.387 -51.867  0.00  0.00     0.003 C 
BRANCH  12  13
ATOM     13  C   UNL d   1     -41.339-122.535 -52.739  0.00  0.00     0.002 A 
ATOM     14  C   UNL d   1     -41.648-121.983 -53.220  0.00  0.00     0.027 A 
ATOM     15  C   UNL d   1     -41.791-122.138 -54.017  0.00  0.00     0.123 A 
ATOM     16  O   UNL d   1     -42.124-121.544 -54.538  0.00  0.00    -0.301 OA
ATOM     17  C   UNL d   1     -41.613-122.904 -54.370  0.00  0.00     0.123 A 
ATOM     18  C   UNL d   1     -42.273-121.678 -55.331  0.00  0.00     0.149 A 
ATOM     19  C   UNL d   1     -42.087-122.469 -55.686  0.00  0.00     0.149 A 
ATOM     20  O   UNL d   1     -41.768-123.047 -55.200  0.00  0.00    -0.301 OA
ATOM     21  C   UNL d   1     -41.286-123.498 -53.873  0.00  0.00     0.027 A 
ATOM     22  C   UNL d   1     -41.148-123.334 -53.081  0.00  0.00     0.002 A 
ENDBRANCH  12  13
ENDBRANCH   1  12
TORSDOF 4
ENDMDL
MODEL 2
REMARK VINA RESULT:      -4.5      1.017      4.923
REMARK  4 active torsions:
REMARK  status: ('A' for Active; 'I' for Inactive)
REMARK    1  A    between atoms: C_2  and  C_1 
REMARK    2  A    between atoms: C_3  and  C_2 
REMARK    3  A    between atoms: C_5  and  C_3 
REMARK    4  A    between atoms: C_13  and  C_5 
ROOT
ATOM      1  C   UNL d   1     -41.863-122.439 -52.277  0.00  0.00     0.042 C 
ENDROOT
BRANCH   1   2
ATOM      2  C   UNL d   1     -41.575-122.016 -52.925  0.00  0.00     0.199 C 
ATOM      3  O   UNL d   1     -41.148-121.331 -52.815  0.00  0.00    -0.286 OA
BRANCH   2   4
ATOM      4  C   UNL d   1     -41.722-122.294 -53.680  0.00  0.00     0.078 A 
ATOM      5  C   UNL d   1     -41.519-123.044 -53.917  0.00  0.00     0.199 A 
ATOM      6  C   UNL d   1     -41.668-123.308 -54.663  0.00  0.00     0.042 A 
ATOM      7  O   UNL d   1     -41.123-123.574 -53.333  0.00  0.00    -0.286 OA
ATOM      8  C   UNL d   1     -42.031-122.842 -55.220  0.00  0.00     0.003 A 
ATOM      9  C   UNL d   1     -42.245-122.098 -55.020  0.00  0.00     0.000 A 
ATOM     10  C   UNL d   1     -42.097-121.811 -54.254  0.00  0.00     0.006 A 
ATOM     11  C   UNL d   1     -42.570-121.602 -55.432  0.00  0.00     0.000 C 
ENDBRANCH   2   4
ENDBRANCH   1   2
BRANCH   1  12
ATOM     12  C   UNL d   1     -41.781-121.992 -51.578  0.00  0.00     0.003 C 
BRANCH  12  13
ATOM     13  C   UNL d   1     -41.860-122.419 -50.791  0.00  0.00     0.002 A 
ATOM     14  C   UNL d   1     -42.562-122.554 -50.441  0.00  0.00     0.027 A 
ATOM     15  C   UNL d   1     -42.613-122.947 -49.718  0.00  0.00     0.123 A 
ATOM     16  O   UNL d   1     -43.368-123.094 -49.338  0.00  0.00    -0.301 OA
ATOM     17  C   UNL d   1     -41.912-123.231 -49.304  0.00  0.00     0.123 A 
ATOM     18  C   UNL d   1     -43.439-123.482 -48.622  0.00  0.00     0.149 A 
ATOM     19  C   UNL d   1     -42.714-123.771 -48.203  0.00  0.00     0.149 A 
ATOM     20  O   UNL d   1     -41.985-123.638 -48.554  0.00  0.00    -0.301 OA
ATOM     21  C   UNL d   1     -41.164-123.096 -49.662  0.00  0.00     0.027 A 
ATOM     22  C   UNL d   1     -41.123-122.704 -50.382  0.00  0.00     0.002 A 
ENDBRANCH  12  13
ENDBRANCH   1  12
TORSDOF 4
ENDMDL
