MODEL 1
REMARK VINA RESULT:      -4.7      0.000      0.000
REMARK  2 active torsions:
REMARK  status: ('A' for Active; 'I' for Inactive)
REMARK    1  A    between atoms: C_11  and  C_1 
REMARK    2  A    between atoms: C_13  and  C_11 
ROOT
ATOM      1  C   UNL d   1      24.332  12.682  -1.514  0.00  0.00     0.058 A 
ATOM      2  C   UNL d   1      24.384  13.689  -0.609  0.00  0.00    -0.008 A 
ATOM      3  C   UNL d   1      23.986  13.535  -0.378  0.00  0.00    -0.008 A 
ATOM      4  C   UNL d   1      23.288  12.522  -0.675  0.00  0.00     0.045 A 
ATOM      5  C   UNL d   1      24.329  13.239  -0.984  0.00  0.00    -0.019 A 
ATOM      6  C   UNL d   1      24.768  13.391  -1.257  0.00  0.00    -0.019 A 
ATOM      7  C   UNL d   1      23.671  12.229  -1.316  0.00  0.00     0.021 A 
ATOM      8  C   UNL d   1      24.413  14.307  -0.051  0.00  0.00    -0.001 A 
ATOM      9  C   UNL d   1      23.355  13.106  -0.186  0.00  0.00    -0.022 A 
ATOM     10  C   UNL d   1      23.708  13.226  -0.406  0.00  0.00    -0.022 A 
ENDROOT
BRANCH   1  11
ATOM     11  C   UNL d   1      24.460  12.153  -2.136  0.00  0.00     0.004 C 
BRANCH  11  12
ATOM     12  C   UNL d   1      24.766  12.437  -2.847  0.00  0.00     0.118 C 
ATOM     13  N   UNL d   1      24.766  11.950  -3.519  0.00  0.00    -0.147 N 
ENDBRANCH  11  12
ENDBRANCH   1  11
TORSDOF 2
ENDMDL
