MODEL 1
REMARK VINA RESULT:      55.8      0.000      0.000
REMARK  3 active torsions:
REMARK  status: ('A' for Active; 'I' for Inactive)
REMARK    1  A    between atoms: N_4  and  C_1 
REMARK       I    between atoms: C_7  and  N_4 
REMARK    2  A    between atoms: C_10  and  C_7 
REMARK    3  A    between atoms: O_16  and  C_15 
ROOT
ATOM      1  N   UNL d   1      58.898  49.708  52.857  0.00  0.00    -0.183 NA
ATOM      2  C   UNL d   1      59.701  49.513  52.800  0.00  0.00     0.281 C 
ATOM      3  O   UNL d   1      60.129  49.315  53.490  0.00  0.00    -0.265 OA
ENDROOT
BRANCH   1   4
ATOM      4  C   UNL d   1      58.516  49.707  53.596  0.00  0.00     0.197 A 
ATOM      5  N   UNL d   1      58.895  49.708  54.337  0.00  0.00    -0.221 NA
ATOM      6  C   UNL d   1      58.308  49.706  54.924  0.00  0.00     0.092 A 
ATOM      7  C   UNL d   1      58.355  49.707  55.747  0.00  0.00     0.039 A 
ATOM      8  C   UNL d   1      57.565  49.704  54.547  0.00  0.00     0.068 A 
ATOM      9  C   UNL d   1      57.652  49.705  56.200  0.00  0.00     0.082 A 
ATOM     10  N   UNL d   1      56.921  49.703  55.824  0.00  0.00    -0.301 N 
ATOM     11  C   UNL d   1      56.880  49.703  55.000  0.00  0.00     0.088 A 
ATOM     12  C   UNL d   1      56.222  49.701  56.280  0.00  0.00     0.100 C 
ATOM     13  S   UNL d   1      57.701  49.705  53.729  0.00  0.00    -0.045 SA
ENDBRANCH   1   4
BRANCH   2  14
ATOM     14  C   UNL d   1      60.080  49.514  52.066  0.00  0.00     0.060 A 
ATOM     15  C   UNL d   1      59.659  49.325  51.386  0.00  0.00     0.029 A 
ATOM     16  C   UNL d   1      60.037  49.326  50.660  0.00  0.00     0.094 A 
ATOM     17  C   UNL d   1      60.837  49.518  50.610  0.00  0.00     0.024 A 
ATOM     18  C   UNL d   1      61.252  49.707  51.297  0.00  0.00     0.002 A 
ATOM     19  C   UNL d   1      60.874  49.705  52.023  0.00  0.00     0.005 A 
BRANCH  16  20
ATOM     20  O   UNL d   1      59.613  49.133  49.958  0.00  0.00    -0.328 OA
ATOM     21  C   UNL d   1      59.469  49.708  49.382  0.00  0.00     0.181 C 
ENDBRANCH  16  20
ENDBRANCH   2  14
TORSDOF 3
ENDMDL
