MODEL 1
REMARK VINA RESULT:      -5.5      0.000      0.000
REMARK  5 active torsions:
REMARK  status: ('A' for Active; 'I' for Inactive)
REMARK    1  A    between atoms: N_2  and  C_7 
REMARK    2  A    between atoms: N_11  and  C_3 
REMARK    3  A    between atoms: C_9  and  C_4 
REMARK    4  A    between atoms: C_18  and  N_11 
REMARK    5  A    between atoms: C_16  and  C_18 
ROOT
ATOM      1  N   UNL d   1     -41.654-122.616 -51.769  0.00  0.00    -0.222 NA
ATOM      2  C   UNL d   1     -41.437-123.080 -51.125  0.00  0.00     0.172 A 
ATOM      3  C   UNL d   1     -41.468-123.038 -52.463  0.00  0.00     0.090 A 
ATOM      4  S   UNL d   1     -41.123-123.775 -51.409  0.00  0.00    -0.048 SA
ATOM      5  C   UNL d   1     -41.141-123.750 -52.227  0.00  0.00     0.057 A 
ENDROOT
BRANCH   3   6
ATOM      6  C   UNL d   1     -41.606-122.749 -53.236  0.00  0.00     0.018 A 
ATOM      7  C   UNL d   1     -42.113-122.106 -53.340  0.00  0.00     0.003 A 
ATOM      8  C   UNL d   1     -42.250-121.822 -54.102  0.00  0.00     0.024 A 
ATOM      9  C   UNL d   1     -41.876-122.187 -54.740  0.00  0.00     0.127 A 
ATOM     10  C   UNL d   1     -41.374-122.822 -54.645  0.00  0.00     0.024 A 
ATOM     11  C   UNL d   1     -41.236-123.111 -53.872  0.00  0.00     0.003 A 
BRANCH   9  12
ATOM     12  N   UNL d   1     -42.011-121.905 -55.497  0.00  0.00    -0.114 N 
ATOM     13  O   UNL d   1     -42.777-121.908 -55.815  0.00  0.00    -0.532 OA
ATOM     14  O   UNL d   1     -41.396-121.615 -55.953  0.00  0.00    -0.532 OA
ENDBRANCH   9  12
ENDBRANCH   3   6
BRANCH   2  15
ATOM     15  N   UNL d   1     -41.514-122.896 -50.331  0.00  0.00    -0.332 N 
ATOM     16  H   UNL d   1     -40.894-122.507 -49.935  0.00  0.00     0.168 HD
BRANCH  15  17
ATOM     17  C   UNL d   1     -42.209-123.095 -49.917  0.00  0.00     0.074 C 
BRANCH  17  18
ATOM     18  C   UNL d   1     -42.248-123.020 -49.112  0.00  0.00     0.018 C 
ATOM     19  C   UNL d   1     -42.993-123.028 -48.709  0.00  0.00     0.002 C 
ENDBRANCH  17  18
ENDBRANCH  15  17
ENDBRANCH   2  15
TORSDOF 5
ENDMDL
MODEL 2
REMARK VINA RESULT:      -5.3      2.852      4.769
REMARK  5 active torsions:
REMARK  status: ('A' for Active; 'I' for Inactive)
REMARK    1  A    between atoms: N_2  and  C_7 
REMARK    2  A    between atoms: N_11  and  C_3 
REMARK    3  A    between atoms: C_9  and  C_4 
REMARK    4  A    between atoms: C_18  and  N_11 
REMARK    5  A    between atoms: C_16  and  C_18 
ROOT
ATOM      1  N   UNL d   1     -41.808-122.211 -52.037  0.00  0.00    -0.222 NA
ATOM      2  C   UNL d   1     -41.537-122.346 -52.802  0.00  0.00     0.172 A 
ATOM      3  C   UNL d   1     -41.554-122.845 -51.560  0.00  0.00     0.090 A 
ATOM      4  S   UNL d   1     -41.123-123.047 -52.803  0.00  0.00    -0.048 SA
ATOM      5  C   UNL d   1     -41.133-123.353 -52.044  0.00  0.00     0.057 A 
ENDROOT
BRANCH   3   6
ATOM      6  C   UNL d   1     -41.721-122.910 -50.742  0.00  0.00     0.018 A 
ATOM      7  C   UNL d   1     -42.410-122.567 -50.445  0.00  0.00     0.003 A 
ATOM      8  C   UNL d   1     -42.574-122.631 -49.639  0.00  0.00     0.024 A 
ATOM      9  C   UNL d   1     -42.045-123.036 -49.151  0.00  0.00     0.127 A 
ATOM     10  C   UNL d   1     -41.363-123.376 -49.439  0.00  0.00     0.024 A 
ATOM     11  C   UNL d   1     -41.196-123.312 -50.256  0.00  0.00     0.003 A 
BRANCH   9  12
ATOM     12  N   UNL d   1     -42.208-123.099 -48.351  0.00  0.00    -0.114 N 
ATOM     13  O   UNL d   1     -42.900-123.475 -48.093  0.00  0.00    -0.532 OA
ATOM     14  O   UNL d   1     -41.693-122.795 -47.793  0.00  0.00    -0.532 OA
ENDBRANCH   9  12
ENDBRANCH   3   6
BRANCH   2  15
ATOM     15  N   UNL d   1     -41.651-121.873 -53.461  0.00  0.00    -0.332 N 
ATOM     16  H   UNL d   1     -41.445-121.068 -53.431  0.00  0.00     0.168 HD
BRANCH  15  17
ATOM     17  C   UNL d   1     -41.972-122.193 -54.160  0.00  0.00     0.074 C 
BRANCH  17  18
ATOM     18  C   UNL d   1     -42.144-121.719 -54.793  0.00  0.00     0.018 C 
ATOM     19  C   UNL d   1     -42.398-122.050 -55.529  0.00  0.00     0.002 C 
ENDBRANCH  17  18
ENDBRANCH  15  17
ENDBRANCH   2  15
TORSDOF 5
ENDMDL
