MODEL 1
REMARK VINA RESULT:      77.3      0.000      0.000
REMARK  3 active torsions:
REMARK  status: ('A' for Active; 'I' for Inactive)
REMARK    1  A    between atoms: N_5  and  C_1 
REMARK    2  A    between atoms: C_9  and  C_2 
REMARK       I    between atoms: C_8  and  N_5 
REMARK    3  A    between atoms: C_13  and  C_8 
ROOT
ATOM      1  C   UNL d   1      58.701  49.613  53.010  0.00  0.00     0.156 A 
ATOM      2  C   UNL d   1      58.537  49.567  52.200  0.00  0.00     0.091 A 
ATOM      3  N   UNL d   1      59.487  49.646  53.271  0.00  0.00    -0.289 N 
ATOM      4  C   UNL d   1      59.160  49.555  51.653  0.00  0.00     0.201 A 
ATOM      5  C   UNL d   1      59.942  49.588  51.916  0.00  0.00     0.055 A 
ATOM      6  C   UNL d   1      60.105  49.633  52.725  0.00  0.00     0.069 A 
ATOM      7  O   UNL d   1      58.997  49.510  50.844  0.00  0.00    -0.286 OA
ATOM      8  C   UNL d   1      59.650  49.691  54.080  0.00  0.00     0.101 C 
ATOM      9  C   UNL d   1      60.560  49.576  51.369  0.00  0.00     0.005 A 
ATOM     10  C   UNL d   1      60.886  49.666  52.987  0.00  0.00     0.018 A 
ATOM     11  C   UNL d   1      61.351  49.610  51.638  0.00  0.00     0.000 A 
ATOM     12  C   UNL d   1      61.512  49.654  52.440  0.00  0.00     0.002 A 
ENDROOT
BRANCH   1  13
ATOM     13  N   UNL d   1      58.077  49.625  53.570  0.00  0.00    -0.190 NA
ATOM     14  C   UNL d   1      58.216  49.605  54.385  0.00  0.00     0.280 C 
ATOM     15  O   UNL d   1      58.997  49.570  54.649  0.00  0.00    -0.265 OA
BRANCH  14  16
ATOM     16  C   UNL d   1      57.598  49.617  54.931  0.00  0.00     0.058 A 
ATOM     17  C   UNL d   1      56.817  49.568  54.664  0.00  0.00     0.005 A 
ATOM     18  C   UNL d   1      56.199  49.581  55.209  0.00  0.00     0.000 A 
ATOM     19  C   UNL d   1      56.363  49.643  56.015  0.00  0.00     0.000 A 
ATOM     20  C   UNL d   1      57.147  49.691  56.275  0.00  0.00     0.000 A 
ATOM     21  C   UNL d   1      57.765  49.678  55.729  0.00  0.00     0.005 A 
ENDBRANCH  14  16
ENDBRANCH   1  13
BRANCH   2  22
ATOM     22  C   UNL d   1      57.756  49.534  51.938  0.00  0.00     0.087 A 
ATOM     23  N   UNL d   1      57.141  49.707  52.458  0.00  0.00    -0.244 NA
ATOM     24  C   UNL d   1      56.350  49.674  52.193  0.00  0.00     0.099 A 
ATOM     25  C   UNL d   1      56.192  49.465  51.400  0.00  0.00     0.021 A 
ATOM     26  C   UNL d   1      56.810  49.295  50.887  0.00  0.00     0.003 A 
ATOM     27  C   UNL d   1      57.591  49.329  51.154  0.00  0.00     0.019 A 
ENDBRANCH   2  22
TORSDOF 3
ENDMDL
