MODEL 1
REMARK VINA RESULT:      30.1      0.000      0.000
REMARK  7 active torsions:
REMARK  status: ('A' for Active; 'I' for Inactive)
REMARK    1  A    between atoms: C_3  and  S_1 
REMARK    2  A    between atoms: N_4  and  S_1 
REMARK    3  A    between atoms: C_6  and  C_2 
REMARK       I    between atoms: N_13  and  C_6 
REMARK    4  A    between atoms: C_17  and  N_13 
REMARK    5  A    between atoms: C_18  and  C_17 
REMARK    6  A    between atoms: C_20  and  C_18 
REMARK    7  A    between atoms: C_19  and  C_20 
ROOT
ATOM      1  C   UNL d   1      46.395 -19.029  43.438  0.00  0.00     0.086 A 
ATOM      2  C   UNL d   1      46.106 -17.912  44.289  0.00  0.00     0.104 A 
ATOM      3  C   UNL d   1      46.231 -18.222  43.535  0.00  0.00     0.020 A 
ATOM      4  C   UNL d   1      46.433 -19.523  44.096  0.00  0.00     0.145 A 
ATOM      5  C   UNL d   1      46.144 -18.409  44.953  0.00  0.00     0.015 A 
ATOM      6  C   UNL d   1      46.306 -19.207  44.858  0.00  0.00     0.030 A 
ATOM      7  F   UNL d   1      46.594 -20.322  44.011  0.00  0.00    -0.204 F 
ENDROOT
BRANCH   2   8
ATOM      8  S   UNL d   1      45.941 -17.101  44.386  0.00  0.00     0.271 S 
ATOM      9  O   UNL d   1      45.287 -17.187  43.882  0.00  0.00    -0.200 OA
ATOM     10  O   UNL d   1      46.593 -17.028  44.885  0.00  0.00    -0.200 OA
BRANCH   8  11
ATOM     11  N   UNL d   1      45.770 -16.302  44.475  0.00  0.00    -0.229 N 
ATOM     12  C   UNL d   1      46.384 -15.763  44.578  0.00  0.00     0.092 A 
ATOM     13  C   UNL d   1      46.209 -14.963  44.667  0.00  0.00     0.020 A 
ATOM     14  C   UNL d   1      45.432 -14.702  44.655  0.00  0.00     0.003 A 
ATOM     15  C   UNL d   1      44.819 -15.246  44.551  0.00  0.00     0.020 A 
ATOM     16  C   UNL d   1      44.990 -16.050  44.461  0.00  0.00     0.092 A 
ENDBRANCH   8  11
ENDBRANCH   2   8
BRANCH   1  17
ATOM     17  C   UNL d   1      46.520 -19.336  42.680  0.00  0.00     0.281 C 
ATOM     18  O   UNL d   1      46.646 -20.149  42.588  0.00  0.00    -0.265 OA
ATOM     19  N   UNL d   1      46.519 -18.841  42.023  0.00  0.00    -0.206 NA
BRANCH  19  20
ATOM     20  C   UNL d   1      46.644 -19.145  41.265  0.00  0.00     0.102 C 
BRANCH  20  21
ATOM     21  C   UNL d   1      46.593 -18.657  40.607  0.00  0.00     0.021 C 
BRANCH  21  22
ATOM     22  C   UNL d   1      45.928 -18.187  40.500  0.00  0.00     0.002 C 
BRANCH  22  23
ATOM     23  C   UNL d   1      45.911 -17.625  39.893  0.00  0.00     0.000 C 
ATOM     24  C   UNL d   1      45.488 -17.773  39.204  0.00  0.00     0.000 C 
ENDBRANCH  22  23
ENDBRANCH  21  22
ENDBRANCH  20  21
ENDBRANCH  19  20
ENDBRANCH   1  17
TORSDOF 7
ENDMDL
MODEL 2
REMARK VINA RESULT:      30.2      1.110      4.200
REMARK  7 active torsions:
REMARK  status: ('A' for Active; 'I' for Inactive)
REMARK    1  A    between atoms: C_3  and  S_1 
REMARK    2  A    between atoms: N_4  and  S_1 
REMARK    3  A    between atoms: C_6  and  C_2 
REMARK       I    between atoms: N_13  and  C_6 
REMARK    4  A    between atoms: C_17  and  N_13 
REMARK    5  A    between atoms: C_18  and  C_17 
REMARK    6  A    between atoms: C_20  and  C_18 
REMARK    7  A    between atoms: C_19  and  C_20 
ROOT
ATOM      1  C   UNL d   1      46.272 -18.402  43.796  0.00  0.00     0.086 A 
ATOM      2  C   UNL d   1      46.328 -18.992  42.491  0.00  0.00     0.104 A 
ATOM      3  C   UNL d   1      46.232 -18.329  42.970  0.00  0.00     0.020 A 
ATOM      4  C   UNL d   1      46.407 -19.139  44.137  0.00  0.00     0.145 A 
ATOM      5  C   UNL d   1      46.465 -19.736  42.834  0.00  0.00     0.015 A 
ATOM      6  C   UNL d   1      46.504 -19.809  43.650  0.00  0.00     0.030 A 
ATOM      7  F   UNL d   1      46.448 -19.221  44.952  0.00  0.00    -0.204 F 
ENDROOT
BRANCH   2   8
ATOM      8  S   UNL d   1      46.288 -18.919  41.662  0.00  0.00     0.271 S 
ATOM      9  O   UNL d   1      46.372 -18.097  41.744  0.00  0.00    -0.200 OA
ATOM     10  O   UNL d   1      46.206 -19.737  41.593  0.00  0.00    -0.200 OA
BRANCH   8  11
ATOM     11  N   UNL d   1      46.250 -18.836  40.845  0.00  0.00    -0.229 N 
ATOM     12  C   UNL d   1      45.814 -18.219  40.517  0.00  0.00     0.092 A 
ATOM     13  C   UNL d   1      45.779 -18.140  39.698  0.00  0.00     0.020 A 
ATOM     14  C   UNL d   1      46.172 -18.668  39.210  0.00  0.00     0.003 A 
ATOM     15  C   UNL d   1      46.608 -19.286  39.542  0.00  0.00     0.020 A 
ATOM     16  C   UNL d   1      46.647 -19.369  40.364  0.00  0.00     0.092 A 
ENDBRANCH   8  11
ENDBRANCH   2   8
BRANCH   1  17
ATOM     17  C   UNL d   1      46.175 -17.733  44.273  0.00  0.00     0.281 C 
ATOM     18  O   UNL d   1      46.641 -17.650  44.952  0.00  0.00    -0.265 OA
ATOM     19  N   UNL d   1      45.622 -17.157  44.079  0.00  0.00    -0.206 NA
BRANCH  19  20
ATOM     20  C   UNL d   1      45.523 -16.488  44.554  0.00  0.00     0.102 C 
BRANCH  20  21
ATOM     21  C   UNL d   1      45.459 -15.743  44.216  0.00  0.00     0.021 C 
BRANCH  21  22
ATOM     22  C   UNL d   1      45.493 -15.075  44.694  0.00  0.00     0.002 C 
BRANCH  22  23
ATOM     23  C   UNL d   1      45.852 -14.384  44.414  0.00  0.00     0.000 C 
ATOM     24  C   UNL d   1      45.669 -13.657  44.753  0.00  0.00     0.000 C 
ENDBRANCH  22  23
ENDBRANCH  21  22
ENDBRANCH  20  21
ENDBRANCH  19  20
ENDBRANCH   1  17
TORSDOF 7
ENDMDL
