MODEL 1
REMARK VINA RESULT:      -7.1      0.000      0.000
REMARK  2 active torsions:
REMARK  status: ('A' for Active; 'I' for Inactive)
REMARK    1  A    between atoms: N_4  and  C_1 
REMARK    2  A    between atoms: C_6  and  C_2 
ROOT
ATOM      1  C   UNL d   1     -48.171  12.486  23.064  0.00  0.00     0.149 A 
ATOM      2  C   UNL d   1     -47.813  13.227  22.938  0.00  0.00     0.056 A 
ATOM      3  N   UNL d   1     -47.735  11.842  23.314  0.00  0.00    -0.228 NA
ATOM      4  C   UNL d   1     -47.009  13.307  23.067  0.00  0.00     0.006 A 
ATOM      5  C   UNL d   1     -46.931  11.919  23.444  0.00  0.00     0.083 A 
ATOM      6  C   UNL d   1     -46.563  12.652  23.322  0.00  0.00     0.019 A 
ATOM      7  C   UNL d   1     -46.634  14.037  22.947  0.00  0.00     0.000 C 
ATOM      8  C   UNL d   1     -46.485  11.272  23.696  0.00  0.00     0.021 C 
ENDROOT
BRANCH   1   9
ATOM      9  N   UNL d   1     -48.984  12.405  22.934  0.00  0.00    -0.289 N 
ATOM     10  C   UNL d   1     -49.447  12.499  23.481  0.00  0.00     0.082 A 
ATOM     11  C   UNL d   1     -50.150  12.426  23.359  0.00  0.00     0.021 A 
ATOM     12  C   UNL d   1     -49.920  12.172  22.167  0.00  0.00     0.021 A 
ATOM     13  C   UNL d   1     -49.220  12.244  22.287  0.00  0.00     0.082 A 
ENDBRANCH   1   9
BRANCH   2  14
ATOM     14  C   UNL d   1     -48.257  13.866  22.689  0.00  0.00     0.125 C 
ATOM     15  N   UNL d   1     -47.902  14.599  22.586  0.00  0.00    -0.146 N 
ENDBRANCH   2  14
TORSDOF 2
ENDMDL
MODEL 2
REMARK VINA RESULT:      -7.0      1.355      3.117
REMARK  2 active torsions:
REMARK  status: ('A' for Active; 'I' for Inactive)
REMARK    1  A    between atoms: N_4  and  C_1 
REMARK    2  A    between atoms: C_6  and  C_2 
ROOT
ATOM      1  C   UNL d   1     -48.165  13.994  22.692  0.00  0.00     0.149 A 
ATOM      2  C   UNL d   1     -48.585  13.586  22.101  0.00  0.00     0.056 A 
ATOM      3  N   UNL d   1     -48.501  14.624  23.091  0.00  0.00    -0.228 NA
ATOM      4  C   UNL d   1     -49.347  13.821  21.919  0.00  0.00     0.006 A 
ATOM      5  C   UNL d   1     -49.263  14.862  22.911  0.00  0.00     0.083 A 
ATOM      6  C   UNL d   1     -49.690  14.463  22.325  0.00  0.00     0.019 A 
ATOM      7  C   UNL d   1     -49.782  13.427  21.333  0.00  0.00     0.000 C 
ATOM      8  C   UNL d   1     -49.606  15.497  23.311  0.00  0.00     0.021 C 
ENDROOT
BRANCH   1   9
ATOM      9  N   UNL d   1     -47.395  13.756  22.876  0.00  0.00    -0.289 N 
ATOM     10  C   UNL d   1     -47.289  13.192  23.314  0.00  0.00     0.082 A 
ATOM     11  C   UNL d   1     -46.617  12.992  23.469  0.00  0.00     0.021 A 
ATOM     12  C   UNL d   1     -46.178  13.908  22.757  0.00  0.00     0.021 A 
ATOM     13  C   UNL d   1     -46.846  14.108  22.603  0.00  0.00     0.082 A 
ENDBRANCH   1   9
BRANCH   2  14
ATOM     14  C   UNL d   1     -48.242  12.958  21.707  0.00  0.00     0.125 C 
ATOM     15  N   UNL d   1     -48.589  12.660  21.025  0.00  0.00    -0.146 N 
ENDBRANCH   2  14
TORSDOF 2
ENDMDL
MODEL 3
REMARK VINA RESULT:      -6.9      0.656      1.815
REMARK  2 active torsions:
REMARK  status: ('A' for Active; 'I' for Inactive)
REMARK    1  A    between atoms: N_4  and  C_1 
REMARK    2  A    between atoms: C_6  and  C_2 
ROOT
ATOM      1  C   UNL d   1     -48.430  12.918  23.036  0.00  0.00     0.149 A 
ATOM      2  C   UNL d   1     -47.732  12.498  23.204  0.00  0.00     0.056 A 
ATOM      3  N   UNL d   1     -48.411  13.713  22.847  0.00  0.00    -0.228 NA
ATOM      4  C   UNL d   1     -47.015  12.891  23.179  0.00  0.00     0.006 A 
ATOM      5  C   UNL d   1     -47.695  14.109  22.821  0.00  0.00     0.083 A 
ATOM      6  C   UNL d   1     -46.993  13.701  22.987  0.00  0.00     0.019 A 
ATOM      7  C   UNL d   1     -46.308  12.489  23.343  0.00  0.00     0.000 C 
ATOM      8  C   UNL d   1     -47.670  14.912  22.631  0.00  0.00     0.021 C 
ENDROOT
BRANCH   1   9
ATOM      9  N   UNL d   1     -49.155  12.521  23.062  0.00  0.00    -0.289 N 
ATOM     10  C   UNL d   1     -49.519  12.478  23.684  0.00  0.00     0.082 A 
ATOM     11  C   UNL d   1     -50.148  12.131  23.698  0.00  0.00     0.021 A 
ATOM     12  C   UNL d   1     -50.039  11.881  22.488  0.00  0.00     0.021 A 
ATOM     13  C   UNL d   1     -49.413  12.225  22.474  0.00  0.00     0.082 A 
ENDBRANCH   1   9
BRANCH   2  14
ATOM     14  C   UNL d   1     -47.761  11.703  23.392  0.00  0.00     0.125 C 
ATOM     15  N   UNL d   1     -47.095  11.325  23.687  0.00  0.00    -0.146 N 
ENDBRANCH   2  14
TORSDOF 2
ENDMDL
MODEL 4
REMARK VINA RESULT:      -6.9      0.852      1.942
REMARK  2 active torsions:
REMARK  status: ('A' for Active; 'I' for Inactive)
REMARK    1  A    between atoms: N_4  and  C_1 
REMARK    2  A    between atoms: C_6  and  C_2 
ROOT
ATOM      1  C   UNL d   1     -48.064  13.108  22.688  0.00  0.00     0.149 A 
ATOM      2  C   UNL d   1     -47.882  12.377  23.040  0.00  0.00     0.056 A 
ATOM      3  N   UNL d   1     -47.507  13.705  22.639  0.00  0.00    -0.228 NA
ATOM      4  C   UNL d   1     -47.132  12.256  23.343  0.00  0.00     0.006 A 
ATOM      5  C   UNL d   1     -46.756  13.588  22.941  0.00  0.00     0.083 A 
ATOM      6  C   UNL d   1     -46.563  12.863  23.294  0.00  0.00     0.019 A 
ATOM      7  C   UNL d   1     -46.931  11.534  23.698  0.00  0.00     0.000 C 
ATOM      8  C   UNL d   1     -46.190  14.187  22.895  0.00  0.00     0.021 C 
ENDROOT
BRANCH   1   9
ATOM      9  N   UNL d   1     -48.823  13.230  22.382  0.00  0.00    -0.289 N 
ATOM     10  C   UNL d   1     -48.972  13.033  21.703  0.00  0.00     0.082 A 
ATOM     11  C   UNL d   1     -49.633  13.143  21.445  0.00  0.00     0.021 A 
ATOM     12  C   UNL d   1     -49.977  13.635  22.530  0.00  0.00     0.021 A 
ATOM     13  C   UNL d   1     -49.320  13.527  22.787  0.00  0.00     0.082 A 
ENDBRANCH   1   9
BRANCH   2  14
ATOM     14  C   UNL d   1     -48.445  11.786  23.084  0.00  0.00     0.125 C 
ATOM     15  N   UNL d   1     -48.346  11.162  23.608  0.00  0.00    -0.146 N 
ENDBRANCH   2  14
TORSDOF 2
ENDMDL
MODEL 5
REMARK VINA RESULT:      -6.7      1.164      1.583
REMARK  2 active torsions:
REMARK  status: ('A' for Active; 'I' for Inactive)
REMARK    1  A    between atoms: N_4  and  C_1 
REMARK    2  A    between atoms: C_6  and  C_2 
ROOT
ATOM      1  C   UNL d   1     -48.352  13.480  23.009  0.00  0.00     0.149 A 
ATOM      2  C   UNL d   1     -47.535  13.626  22.946  0.00  0.00     0.056 A 
ATOM      3  N   UNL d   1     -48.635  12.754  23.256  0.00  0.00    -0.228 NA
ATOM      4  C   UNL d   1     -47.009  13.029  23.136  0.00  0.00     0.006 A 
ATOM      5  C   UNL d   1     -48.111  12.155  23.446  0.00  0.00     0.083 A 
ATOM      6  C   UNL d   1     -47.296  12.288  23.387  0.00  0.00     0.019 A 
ATOM      7  C   UNL d   1     -46.191  13.154  23.079  0.00  0.00     0.000 C 
ATOM      8  C   UNL d   1     -48.391  11.420  23.696  0.00  0.00     0.021 C 
ENDROOT
BRANCH   1   9
ATOM      9  N   UNL d   1     -48.885  14.083  22.817  0.00  0.00    -0.289 N 
ATOM     10  C   UNL d   1     -49.100  14.548  23.327  0.00  0.00     0.082 A 
ATOM     11  C   UNL d   1     -49.562  15.068  23.152  0.00  0.00     0.021 A 
ATOM     12  C   UNL d   1     -49.586  14.658  21.982  0.00  0.00     0.021 A 
ATOM     13  C   UNL d   1     -49.126  14.140  22.155  0.00  0.00     0.082 A 
ENDBRANCH   1   9
BRANCH   2  14
ATOM     14  C   UNL d   1     -47.262  14.354  22.698  0.00  0.00     0.125 C 
ATOM     15  N   UNL d   1     -46.458  14.521  22.718  0.00  0.00    -0.146 N 
ENDBRANCH   2  14
TORSDOF 2
ENDMDL
