MODEL 1
REMARK VINA RESULT:      -2.1      0.000      0.000
REMARK  4 active torsions:
REMARK  status: ('A' for Active; 'I' for Inactive)
REMARK    1  A    between atoms: O_2  and  P_1 
REMARK    2  A    between atoms: C_6  and  P_1 
REMARK    3  A    between atoms: C_3  and  O_2 
REMARK    4  A    between atoms: C_10  and  C_4 
ROOT
ATOM      1  C   UNL d   1     -42.067-122.858 -49.819  0.00  0.00     0.103 A 
ATOM      2  C   UNL d   1     -42.144-122.944 -49.000  0.00  0.00     0.023 A 
ATOM      3  C   UNL d   1     -42.863-122.915 -48.638  0.00  0.00     0.002 A 
ATOM      4  C   UNL d   1     -42.751-122.741 -50.266  0.00  0.00     0.025 A 
ATOM      5  C   UNL d   1     -43.548-122.797 -49.090  0.00  0.00     0.000 A 
ATOM      6  C   UNL d   1     -43.471-122.712 -49.905  0.00  0.00     0.002 A 
ATOM      7  C   UNL d   1     -44.146-122.593 -50.377  0.00  0.00     0.000 C 
ENDROOT
BRANCH   1   8
ATOM      8  O   UNL d   1     -41.326-122.889 -50.185  0.00  0.00    -0.269 OA
BRANCH   8   9
ATOM      9  P   UNL d   1     -41.278-122.911 -51.001  0.00  0.00     0.370 P 
ATOM     10  O   UNL d   1     -41.394-123.721 -50.988  0.00  0.00    -0.257 OA
ATOM     11  N   UNL d   1     -41.159-122.074 -51.000  0.00  0.00    -0.091 N 
BRANCH   9  12
ATOM     12  C   UNL d   1     -41.226-122.914 -51.826  0.00  0.00     0.077 A 
ATOM     13  C   UNL d   1     -41.207-122.188 -52.220  0.00  0.00     0.007 A 
ATOM     14  C   UNL d   1     -41.155-122.190 -53.051  0.00  0.00     0.000 A 
ATOM     15  C   UNL d   1     -41.124-122.900 -53.474  0.00  0.00     0.000 A 
ATOM     16  C   UNL d   1     -41.145-123.606 -53.066  0.00  0.00     0.000 A 
ATOM     17  C   UNL d   1     -41.195-123.623 -52.250  0.00  0.00     0.007 A 
ENDBRANCH   9  12
ENDBRANCH   8   9
ENDBRANCH   1   8
BRANCH   2  18
ATOM     18  C   UNL d   1     -41.476-123.060 -48.541  0.00  0.00     0.002 C 
ATOM     19  C   UNL d   1     -41.123-122.431 -48.155  0.00  0.00     0.000 C 
ATOM     20  C   UNL d   1     -41.160-123.817 -48.469  0.00  0.00     0.000 C 
ENDBRANCH   2  18
TORSDOF 4
ENDMDL
MODEL 2
REMARK VINA RESULT:      -1.9      1.039      3.636
REMARK  4 active torsions:
REMARK  status: ('A' for Active; 'I' for Inactive)
REMARK    1  A    between atoms: O_2  and  P_1 
REMARK    2  A    between atoms: C_6  and  P_1 
REMARK    3  A    between atoms: C_3  and  O_2 
REMARK    4  A    between atoms: C_10  and  C_4 
ROOT
ATOM      1  C   UNL d   1     -41.574-122.539 -51.409  0.00  0.00     0.103 A 
ATOM      2  C   UNL d   1     -41.468-122.486 -52.228  0.00  0.00     0.023 A 
ATOM      3  C   UNL d   1     -41.254-121.795 -52.582  0.00  0.00     0.002 A 
ATOM      4  C   UNL d   1     -41.454-121.861 -50.955  0.00  0.00     0.025 A 
ATOM      5  C   UNL d   1     -41.134-121.116 -52.122  0.00  0.00     0.000 A 
ATOM      6  C   UNL d   1     -41.239-121.169 -51.307  0.00  0.00     0.002 A 
ATOM      7  C   UNL d   1     -41.124-120.500 -50.828  0.00  0.00     0.000 C 
ENDROOT
BRANCH   1   8
ATOM      8  O   UNL d   1     -41.794-123.252 -51.052  0.00  0.00    -0.269 OA
BRANCH   8   9
ATOM      9  P   UNL d   1     -41.980-123.265 -50.256  0.00  0.00     0.370 P 
ATOM     10  O   UNL d   1     -42.729-122.981 -50.422  0.00  0.00    -0.257 OA
ATOM     11  N   UNL d   1     -41.203-123.558 -50.097  0.00  0.00    -0.091 N 
BRANCH   9  12
ATOM     12  C   UNL d   1     -42.148-123.285 -49.446  0.00  0.00     0.077 A 
ATOM     13  C   UNL d   1     -42.896-123.041 -49.195  0.00  0.00     0.007 A 
ATOM     14  C   UNL d   1     -43.067-123.061 -48.381  0.00  0.00     0.000 A 
ATOM     15  C   UNL d   1     -42.501-123.318 -47.833  0.00  0.00     0.000 A 
ATOM     16  C   UNL d   1     -41.769-123.554 -48.102  0.00  0.00     0.000 A 
ATOM     17  C   UNL d   1     -41.584-123.542 -48.899  0.00  0.00     0.007 A 
ENDBRANCH   9  12
ENDBRANCH   8   9
ENDBRANCH   1   8
BRANCH   2  18
ATOM     18  C   UNL d   1     -41.583-123.149 -52.695  0.00  0.00     0.002 C 
ATOM     19  C   UNL d   1     -41.123-123.817 -52.587  0.00  0.00     0.000 C 
ATOM     20  C   UNL d   1     -42.167-123.141 -53.276  0.00  0.00     0.000 C 
ENDBRANCH   2  18
TORSDOF 4
ENDMDL
