MODEL 1
REMARK VINA RESULT:      18.0      0.000      0.000
REMARK  3 active torsions:
REMARK  status: ('A' for Active; 'I' for Inactive)
REMARK    1  A    between atoms: C_5  and  C_1 
REMARK    2  A    between atoms: C_7  and  C_5 
REMARK    3  A    between atoms: C_10  and  C_7 
ROOT
ATOM      1  C   UNL d   1      45.400 -15.229  44.864  0.00  0.00     0.220 A 
ATOM      2  C   UNL d   1      44.605 -15.166  44.914  0.00  0.00     0.315 A 
ATOM      3  N   UNL d   1      44.394 -14.375  44.919  0.00  0.00    -0.205 NA
ATOM      4  C   UNL d   1      45.720 -14.474  44.835  0.00  0.00     0.059 A 
ATOM      5  C   UNL d   1      45.084 -13.934  44.870  0.00  0.00     0.088 A 
ATOM      6  O   UNL d   1      44.104 -15.823  44.953  0.00  0.00    -0.262 OA
ATOM      7  O   UNL d   1      46.206 -15.112  44.811  0.00  0.00    -0.285 OA
ATOM      8  C   UNL d   1      46.489 -14.179  44.783  0.00  0.00     0.005 A 
ATOM      9  C   UNL d   1      45.227 -13.108  44.853  0.00  0.00     0.019 A 
ATOM     10  C   UNL d   1      46.647 -13.377  44.765  0.00  0.00     0.000 A 
ATOM     11  C   UNL d   1      46.011 -12.838  44.800  0.00  0.00     0.002 A 
ENDROOT
BRANCH   1  12
ATOM     12  C   UNL d   1      45.733 -15.976  44.851  0.00  0.00     0.086 C 
BRANCH  12  13
ATOM     13  C   UNL d   1      45.673 -16.471  44.186  0.00  0.00     0.199 C 
ATOM     14  O   UNL d   1      45.314 -16.184  43.503  0.00  0.00    -0.286 OA
BRANCH  13  15
ATOM     15  C   UNL d   1      45.966 -17.231  44.209  0.00  0.00     0.039 A 
ATOM     16  C   UNL d   1      46.037 -17.655  44.928  0.00  0.00     0.003 A 
ATOM     17  C   UNL d   1      46.330 -18.415  44.950  0.00  0.00     0.000 A 
ATOM     18  C   UNL d   1      46.562 -18.773  44.235  0.00  0.00     0.000 A 
ATOM     19  C   UNL d   1      46.499 -18.370  43.522  0.00  0.00     0.000 A 
ATOM     20  C   UNL d   1      46.207 -17.616  43.512  0.00  0.00     0.003 A 
ENDBRANCH  13  15
ENDBRANCH  12  13
ENDBRANCH   1  12
TORSDOF 3
ENDMDL
