MODEL 1
REMARK VINA RESULT:      46.9      0.000      0.000
REMARK  5 active torsions:
REMARK  status: ('A' for Active; 'I' for Inactive)
REMARK    1  A    between atoms: O_4  and  C_1 
REMARK    2  A    between atoms: C_10  and  C_2 
REMARK    3  A    between atoms: C_5  and  O_4 
REMARK    4  A    between atoms: C_7  and  C_5 
REMARK    5  A    between atoms: N_12  and  C_10 
ROOT
ATOM      1  C   UNL d   1      13.624  13.674  -3.194  0.00  0.00     0.122 A 
ATOM      2  C   UNL d   1      13.631  14.487  -3.347  0.00  0.00     0.043 A 
ATOM      3  C   UNL d   1      13.339  13.151  -3.766  0.00  0.00     0.105 A 
ATOM      4  C   UNL d   1      13.062  13.438  -4.489  0.00  0.00     0.030 A 
ATOM      5  C   UNL d   1      13.072  14.246  -4.633  0.00  0.00     0.059 A 
ATOM      6  C   UNL d   1      13.354  14.774  -4.069  0.00  0.00     0.015 A 
ATOM      7  N   UNL d   1      13.333  12.344  -3.611  0.00  0.00    -0.242 NA
ATOM      8 CL   UNL d   1      12.786  14.513  -5.373  0.00  0.00    -0.082 Cl
ATOM      9  C   UNL d   1      12.781  12.916  -5.050  0.00  0.00     0.004 A 
ATOM     10  C   UNL d   1      13.048  11.821  -4.184  0.00  0.00     0.099 A 
ATOM     11  C   UNL d   1      12.771  12.108  -4.906  0.00  0.00     0.021 A 
ENDROOT
BRANCH   1  12
ATOM     12  O   UNL d   1      13.872  13.403  -2.542  0.00  0.00    -0.271 OA
BRANCH  12  13
ATOM     13  C   UNL d   1      14.504  12.764  -2.188  0.00  0.00     0.306 C 
ATOM     14  O   UNL d   1      15.064  12.307  -2.889  0.00  0.00    -0.258 OA
BRANCH  13  15
ATOM     15  C   UNL d   1      14.562  12.620  -1.377  0.00  0.00     0.093 A 
ATOM     16  S   UNL d   1      14.609  11.883  -1.027  0.00  0.00    -0.081 SA
ATOM     17  C   UNL d   1      14.660  12.011  -0.186  0.00  0.00     0.036 A 
ATOM     18  C   UNL d   1      14.642  12.821  -0.055  0.00  0.00     0.008 A 
ATOM     19  C   UNL d   1      14.580  13.195  -0.811  0.00  0.00     0.012 A 
ENDBRANCH  13  15
ENDBRANCH  12  13
ENDBRANCH   1  12
BRANCH   2  20
ATOM     20  C   UNL d   1      13.901  15.203  -2.851  0.00  0.00     0.082 C 
BRANCH  20  21
ATOM     21  N   UNL d   1      14.405  15.760  -3.187  0.00  0.00    -0.299 N 
ATOM     22  C   UNL d   1      14.977  16.126  -2.735  0.00  0.00     0.107 A 
ATOM     23  C   UNL d   1      15.481  16.682  -3.066  0.00  0.00     0.142 A 
ATOM     24  O   UNL d   1      15.404  16.871  -3.871  0.00  0.00    -0.300 OA
ATOM     25  C   UNL d   1      14.833  16.509  -4.330  0.00  0.00     0.142 A 
ATOM     26  C   UNL d   1      14.332  15.949  -3.979  0.00  0.00     0.107 A 
ENDBRANCH  20  21
ENDBRANCH   2  20
TORSDOF 5
ENDMDL
MODEL 2
REMARK VINA RESULT:      48.1      1.862      4.103
REMARK  5 active torsions:
REMARK  status: ('A' for Active; 'I' for Inactive)
REMARK    1  A    between atoms: O_4  and  C_1 
REMARK    2  A    between atoms: C_10  and  C_2 
REMARK    3  A    between atoms: C_5  and  O_4 
REMARK    4  A    between atoms: C_7  and  C_5 
REMARK    5  A    between atoms: N_12  and  C_10 
ROOT
ATOM      1  C   UNL d   1      14.484  13.937  -2.043  0.00  0.00     0.122 A 
ATOM      2  C   UNL d   1      13.863  13.528  -2.406  0.00  0.00     0.043 A 
ATOM      3  C   UNL d   1      14.840  13.625  -1.365  0.00  0.00     0.105 A 
ATOM      4  C   UNL d   1      14.576  12.909  -1.051  0.00  0.00     0.030 A 
ATOM      5  C   UNL d   1      13.959  12.510  -1.418  0.00  0.00     0.059 A 
ATOM      6  C   UNL d   1      13.600  12.812  -2.092  0.00  0.00     0.015 A 
ATOM      7  N   UNL d   1      15.456  14.034  -1.007  0.00  0.00    -0.242 NA
ATOM      8 CL   UNL d   1      13.710  11.785  -1.080  0.00  0.00    -0.082 Cl
ATOM      9  C   UNL d   1      14.931  12.607  -0.381  0.00  0.00     0.004 A 
ATOM     10  C   UNL d   1      15.811  13.722  -0.328  0.00  0.00     0.099 A 
ATOM     11  C   UNL d   1      15.548  13.006  -0.014  0.00  0.00     0.021 A 
ENDROOT
BRANCH   1  12
ATOM     12  O   UNL d   1      14.731  14.587  -2.320  0.00  0.00    -0.271 OA
BRANCH  12  13
ATOM     13  C   UNL d   1      14.621  15.540  -2.207  0.00  0.00     0.306 C 
ATOM     14  O   UNL d   1      14.230  15.806  -1.317  0.00  0.00    -0.258 OA
BRANCH  13  15
ATOM     15  C   UNL d   1      14.834  16.071  -2.801  0.00  0.00     0.093 A 
ATOM     16  S   UNL d   1      15.299  16.736  -2.700  0.00  0.00    -0.081 SA
ATOM     17  C   UNL d   1      15.368  17.109  -3.463  0.00  0.00     0.036 A 
ATOM     18  C   UNL d   1      14.944  16.656  -4.001  0.00  0.00     0.008 A 
ATOM     19  C   UNL d   1      14.612  16.006  -3.574  0.00  0.00     0.012 A 
ENDBRANCH  13  15
ENDBRANCH  12  13
ENDBRANCH   1  12
BRANCH   2  20
ATOM     20  C   UNL d   1      13.358  13.707  -3.144  0.00  0.00     0.082 C 
BRANCH  20  21
ATOM     21  N   UNL d   1      13.295  13.142  -3.738  0.00  0.00    -0.299 N 
ATOM     22  C   UNL d   1      13.262  12.349  -3.553  0.00  0.00     0.107 A 
ATOM     23  C   UNL d   1      13.199  11.782  -4.144  0.00  0.00     0.142 A 
ATOM     24  O   UNL d   1      13.169  12.025  -4.938  0.00  0.00    -0.300 OA
ATOM     25  C   UNL d   1      13.201  12.819  -5.131  0.00  0.00     0.142 A 
ATOM     26  C   UNL d   1      13.265  13.377  -4.521  0.00  0.00     0.107 A 
ENDBRANCH  20  21
ENDBRANCH   2  20
TORSDOF 5
ENDMDL
