MODEL 1
REMARK VINA RESULT:      63.7      0.000      0.000
REMARK  9 active torsions:
REMARK  status: ('A' for Active; 'I' for Inactive)
REMARK    1  A    between atoms: N_2  and  C_1 
REMARK       I    between atoms: C_4  and  N_2 
REMARK    2  A    between atoms: C_7  and  C_4 
REMARK    3  A    between atoms: C_8  and  C_5 
REMARK    4  A    between atoms: C_10  and  C_8 
REMARK       I    between atoms: N_12  and  C_10 
REMARK    5  A    between atoms: C_11  and  C_19 
REMARK    6  A    between atoms: C_19  and  N_12 
REMARK    7  A    between atoms: O_23  and  C_17 
REMARK    8  A    between atoms: O_24  and  C_18 
REMARK    9  A    between atoms: O_22  and  C_20 
ROOT
ATOM      1  C   UNL d   1     -50.637  27.007  33.465  0.00  0.00     0.197 A 
ATOM      2  N   UNL d   1     -49.826  27.200  33.461  0.00  0.00    -0.220 NA
ATOM      3  C   UNL d   1     -49.752  28.003  33.607  0.00  0.00     0.095 A 
ATOM      4  S   UNL d   1     -51.050  27.704  33.616  0.00  0.00    -0.046 SA
ATOM      5  C   UNL d   1     -50.508  28.317  33.703  0.00  0.00     0.058 A 
ENDROOT
BRANCH   1   6
ATOM      6  N   UNL d   1     -50.951  26.260  33.342  0.00  0.00    -0.183 NA
ATOM      7  C   UNL d   1     -51.536  25.964  33.830  0.00  0.00     0.281 C 
ATOM      8  O   UNL d   1     -51.824  26.417  34.463  0.00  0.00    -0.265 OA
BRANCH   7   9
ATOM      9  C   UNL d   1     -51.855  25.210  33.707  0.00  0.00     0.062 A 
ATOM     10  C   UNL d   1     -52.658  25.092  33.716  0.00  0.00     0.029 A 
ATOM     11  C   UNL d   1     -52.968  24.341  33.593  0.00  0.00     0.096 A 
ATOM     12  C   UNL d   1     -52.458  23.702  33.461  0.00  0.00     0.048 A 
ATOM     13  C   UNL d   1     -51.650  23.832  33.455  0.00  0.00     0.096 A 
ATOM     14  C   UNL d   1     -51.334  24.577  33.576  0.00  0.00     0.029 A 
BRANCH  11  15
ATOM     15  O   UNL d   1     -53.779  24.220  33.601  0.00  0.00    -0.328 OA
ATOM     16  C   UNL d   1     -54.095  23.490  33.357  0.00  0.00     0.181 C 
ENDBRANCH  11  15
BRANCH  13  17
ATOM     17  O   UNL d   1     -51.128  23.198  33.323  0.00  0.00    -0.328 OA
ATOM     18  C   UNL d   1     -50.382  23.198  33.674  0.00  0.00     0.181 C 
ENDBRANCH  13  17
ENDBRANCH   7   9
ENDBRANCH   1   6
BRANCH   3  19
ATOM     19  C   UNL d   1     -49.044  28.426  33.650  0.00  0.00     0.082 C 
BRANCH  19  20
ATOM     20  C   UNL d   1     -48.825  28.795  34.359  0.00  0.00     0.281 C 
ATOM     21  N   UNL d   1     -48.095  29.168  34.412  0.00  0.00    -0.206 NA
ATOM     22  O   UNL d   1     -49.341  28.783  34.998  0.00  0.00    -0.265 OA
BRANCH  21  23
ATOM     23  C   UNL d   1     -47.878  29.533  35.112  0.00  0.00     0.104 C 
BRANCH  23  24
ATOM     24  C   UNL d   1     -47.744  30.348  35.130  0.00  0.00     0.042 A 
ATOM     25  C   UNL d   1     -47.518  30.712  35.839  0.00  0.00     0.096 A 
ATOM     26  C   UNL d   1     -47.382  31.519  35.870  0.00  0.00     0.024 A 
ATOM     27  C   UNL d   1     -47.471  31.976  35.191  0.00  0.00     0.002 A 
ATOM     28  C   UNL d   1     -47.696  31.621  34.482  0.00  0.00     0.000 A 
ATOM     29  C   UNL d   1     -47.833  30.808  34.449  0.00  0.00     0.004 A 
BRANCH  25  30
ATOM     30  O   UNL d   1     -47.426  30.258  36.531  0.00  0.00    -0.328 OA
ATOM     31  C   UNL d   1     -47.084  30.586  37.209  0.00  0.00     0.181 C 
ENDBRANCH  25  30
ENDBRANCH  23  24
ENDBRANCH  21  23
ENDBRANCH  19  20
ENDBRANCH   3  19
TORSDOF 9
ENDMDL
MODEL 2
REMARK VINA RESULT:      66.7      0.951      6.898
REMARK  9 active torsions:
REMARK  status: ('A' for Active; 'I' for Inactive)
REMARK    1  A    between atoms: N_2  and  C_1 
REMARK       I    between atoms: C_4  and  N_2 
REMARK    2  A    between atoms: C_7  and  C_4 
REMARK    3  A    between atoms: C_8  and  C_5 
REMARK    4  A    between atoms: C_10  and  C_8 
REMARK       I    between atoms: N_12  and  C_10 
REMARK    5  A    between atoms: C_11  and  C_19 
REMARK    6  A    between atoms: C_19  and  N_12 
REMARK    7  A    between atoms: O_23  and  C_17 
REMARK    8  A    between atoms: O_24  and  C_18 
REMARK    9  A    between atoms: O_22  and  C_20 
ROOT
ATOM      1  C   UNL d   1     -48.967  28.603  34.042  0.00  0.00     0.197 A 
ATOM      2  N   UNL d   1     -49.787  28.637  33.895  0.00  0.00    -0.220 NA
ATOM      3  C   UNL d   1     -50.042  27.887  33.688  0.00  0.00     0.095 A 
ATOM      4  S   UNL d   1     -48.732  27.823  33.920  0.00  0.00    -0.046 SA
ATOM      5  C   UNL d   1     -49.391  27.381  33.703  0.00  0.00     0.058 A 
ENDROOT
BRANCH   1   6
ATOM      6  N   UNL d   1     -48.495  29.236  34.264  0.00  0.00    -0.183 NA
ATOM      7  C   UNL d   1     -48.440  29.465  35.047  0.00  0.00     0.281 C 
ATOM      8  O   UNL d   1     -48.865  29.058  35.634  0.00  0.00    -0.265 OA
BRANCH   7   9
ATOM      9  C   UNL d   1     -47.965  30.102  35.275  0.00  0.00     0.062 A 
ATOM     10  C   UNL d   1     -48.052  30.831  34.927  0.00  0.00     0.029 A 
ATOM     11  C   UNL d   1     -47.576  31.459  35.158  0.00  0.00     0.096 A 
ATOM     12  C   UNL d   1     -47.006  31.349  35.748  0.00  0.00     0.048 A 
ATOM     13  C   UNL d   1     -46.926  30.611  36.092  0.00  0.00     0.096 A 
ATOM     14  C   UNL d   1     -47.396  29.980  35.868  0.00  0.00     0.029 A 
BRANCH  11  15
ATOM     15  O   UNL d   1     -47.663  32.196  34.807  0.00  0.00    -0.328 OA
ATOM     16  C   UNL d   1     -48.422  32.513  34.684  0.00  0.00     0.181 C 
ENDBRANCH  11  15
BRANCH  13  17
ATOM     17  O   UNL d   1     -46.358  30.488  36.686  0.00  0.00    -0.328 OA
ATOM     18  C   UNL d   1     -46.593  30.270  37.445  0.00  0.00     0.181 C 
ENDBRANCH  13  17
ENDBRANCH   7   9
ENDBRANCH   1   6
BRANCH   3  19
ATOM     19  C   UNL d   1     -50.816  27.672  33.497  0.00  0.00     0.082 C 
BRANCH  19  20
ATOM     20  C   UNL d   1     -51.141  26.975  33.806  0.00  0.00     0.281 C 
ATOM     21  N   UNL d   1     -51.279  26.337  33.307  0.00  0.00    -0.206 NA
ATOM     22  O   UNL d   1     -51.319  26.932  34.607  0.00  0.00    -0.265 OA
BRANCH  21  23
ATOM     23  C   UNL d   1     -51.600  25.648  33.612  0.00  0.00     0.104 C 
BRANCH  23  24
ATOM     24  C   UNL d   1     -51.205  24.929  33.514  0.00  0.00     0.042 A 
ATOM     25  C   UNL d   1     -51.635  24.221  33.508  0.00  0.00     0.096 A 
ATOM     26  C   UNL d   1     -51.256  23.502  33.411  0.00  0.00     0.024 A 
ATOM     27  C   UNL d   1     -50.438  23.479  33.319  0.00  0.00     0.002 A 
ATOM     28  C   UNL d   1     -50.004  24.179  33.324  0.00  0.00     0.000 A 
ATOM     29  C   UNL d   1     -50.384  24.904  33.421  0.00  0.00     0.004 A 
BRANCH  25  30
ATOM     30  O   UNL d   1     -52.463  24.235  33.600  0.00  0.00    -0.328 OA
ATOM     31  C   UNL d   1     -52.930  23.611  33.323  0.00  0.00     0.181 C 
ENDBRANCH  25  30
ENDBRANCH  23  24
ENDBRANCH  21  23
ENDBRANCH  19  20
ENDBRANCH   3  19
TORSDOF 9
ENDMDL
