MODEL 1
REMARK VINA RESULT:      -9.1      0.000      0.000
REMARK  6 active torsions:
REMARK  status: ('A' for Active; 'I' for Inactive)
REMARK       I    between atoms: C_6  and  N_1 
REMARK    1  A    between atoms: C_7  and  C_3 
REMARK    2  A    between atoms: C_8  and  C_4 
REMARK    3  A    between atoms: C_11  and  C_6 
REMARK    4  A    between atoms: C_9  and  C_17 
REMARK    5  A    between atoms: C_17  and  C_11 
REMARK    6  A    between atoms: O_26  and  C_19 
ROOT
ATOM      1  N   UNL d   1      52.748  32.631  53.360  0.00  0.00    -0.195 N 
ATOM      2  N   UNL d   1      52.054  32.790  52.955  0.00  0.00    -0.163 NA
ATOM      3  C   UNL d   1      51.880  33.572  53.002  0.00  0.00     0.103 A 
ATOM      4  C   UNL d   1      53.013  33.334  53.667  0.00  0.00     0.088 A 
ATOM      5  C   UNL d   1      52.498  33.912  53.458  0.00  0.00     0.040 A 
ATOM      6  C   UNL d   1      53.102  31.883  53.434  0.00  0.00     0.281 C 
ATOM      7  O   UNL d   1      53.825  31.820  53.876  0.00  0.00    -0.265 OA
ENDROOT
BRANCH   3   8
ATOM      8  C   UNL d   1      51.219  33.866  52.644  0.00  0.00     0.019 A 
ATOM      9  C   UNL d   1      50.536  33.995  53.108  0.00  0.00     0.004 A 
ATOM     10  C   UNL d   1      49.841  34.301  52.745  0.00  0.00     0.024 A 
ATOM     11  C   UNL d   1      49.830  34.473  51.939  0.00  0.00     0.094 A 
ATOM     12  C   UNL d   1      50.513  34.344  51.474  0.00  0.00     0.024 A 
ATOM     13  C   UNL d   1      51.208  34.038  51.838  0.00  0.00     0.004 A 
BRANCH  11  14
ATOM     14  O   UNL d   1      49.134  34.772  51.611  0.00  0.00    -0.328 OA
ATOM     15  C   UNL d   1      48.848  34.507  50.872  0.00  0.00     0.181 C 
ENDBRANCH  11  14
ENDBRANCH   3   8
BRANCH   4  16
ATOM     16  C   UNL d   1      53.706  33.476  54.132  0.00  0.00     0.018 A 
ATOM     17  C   UNL d   1      53.653  33.500  54.961  0.00  0.00     0.002 A 
ATOM     18  C   UNL d   1      54.327  33.637  55.414  0.00  0.00     0.007 A 
ATOM     19  C   UNL d   1      55.050  33.751  55.044  0.00  0.00     0.035 A 
ATOM     20  C   UNL d   1      55.104  33.727  54.216  0.00  0.00     0.007 A 
ATOM     21 BR   UNL d   1      55.724  33.888  55.497  0.00  0.00    -0.049 Br
ATOM     22  C   UNL d   1      54.434  33.590  53.752  0.00  0.00     0.002 A 
ENDBRANCH   4  16
BRANCH   6  23
ATOM     23  C   UNL d   1      52.787  31.207  53.100  0.00  0.00     0.069 C 
BRANCH  23  24
ATOM     24  C   UNL d   1      53.068  30.467  53.293  0.00  0.00     0.075 C 
BRANCH  24  25
ATOM     25  C   UNL d   1      52.707  29.787  53.018  0.00  0.00     0.211 C 
ATOM     26  O   UNL d   1      52.252  29.312  53.514  0.00  0.00    -0.644 OA
ATOM     27  O   UNL d   1      52.787  29.556  52.235  0.00  0.00    -0.644 OA
ENDBRANCH  24  25
ENDBRANCH  23  24
ENDBRANCH   6  23
TORSDOF 6
ENDMDL
MODEL 2
REMARK VINA RESULT:      -7.8      1.599      3.090
REMARK  6 active torsions:
REMARK  status: ('A' for Active; 'I' for Inactive)
REMARK       I    between atoms: C_6  and  N_1 
REMARK    1  A    between atoms: C_7  and  C_3 
REMARK    2  A    between atoms: C_8  and  C_4 
REMARK    3  A    between atoms: C_11  and  C_6 
REMARK    4  A    between atoms: C_9  and  C_17 
REMARK    5  A    between atoms: C_17  and  C_11 
REMARK    6  A    between atoms: O_26  and  C_19 
ROOT
ATOM      1  N   UNL d   1      53.112  32.466  53.760  0.00  0.00    -0.195 N 
ATOM      2  N   UNL d   1      52.653  33.100  53.517  0.00  0.00    -0.163 NA
ATOM      3  C   UNL d   1      51.989  32.835  53.153  0.00  0.00     0.103 A 
ATOM      4  C   UNL d   1      52.721  31.789  53.541  0.00  0.00     0.088 A 
ATOM      5  C   UNL d   1      52.040  31.997  53.173  0.00  0.00     0.040 A 
ATOM      6  C   UNL d   1      53.840  32.522  54.157  0.00  0.00     0.281 C 
ATOM      7  O   UNL d   1      54.241  31.804  54.369  0.00  0.00    -0.265 OA
ENDROOT
BRANCH   3   8
ATOM      8  C   UNL d   1      51.446  33.359  52.862  0.00  0.00     0.019 A 
ATOM      9  C   UNL d   1      50.746  33.493  53.299  0.00  0.00     0.004 A 
ATOM     10  C   UNL d   1      50.174  34.036  53.006  0.00  0.00     0.024 A 
ATOM     11  C   UNL d   1      50.300  34.434  52.294  0.00  0.00     0.094 A 
ATOM     12  C   UNL d   1      51.000  34.299  51.857  0.00  0.00     0.024 A 
ATOM     13  C   UNL d   1      51.572  33.756  52.152  0.00  0.00     0.004 A 
BRANCH  11  14
ATOM     14  O   UNL d   1      49.721  34.960  52.032  0.00  0.00    -0.328 OA
ATOM     15  C   UNL d   1      49.089  34.710  51.545  0.00  0.00     0.181 C 
ENDBRANCH  11  14
ENDBRANCH   3   8
BRANCH   4  16
ATOM     16  C   UNL d   1      52.957  30.984  53.662  0.00  0.00     0.018 A 
ATOM     17  C   UNL d   1      52.795  30.609  54.385  0.00  0.00     0.002 A 
ATOM     18  C   UNL d   1      53.024  29.827  54.504  0.00  0.00     0.007 A 
ATOM     19  C   UNL d   1      53.411  29.420  53.906  0.00  0.00     0.035 A 
ATOM     20  C   UNL d   1      53.572  29.796  53.182  0.00  0.00     0.007 A 
ATOM     21 BR   UNL d   1      53.640  28.638  54.024  0.00  0.00    -0.049 Br
ATOM     22  C   UNL d   1      53.347  30.579  53.053  0.00  0.00     0.002 A 
ENDBRANCH   4  16
BRANCH   6  23
ATOM     23  C   UNL d   1      54.186  33.236  54.352  0.00  0.00     0.069 C 
BRANCH  23  24
ATOM     24  C   UNL d   1      54.800  33.280  54.885  0.00  0.00     0.075 C 
BRANCH  24  25
ATOM     25  C   UNL d   1      55.118  33.996  55.115  0.00  0.00     0.211 C 
ATOM     26  O   UNL d   1      54.681  34.539  55.555  0.00  0.00    -0.644 OA
ATOM     27  O   UNL d   1      55.886  34.199  54.912  0.00  0.00    -0.644 OA
ENDBRANCH  24  25
ENDBRANCH  23  24
ENDBRANCH   6  23
TORSDOF 6
ENDMDL
MODEL 3
REMARK VINA RESULT:      -7.0      2.233      4.966
REMARK  6 active torsions:
REMARK  status: ('A' for Active; 'I' for Inactive)
REMARK       I    between atoms: C_6  and  N_1 
REMARK    1  A    between atoms: C_7  and  C_3 
REMARK    2  A    between atoms: C_8  and  C_4 
REMARK    3  A    between atoms: C_11  and  C_6 
REMARK    4  A    between atoms: C_9  and  C_17 
REMARK    5  A    between atoms: C_17  and  C_11 
REMARK    6  A    between atoms: O_26  and  C_19 
ROOT
ATOM      1  N   UNL d   1      52.059  33.721  53.240  0.00  0.00    -0.195 N 
ATOM      2  N   UNL d   1      52.551  33.101  53.454  0.00  0.00    -0.163 NA
ATOM      3  C   UNL d   1      52.268  32.411  53.158  0.00  0.00     0.103 A 
ATOM      4  C   UNL d   1      51.454  33.406  52.799  0.00  0.00     0.088 A 
ATOM      5  C   UNL d   1      51.567  32.614  52.742  0.00  0.00     0.040 A 
ATOM      6  C   UNL d   1      52.173  34.518  53.444  0.00  0.00     0.281 C 
ATOM      7  O   UNL d   1      51.605  35.089  53.173  0.00  0.00    -0.265 OA
ENDROOT
BRANCH   3   8
ATOM      8  C   UNL d   1      52.659  31.717  53.296  0.00  0.00     0.019 A 
ATOM      9  C   UNL d   1      52.279  30.998  53.100  0.00  0.00     0.004 A 
ATOM     10  C   UNL d   1      52.677  30.270  53.239  0.00  0.00     0.024 A 
ATOM     11  C   UNL d   1      53.435  30.262  53.564  0.00  0.00     0.094 A 
ATOM     12  C   UNL d   1      53.815  30.981  53.760  0.00  0.00     0.024 A 
ATOM     13  C   UNL d   1      53.415  31.709  53.620  0.00  0.00     0.004 A 
BRANCH  11  14
ATOM     14  O   UNL d   1      53.800  29.532  53.689  0.00  0.00    -0.328 OA
ATOM     15  C   UNL d   1      53.553  29.016  54.298  0.00  0.00     0.181 C 
ENDBRANCH  11  14
ENDBRANCH   3   8
BRANCH   4  16
ATOM     16  C   UNL d   1      50.799  33.808  52.444  0.00  0.00     0.018 A 
ATOM     17  C   UNL d   1      50.129  33.992  52.900  0.00  0.00     0.002 A 
ATOM     18  C   UNL d   1      49.491  34.384  52.556  0.00  0.00     0.007 A 
ATOM     19  C   UNL d   1      49.519  34.590  51.763  0.00  0.00     0.035 A 
ATOM     20  C   UNL d   1      50.189  34.406  51.307  0.00  0.00     0.007 A 
ATOM     21 BR   UNL d   1      48.882  34.982  51.419  0.00  0.00    -0.049 Br
ATOM     22  C   UNL d   1      50.834  34.014  51.642  0.00  0.00     0.002 A 
ENDBRANCH   4  16
BRANCH   6  23
ATOM     23  C   UNL d   1      52.805  34.777  53.892  0.00  0.00     0.069 C 
BRANCH  23  24
ATOM     24  C   UNL d   1      52.948  35.570  54.008  0.00  0.00     0.075 C 
BRANCH  24  25
ATOM     25  C   UNL d   1      53.316  35.845  54.684  0.00  0.00     0.211 C 
ATOM     26  O   UNL d   1      53.749  35.341  55.172  0.00  0.00    -0.644 OA
ATOM     27  O   UNL d   1      53.265  36.634  54.899  0.00  0.00    -0.644 OA
ENDBRANCH  24  25
ENDBRANCH  23  24
ENDBRANCH   6  23
TORSDOF 6
ENDMDL
MODEL 4
REMARK VINA RESULT:      -6.8      1.948      3.465
REMARK  6 active torsions:
REMARK  status: ('A' for Active; 'I' for Inactive)
REMARK       I    between atoms: C_6  and  N_1 
REMARK    1  A    between atoms: C_7  and  C_3 
REMARK    2  A    between atoms: C_8  and  C_4 
REMARK    3  A    between atoms: C_11  and  C_6 
REMARK    4  A    between atoms: C_9  and  C_17 
REMARK    5  A    between atoms: C_17  and  C_11 
REMARK    6  A    between atoms: O_26  and  C_19 
ROOT
ATOM      1  N   UNL d   1      51.754  33.918  53.202  0.00  0.00    -0.195 N 
ATOM      2  N   UNL d   1      51.144  34.428  53.006  0.00  0.00    -0.163 NA
ATOM      3  C   UNL d   1      50.562  34.027  52.626  0.00  0.00     0.103 A 
ATOM      4  C   UNL d   1      51.545  33.180  52.937  0.00  0.00     0.088 A 
ATOM      5  C   UNL d   1      50.826  33.230  52.587  0.00  0.00     0.040 A 
ATOM      6  C   UNL d   1      52.452  34.132  53.599  0.00  0.00     0.281 C 
ATOM      7  O   UNL d   1      53.029  33.529  53.758  0.00  0.00    -0.265 OA
ENDROOT
BRANCH   3   8
ATOM      8  C   UNL d   1      49.897  34.412  52.376  0.00  0.00     0.019 A 
ATOM      9  C   UNL d   1      49.650  34.310  51.584  0.00  0.00     0.004 A 
ATOM     10  C   UNL d   1      48.959  34.706  51.312  0.00  0.00     0.024 A 
ATOM     11  C   UNL d   1      48.527  35.191  51.821  0.00  0.00     0.094 A 
ATOM     12  C   UNL d   1      48.774  35.292  52.613  0.00  0.00     0.024 A 
ATOM     13  C   UNL d   1      49.465  34.895  52.883  0.00  0.00     0.004 A 
BRANCH  11  14
ATOM     14  O   UNL d   1      47.853  35.566  51.526  0.00  0.00    -0.328 OA
ATOM     15  C   UNL d   1      47.353  36.020  52.019  0.00  0.00     0.181 C 
ENDBRANCH  11  14
ENDBRANCH   3   8
BRANCH   4  16
ATOM     16  C   UNL d   1      51.982  32.456  52.999  0.00  0.00     0.018 A 
ATOM     17  C   UNL d   1      52.652  32.334  52.524  0.00  0.00     0.002 A 
ATOM     18  C   UNL d   1      53.077  31.631  52.584  0.00  0.00     0.007 A 
ATOM     19  C   UNL d   1      52.836  31.053  53.114  0.00  0.00     0.035 A 
ATOM     20  C   UNL d   1      52.166  31.176  53.589  0.00  0.00     0.007 A 
ATOM     21 BR   UNL d   1      53.261  30.350  53.174  0.00  0.00    -0.049 Br
ATOM     22  C   UNL d   1      51.733  31.877  53.537  0.00  0.00     0.002 A 
ENDBRANCH   4  16
BRANCH   6  23
ATOM     23  C   UNL d   1      52.608  34.897  53.843  0.00  0.00     0.069 C 
BRANCH  23  24
ATOM     24  C   UNL d   1      53.205  35.061  54.373  0.00  0.00     0.075 C 
BRANCH  24  25
ATOM     25  C   UNL d   1      53.203  35.743  54.822  0.00  0.00     0.211 C 
ATOM     26  O   UNL d   1      53.351  36.480  54.484  0.00  0.00    -0.644 OA
ATOM     27  O   UNL d   1      53.053  35.715  55.628  0.00  0.00    -0.644 OA
ENDBRANCH  24  25
ENDBRANCH  23  24
ENDBRANCH   6  23
TORSDOF 6
ENDMDL
