MODEL 1
REMARK VINA RESULT:      47.8      0.000      0.000
REMARK  3 active torsions:
REMARK  status: ('A' for Active; 'I' for Inactive)
REMARK    1  A    between atoms: C_5  and  N_1 
REMARK    2  A    between atoms: C_11  and  C_3 
REMARK    3  A    between atoms: C_7  and  C_5 
ROOT
ATOM      1  N   UNL d   1     -52.250  25.349  33.537  0.00  0.00    -0.286 N 
ATOM      2  N   UNL d   1     -51.454  26.431  33.404  0.00  0.00    -0.224 NA
ATOM      3  C   UNL d   1     -52.243  26.176  33.497  0.00  0.00     0.191 A 
ATOM      4  C   UNL d   1     -51.462  25.080  33.470  0.00  0.00     0.083 A 
ATOM      5  C   UNL d   1     -50.978  25.749  33.388  0.00  0.00     0.099 A 
ATOM      6  C   UNL d   1     -51.118  24.320  33.471  0.00  0.00     0.019 A 
ATOM      7  C   UNL d   1     -50.149  25.662  33.307  0.00  0.00     0.021 A 
ATOM      8  C   UNL d   1     -50.302  24.233  33.392  0.00  0.00     0.002 A 
ATOM      9  C   UNL d   1     -49.818  24.902  33.310  0.00  0.00     0.002 A 
ENDROOT
BRANCH   1  10
ATOM     10  C   UNL d   1     -52.998  25.016  33.630  0.00  0.00     0.082 C 
BRANCH  10  11
ATOM     11  C   UNL d   1     -53.144  24.495  34.246  0.00  0.00     0.018 A 
ATOM     12  C   UNL d   1     -53.380  23.728  34.089  0.00  0.00     0.001 A 
ATOM     13  C   UNL d   1     -53.526  23.205  34.706  0.00  0.00     0.000 A 
ATOM     14  C   UNL d   1     -53.471  23.484  33.306  0.00  0.00     0.000 C 
ATOM     15  C   UNL d   1     -53.434  23.452  35.487  0.00  0.00     0.000 A 
ATOM     16  C   UNL d   1     -53.196  24.225  35.647  0.00  0.00     0.000 A 
ATOM     17  C   UNL d   1     -53.050  24.745  35.026  0.00  0.00     0.002 A 
ATOM     18  C   UNL d   1     -53.102  24.476  36.429  0.00  0.00     0.000 C 
ENDBRANCH  10  11
ENDBRANCH   1  10
BRANCH   3  19
ATOM     19  C   UNL d   1     -52.574  26.926  33.494  0.00  0.00     0.271 C 
ATOM     20  O   UNL d   1     -52.105  27.585  33.335  0.00  0.00    -0.280 OA
ENDBRANCH   3  19
TORSDOF 3
ENDMDL
