MODEL 1
REMARK VINA RESULT:      13.1      0.000      0.000
REMARK  3 active torsions:
REMARK  status: ('A' for Active; 'I' for Inactive)
REMARK    1  A    between atoms: N_2  and  S_1 
REMARK    2  A    between atoms: N_3  and  S_1 
REMARK    3  A    between atoms: C_4  and  N_2 
ROOT
ATOM      1  S   UNL d   1      13.718  11.914  -2.380  0.00  0.00     0.351 S 
ATOM      2  O   UNL d   1      12.975  11.779  -2.054  0.00  0.00    -0.180 OA
ATOM      3  O   UNL d   1      14.464  12.049  -2.712  0.00  0.00    -0.180 OA
ENDROOT
BRANCH   1   4
ATOM      4  N   UNL d   1      13.464  11.869  -3.161  0.00  0.00    -0.144 NA
BRANCH   4   5
ATOM      5  C   UNL d   1      13.312  12.566  -3.597  0.00  0.00     0.095 A 
ATOM      6  C   UNL d   1      12.929  12.524  -4.338  0.00  0.00     0.018 A 
ATOM      7  C   UNL d   1      12.769  13.216  -4.763  0.00  0.00     0.002 A 
ATOM      8  C   UNL d   1      12.829  11.782  -4.700  0.00  0.00     0.002 C 
ATOM      9  C   UNL d   1      12.998  13.955  -4.451  0.00  0.00     0.000 A 
ATOM     10  C   UNL d   1      13.381  14.011  -3.709  0.00  0.00     0.002 A 
ATOM     11  C   UNL d   1      12.850  14.638  -4.890  0.00  0.00     0.000 C 
ATOM     12  C   UNL d   1      13.535  13.310  -3.282  0.00  0.00     0.020 A 
ENDBRANCH   4   5
ENDBRANCH   1   4
BRANCH   1  13
ATOM     13  N   UNL d   1      14.039  11.971  -1.623  0.00  0.00    -0.215 N 
ATOM     14  C   UNL d   1      14.840  11.787  -1.502  0.00  0.00     0.093 C 
ATOM     15  C   UNL d   1      15.154  11.845  -0.750  0.00  0.00     0.020 C 
ATOM     16  C   UNL d   1      14.667  11.974  -0.096  0.00  0.00     0.003 C 
ATOM     17  C   UNL d   1      13.854  12.046  -0.205  0.00  0.00     0.020 C 
ATOM     18  C   UNL d   1      13.528  11.989  -0.965  0.00  0.00     0.093 C 
ENDBRANCH   1  13
TORSDOF 3
ENDMDL
