MODEL 1
REMARK VINA RESULT:      -3.0      0.000      0.000
REMARK  3 active torsions:
REMARK  status: ('A' for Active; 'I' for Inactive)
REMARK    1  A    between atoms: C_7  and  C_1 
REMARK       I    between atoms: C_6  and  N_9 
REMARK       I    between atoms: N_8  and  C_6 
REMARK    2  A    between atoms: N_9  and  C_7 
REMARK    3  A    between atoms: C_11  and  N_8 
ROOT
ATOM      1  C   UNL d   1      58.193  -0.093  29.039  0.00  0.00     0.369 C 
ATOM      2  N   UNL d   1      58.514  -0.619  28.482  0.00  0.00    -0.191 NA
ATOM      3  N   UNL d   1      58.294  -0.228  29.843  0.00  0.00    -0.189 NA
ATOM      4  O   UNL d   1      57.770   0.570  28.784  0.00  0.00    -0.242 OA
ENDROOT
BRANCH   3   5
ATOM      5  C   UNL d   1      57.974   0.295  30.391  0.00  0.00     0.107 C 
BRANCH   5   6
ATOM      6  C   UNL d   1      57.649   0.003  31.102  0.00  0.00     0.058 A 
ATOM      7  C   UNL d   1      57.913   0.183  31.864  0.00  0.00     0.104 A 
ATOM      8  N   UNL d   1      57.435  -0.226  32.405  0.00  0.00    -0.165 NA
ATOM      9  C   UNL d   1      58.541   0.682  32.054  0.00  0.00     0.023 C 
ATOM     10  N   UNL d   1      56.877  -0.657  31.971  0.00  0.00    -0.225 N 
ATOM     11  C   UNL d   1      57.009  -0.517  31.170  0.00  0.00     0.104 A 
ATOM     12  C   UNL d   1      56.296  -1.140  32.286  0.00  0.00     0.121 C 
ENDBRANCH   5   6
ENDBRANCH   3   5
BRANCH   2  13
ATOM     13  C   UNL d   1      58.932  -1.272  28.745  0.00  0.00     0.086 A 
ATOM     14  C   UNL d   1      59.720  -1.201  28.977  0.00  0.00     0.020 A 
ATOM     15  C   UNL d   1      60.126  -1.873  29.239  0.00  0.00     0.013 A 
ATOM     16  C   UNL d   1      59.757  -2.602  29.271  0.00  0.00     0.058 A 
ATOM     17  C   UNL d   1      58.975  -2.662  29.039  0.00  0.00     0.013 A 
ATOM     18 CL   UNL d   1      60.165  -3.270  29.534  0.00  0.00    -0.082 Cl
ATOM     19  C   UNL d   1      58.555  -2.012  28.777  0.00  0.00     0.020 A 
ENDBRANCH   2  13
TORSDOF 3
ENDMDL
MODEL 2
REMARK VINA RESULT:      -2.8      2.221      3.746
REMARK  3 active torsions:
REMARK  status: ('A' for Active; 'I' for Inactive)
REMARK    1  A    between atoms: C_7  and  C_1 
REMARK       I    between atoms: C_6  and  N_9 
REMARK       I    between atoms: N_8  and  C_6 
REMARK    2  A    between atoms: N_9  and  C_7 
REMARK    3  A    between atoms: C_11  and  N_8 
ROOT
ATOM      1  C   UNL d   1      60.422   0.018  29.110  0.00  0.00     0.369 C 
ATOM      2  N   UNL d   1      60.044   0.682  29.435  0.00  0.00    -0.191 NA
ATOM      3  N   UNL d   1      60.101  -0.731  29.207  0.00  0.00    -0.189 NA
ATOM      4  O   UNL d   1      61.127   0.111  28.688  0.00  0.00    -0.242 OA
ENDROOT
BRANCH   3   5
ATOM      5  C   UNL d   1      60.480  -1.386  28.884  0.00  0.00     0.107 C 
BRANCH   5   6
ATOM      6  C   UNL d   1      60.106  -2.131  28.903  0.00  0.00     0.058 A 
ATOM      7  C   UNL d   1      60.391  -2.807  29.285  0.00  0.00     0.104 A 
ATOM      8  N   UNL d   1      59.848  -3.421  29.163  0.00  0.00    -0.165 NA
ATOM      9  C   UNL d   1      61.095  -2.860  29.712  0.00  0.00     0.023 C 
ATOM     10  N   UNL d   1      59.227  -3.120  28.705  0.00  0.00    -0.225 N 
ATOM     11  C   UNL d   1      59.385  -2.328  28.545  0.00  0.00     0.104 A 
ATOM     12  C   UNL d   1      58.571  -3.539  28.455  0.00  0.00     0.121 C 
ENDBRANCH   5   6
ENDBRANCH   3   5
BRANCH   2  13
ATOM     13  C   UNL d   1      59.347   0.580  29.851  0.00  0.00     0.086 A 
ATOM     14  C   UNL d   1      59.359   0.438  30.664  0.00  0.00     0.020 A 
ATOM     15  C   UNL d   1      58.644   0.337  31.067  0.00  0.00     0.013 A 
ATOM     16  C   UNL d   1      57.929   0.376  30.673  0.00  0.00     0.058 A 
ATOM     17  C   UNL d   1      57.926   0.517  29.867  0.00  0.00     0.013 A 
ATOM     18 CL   UNL d   1      57.217   0.275  31.079  0.00  0.00    -0.082 Cl
ATOM     19  C   UNL d   1      58.620   0.619  29.448  0.00  0.00     0.020 A 
ENDBRANCH   2  13
TORSDOF 3
ENDMDL
MODEL 3
REMARK VINA RESULT:      -2.1      1.590      3.478
REMARK  3 active torsions:
REMARK  status: ('A' for Active; 'I' for Inactive)
REMARK    1  A    between atoms: C_7  and  C_1 
REMARK       I    between atoms: C_6  and  N_9 
REMARK       I    between atoms: N_8  and  C_6 
REMARK    2  A    between atoms: N_9  and  C_7 
REMARK    3  A    between atoms: C_11  and  N_8 
ROOT
ATOM      1  C   UNL d   1      57.873   0.346  29.247  0.00  0.00     0.369 C 
ATOM      2  N   UNL d   1      57.363   0.678  29.812  0.00  0.00    -0.191 NA
ATOM      3  N   UNL d   1      58.413  -0.232  29.466  0.00  0.00    -0.189 NA
ATOM      4  O   UNL d   1      57.836   0.597  28.460  0.00  0.00    -0.242 OA
ENDROOT
BRANCH   3   5
ATOM      5  C   UNL d   1      58.917  -0.559  28.903  0.00  0.00     0.107 C 
BRANCH   5   6
ATOM      6  C   UNL d   1      59.256  -1.308  29.037  0.00  0.00     0.058 A 
ATOM      7  C   UNL d   1      60.049  -1.455  29.220  0.00  0.00     0.104 A 
ATOM      8  N   UNL d   1      60.147  -2.273  29.308  0.00  0.00    -0.165 NA
ATOM      9  C   UNL d   1      60.640  -0.885  29.302  0.00  0.00     0.023 C 
ATOM     10  N   UNL d   1      59.411  -2.629  29.178  0.00  0.00    -0.225 N 
ATOM     11  C   UNL d   1      58.863  -2.036  29.012  0.00  0.00     0.104 A 
ATOM     12  C   UNL d   1      59.255  -3.432  29.210  0.00  0.00     0.121 C 
ENDBRANCH   5   6
ENDBRANCH   3   5
BRANCH   2  13
ATOM     13  C   UNL d   1      57.406   0.423  30.588  0.00  0.00     0.086 A 
ATOM     14  C   UNL d   1      58.013   0.682  31.083  0.00  0.00     0.020 A 
ATOM     15  C   UNL d   1      58.041   0.413  31.864  0.00  0.00     0.013 A 
ATOM     16  C   UNL d   1      57.476  -0.105  32.151  0.00  0.00     0.058 A 
ATOM     17  C   UNL d   1      56.878  -0.356  31.654  0.00  0.00     0.013 A 
ATOM     18 CL   UNL d   1      57.507  -0.371  32.932  0.00  0.00    -0.082 Cl
ATOM     19  C   UNL d   1      56.831  -0.103  30.878  0.00  0.00     0.020 A 
ENDBRANCH   2  13
TORSDOF 3
ENDMDL
MODEL 4
REMARK VINA RESULT:      -1.7      1.418      2.126
REMARK  3 active torsions:
REMARK  status: ('A' for Active; 'I' for Inactive)
REMARK    1  A    between atoms: C_7  and  C_1 
REMARK       I    between atoms: C_6  and  N_9 
REMARK       I    between atoms: N_8  and  C_6 
REMARK    2  A    between atoms: N_9  and  C_7 
REMARK    3  A    between atoms: C_11  and  N_8 
ROOT
ATOM      1  C   UNL d   1      60.595  -0.797  29.237  0.00  0.00     0.369 C 
ATOM      2  N   UNL d   1      60.899  -1.562  29.127  0.00  0.00    -0.191 NA
ATOM      3  N   UNL d   1      59.786  -0.677  29.307  0.00  0.00    -0.189 NA
ATOM      4  O   UNL d   1      61.111  -0.151  29.277  0.00  0.00    -0.242 OA
ENDROOT
BRANCH   3   5
ATOM      5  C   UNL d   1      59.490   0.082  29.416  0.00  0.00     0.107 C 
BRANCH   5   6
ATOM      6  C   UNL d   1      58.748   0.189  29.781  0.00  0.00     0.058 A 
ATOM      7  C   UNL d   1      58.062   0.464  29.411  0.00  0.00     0.104 A 
ATOM      8  N   UNL d   1      57.454   0.485  29.975  0.00  0.00    -0.165 NA
ATOM      9  C   UNL d   1      57.994   0.682  28.618  0.00  0.00     0.023 C 
ATOM     10  N   UNL d   1      57.770   0.220  30.693  0.00  0.00    -0.225 N 
ATOM     11  C   UNL d   1      58.565   0.038  30.574  0.00  0.00     0.104 A 
ATOM     12  C   UNL d   1      57.362   0.152  31.399  0.00  0.00     0.121 C 
ENDBRANCH   5   6
ENDBRANCH   3   5
BRANCH   2  13
ATOM     13  C   UNL d   1      60.381  -2.194  29.089  0.00  0.00     0.086 A 
ATOM     14  C   UNL d   1      59.832  -2.252  28.476  0.00  0.00     0.020 A 
ATOM     15  C   UNL d   1      59.316  -2.899  28.455  0.00  0.00     0.013 A 
ATOM     16  C   UNL d   1      59.345  -3.479  29.031  0.00  0.00     0.058 A 
ATOM     17  C   UNL d   1      59.893  -3.413  29.635  0.00  0.00     0.013 A 
ATOM     18 CL   UNL d   1      58.829  -4.123  29.007  0.00  0.00    -0.082 Cl
ATOM     19  C   UNL d   1      60.411  -2.783  29.675  0.00  0.00     0.020 A 
ENDBRANCH   2  13
TORSDOF 3
ENDMDL
MODEL 5
REMARK VINA RESULT:      -1.6      8.461      9.274
REMARK  3 active torsions:
REMARK  status: ('A' for Active; 'I' for Inactive)
REMARK    1  A    between atoms: C_7  and  C_1 
REMARK       I    between atoms: C_6  and  N_9 
REMARK       I    between atoms: N_8  and  C_6 
REMARK    2  A    between atoms: N_9  and  C_7 
REMARK    3  A    between atoms: C_11  and  N_8 
ROOT
ATOM      1  C   UNL d   1      60.152  -9.286  35.577  0.00  0.00     0.369 C 
ATOM      2  N   UNL d   1      60.228  -9.818  34.945  0.00  0.00    -0.191 NA
ATOM      3  N   UNL d   1      59.640  -8.646  35.523  0.00  0.00    -0.189 NA
ATOM      4  O   UNL d   1      60.595  -9.400  36.267  0.00  0.00    -0.242 OA
ENDROOT
BRANCH   3   5
ATOM      5  C   UNL d   1      59.569  -8.121  36.153  0.00  0.00     0.107 C 
BRANCH   5   6
ATOM      6  C   UNL d   1      59.778  -7.321  36.050  0.00  0.00     0.058 A 
ATOM      7  C   UNL d   1      59.253  -6.697  35.916  0.00  0.00     0.104 A 
ATOM      8  N   UNL d   1      59.694  -5.998  35.846  0.00  0.00    -0.165 NA
ATOM      9  C   UNL d   1      58.432  -6.758  35.862  0.00  0.00     0.023 C 
ATOM     10  N   UNL d   1      60.493  -6.196  35.938  0.00  0.00    -0.225 N 
ATOM     11  C   UNL d   1      60.545  -7.009  36.063  0.00  0.00     0.104 A 
ATOM     12  C   UNL d   1      61.122  -5.674  35.909  0.00  0.00     0.121 C 
ENDBRANCH   5   6
ENDBRANCH   3   5
BRANCH   2  13
ATOM     13  C   UNL d   1      59.786  -9.697  34.267  0.00  0.00     0.086 A 
ATOM     14  C   UNL d   1      58.970  -9.818  34.270  0.00  0.00     0.020 A 
ATOM     15  C   UNL d   1      58.539  -9.690  33.575  0.00  0.00     0.013 A 
ATOM     16  C   UNL d   1      58.911  -9.447  32.889  0.00  0.00     0.058 A 
ATOM     17  C   UNL d   1      59.720  -9.329  32.895  0.00  0.00     0.013 A 
ATOM     18 CL   UNL d   1      58.478  -9.320  32.197  0.00  0.00    -0.082 Cl
ATOM     19  C   UNL d   1      60.165  -9.449  33.570  0.00  0.00     0.020 A 
ENDBRANCH   2  13
TORSDOF 3
ENDMDL
MODEL 6
REMARK VINA RESULT:      -0.7      1.372      1.967
REMARK  3 active torsions:
REMARK  status: ('A' for Active; 'I' for Inactive)
REMARK    1  A    between atoms: C_7  and  C_1 
REMARK       I    between atoms: C_6  and  N_9 
REMARK       I    between atoms: N_8  and  C_6 
REMARK    2  A    between atoms: N_9  and  C_7 
REMARK    3  A    between atoms: C_11  and  N_8 
ROOT
ATOM      1  C   UNL d   1      57.231   0.365  29.960  0.00  0.00     0.369 C 
ATOM      2  N   UNL d   1      57.836   0.303  29.395  0.00  0.00    -0.191 NA
ATOM      3  N   UNL d   1      57.385   0.218  30.752  0.00  0.00    -0.189 NA
ATOM      4  O   UNL d   1      56.467   0.577  29.723  0.00  0.00    -0.242 OA
ENDROOT
BRANCH   3   5
ATOM      5  C   UNL d   1      56.783   0.282  31.308  0.00  0.00     0.107 C 
BRANCH   5   6
ATOM      6  C   UNL d   1      56.943   0.129  32.112  0.00  0.00     0.058 A 
ATOM      7  C   UNL d   1      56.734  -0.555  32.527  0.00  0.00     0.104 A 
ATOM      8  N   UNL d   1      57.000  -0.475  33.308  0.00  0.00    -0.165 NA
ATOM      9  C   UNL d   1      56.330  -1.204  32.217  0.00  0.00     0.023 C 
ATOM     10  N   UNL d   1      57.374   0.261  33.371  0.00  0.00    -0.225 N 
ATOM     11  C   UNL d   1      57.340   0.633  32.637  0.00  0.00     0.104 A 
ATOM     12  C   UNL d   1      57.719   0.565  34.048  0.00  0.00     0.121 C 
ENDBRANCH   5   6
ENDBRANCH   3   5
BRANCH   2  13
ATOM     13  C   UNL d   1      58.588   0.093  29.639  0.00  0.00     0.086 A 
ATOM     14  C   UNL d   1      59.117   0.664  29.913  0.00  0.00     0.020 A 
ATOM     15  C   UNL d   1      59.873   0.432  30.155  0.00  0.00     0.013 A 
ATOM     16  C   UNL d   1      60.102  -0.352  30.126  0.00  0.00     0.058 A 
ATOM     17  C   UNL d   1      59.572  -0.912  29.853  0.00  0.00     0.013 A 
ATOM     18 CL   UNL d   1      60.858  -0.580  30.369  0.00  0.00    -0.082 Cl
ATOM     19  C   UNL d   1      58.820  -0.706  29.609  0.00  0.00     0.020 A 
ENDBRANCH   2  13
TORSDOF 3
ENDMDL
