MODEL 1
REMARK VINA RESULT:      -4.0      0.000      0.000
REMARK  7 active torsions:
REMARK  status: ('A' for Active; 'I' for Inactive)
REMARK    1  A    between atoms: C_2  and  N_1 
REMARK    2  A    between atoms: C_4  and  C_2 
REMARK    3  A    between atoms: O_3  and  C_9 
REMARK    4  A    between atoms: C_7  and  O_3 
REMARK    5  A    between atoms: C_9  and  C_4 
REMARK    6  A    between atoms: C_10  and  C_12 
REMARK    7  A    between atoms: C_17  and  C_10 
ROOT
ATOM      1  N   UNL d   1      32.617  18.011 -23.753  0.00  0.00    -0.300 N 
ATOM      2  C   UNL d   1      32.734  17.236 -23.621  0.00  0.00     0.080 A 
ATOM      3  C   UNL d   1      31.925  18.279 -24.161  0.00  0.00     0.080 A 
ATOM      4  C   UNL d   1      31.508  16.919 -24.276  0.00  0.00     0.003 A 
ATOM      5  C   UNL d   1      32.178  16.681 -23.883  0.00  0.00     0.019 A 
ATOM      6  C   UNL d   1      31.375  17.720 -24.419  0.00  0.00     0.019 A 
ENDROOT
BRANCH   1   7
ATOM      7  C   UNL d   1      33.209  18.550 -23.469  0.00  0.00     0.125 C 
BRANCH   7   8
ATOM      8  C   UNL d   1      33.198  18.826 -22.663  0.00  0.00     0.238 C 
ATOM      9  O   UNL d   1      33.241  18.293 -22.037  0.00  0.00    -0.283 OA
BRANCH   8  10
ATOM     10  C   UNL d   1      33.142  19.636 -22.522  0.00  0.00     0.166 C 
BRANCH  10  11
ATOM     11  O   UNL d   1      32.950  19.919 -21.774  0.00  0.00    -0.302 OA
BRANCH  11  12
ATOM     12  C   UNL d   1      32.827  20.744 -21.665  0.00  0.00     0.100 A 
ATOM     13  C   UNL d   1      32.432  21.029 -20.968  0.00  0.00     0.026 A 
ATOM     14  C   UNL d   1      32.310  21.838 -20.857  0.00  0.00     0.013 A 
ATOM     15  C   UNL d   1      32.569  22.374 -21.420  0.00  0.00     0.058 A 
ATOM     16  C   UNL d   1      32.957  22.111 -22.106  0.00  0.00     0.013 A 
ATOM     17 CL   UNL d   1      32.442  23.209 -21.304  0.00  0.00    -0.082 Cl
ATOM     18  C   UNL d   1      33.082  21.305 -22.221  0.00  0.00     0.026 A 
ENDBRANCH  11  12
ENDBRANCH  10  11
ENDBRANCH   8  10
ENDBRANCH   7   8
ENDBRANCH   1   7
BRANCH   4  19
ATOM     19  C   UNL d   1      30.931  16.317 -24.546  0.00  0.00     0.000 C 
BRANCH  19  20
ATOM     20  C   UNL d   1      30.290  16.112 -24.054  0.00  0.00     0.000 A 
ATOM     21  C   UNL d   1      30.399  15.653 -23.392  0.00  0.00     0.000 A 
ATOM     22  C   UNL d   1      29.750  15.453 -22.905  0.00  0.00     0.000 A 
ATOM     23  C   UNL d   1      29.003  15.729 -23.108  0.00  0.00     0.000 A 
ATOM     24  C   UNL d   1      28.893  16.188 -23.770  0.00  0.00     0.000 A 
ATOM     25  C   UNL d   1      29.528  16.385 -24.247  0.00  0.00     0.000 A 
ENDBRANCH  19  20
ENDBRANCH   4  19
TORSDOF 7
ENDMDL
MODEL 2
REMARK VINA RESULT:      -1.9      2.048      5.507
REMARK  7 active torsions:
REMARK  status: ('A' for Active; 'I' for Inactive)
REMARK    1  A    between atoms: C_2  and  N_1 
REMARK    2  A    between atoms: C_4  and  C_2 
REMARK    3  A    between atoms: O_3  and  C_9 
REMARK    4  A    between atoms: C_7  and  O_3 
REMARK    5  A    between atoms: C_9  and  C_4 
REMARK    6  A    between atoms: C_10  and  C_12 
REMARK    7  A    between atoms: C_17  and  C_10 
ROOT
ATOM      1  N   UNL d   1      32.829  18.941 -23.362  0.00  0.00    -0.300 N 
ATOM      2  C   UNL d   1      32.960  18.598 -22.658  0.00  0.00     0.080 A 
ATOM      3  C   UNL d   1      32.826  19.785 -23.437  0.00  0.00     0.080 A 
ATOM      4  C   UNL d   1      33.096  19.875 -22.038  0.00  0.00     0.003 A 
ATOM      5  C   UNL d   1      33.095  19.063 -21.986  0.00  0.00     0.019 A 
ATOM      6  C   UNL d   1      32.962  20.243 -22.764  0.00  0.00     0.019 A 
ENDROOT
BRANCH   1   7
ATOM      7  C   UNL d   1      32.694  18.431 -24.028  0.00  0.00     0.125 C 
BRANCH   7   8
ATOM      8  C   UNL d   1      32.487  17.611 -23.914  0.00  0.00     0.238 C 
ATOM      9  O   UNL d   1      33.072  17.038 -23.838  0.00  0.00    -0.283 OA
BRANCH   8  10
ATOM     10  C   UNL d   1      31.690  17.406 -23.883  0.00  0.00     0.166 C 
BRANCH  10  11
ATOM     11  O   UNL d   1      31.460  16.616 -23.908  0.00  0.00    -0.302 OA
BRANCH  11  12
ATOM     12  C   UNL d   1      30.640  16.426 -23.914  0.00  0.00     0.100 A 
ATOM     13  C   UNL d   1      30.097  16.893 -24.371  0.00  0.00     0.026 A 
ATOM     14  C   UNL d   1      29.291  16.710 -24.381  0.00  0.00     0.013 A 
ATOM     15  C   UNL d   1      29.010  16.074 -23.947  0.00  0.00     0.058 A 
ATOM     16  C   UNL d   1      29.529  15.608 -23.495  0.00  0.00     0.013 A 
ATOM     17 CL   UNL d   1      28.179  15.886 -23.957  0.00  0.00    -0.082 Cl
ATOM     18  C   UNL d   1      30.333  15.787 -23.483  0.00  0.00     0.026 A 
ENDBRANCH  11  12
ENDBRANCH  10  11
ENDBRANCH   8  10
ENDBRANCH   7   8
ENDBRANCH   1   7
BRANCH   4  19
ATOM     19  C   UNL d   1      33.241  20.352 -21.317  0.00  0.00     0.000 C 
BRANCH  19  20
ATOM     20  C   UNL d   1      32.865  21.091 -21.231  0.00  0.00     0.000 A 
ATOM     21  C   UNL d   1      32.146  21.155 -20.856  0.00  0.00     0.000 A 
ATOM     22  C   UNL d   1      31.778  21.901 -20.774  0.00  0.00     0.000 A 
ATOM     23  C   UNL d   1      32.156  22.564 -21.079  0.00  0.00     0.000 A 
ATOM     24  C   UNL d   1      32.874  22.500 -21.454  0.00  0.00     0.000 A 
ATOM     25  C   UNL d   1      33.236  21.771 -21.534  0.00  0.00     0.000 A 
ENDBRANCH  19  20
ENDBRANCH   4  19
TORSDOF 7
ENDMDL
MODEL 3
REMARK VINA RESULT:      -1.4      2.532      6.499
REMARK  7 active torsions:
REMARK  status: ('A' for Active; 'I' for Inactive)
REMARK    1  A    between atoms: C_2  and  N_1 
REMARK    2  A    between atoms: C_4  and  C_2 
REMARK    3  A    between atoms: O_3  and  C_9 
REMARK    4  A    between atoms: C_7  and  O_3 
REMARK    5  A    between atoms: C_9  and  C_4 
REMARK    6  A    between atoms: C_10  and  C_12 
REMARK    7  A    between atoms: C_17  and  C_10 
ROOT
ATOM      1  N   UNL d   1      33.018  21.879 -21.338  0.00  0.00    -0.300 N 
ATOM      2  C   UNL d   1      33.241  22.626 -21.489  0.00  0.00     0.080 A 
ATOM      3  C   UNL d   1      32.622  21.683 -20.615  0.00  0.00     0.080 A 
ATOM      4  C   UNL d   1      32.709  23.056 -20.237  0.00  0.00     0.003 A 
ATOM      5  C   UNL d   1      33.088  23.225 -20.937  0.00  0.00     0.019 A 
ATOM      6  C   UNL d   1      32.473  22.284 -20.070  0.00  0.00     0.019 A 
ENDROOT
BRANCH   1   7
ATOM      7  C   UNL d   1      33.192  21.292 -21.928  0.00  0.00     0.125 C 
BRANCH   7   8
ATOM      8  C   UNL d   1      33.170  20.461 -21.737  0.00  0.00     0.238 C 
ATOM      9  O   UNL d   1      33.139  20.212 -20.954  0.00  0.00    -0.283 OA
BRANCH   8  10
ATOM     10  C   UNL d   1      33.180  19.914 -22.352  0.00  0.00     0.166 C 
BRANCH  10  11
ATOM     11  O   UNL d   1      33.004  19.123 -22.211  0.00  0.00    -0.302 OA
BRANCH  11  12
ATOM     12  C   UNL d   1      32.922  18.597 -22.863  0.00  0.00     0.100 A 
ATOM     13  C   UNL d   1      32.857  17.759 -22.731  0.00  0.00     0.026 A 
ATOM     14  C   UNL d   1      32.776  17.239 -23.367  0.00  0.00     0.013 A 
ATOM     15  C   UNL d   1      32.757  17.529 -24.133  0.00  0.00     0.058 A 
ATOM     16  C   UNL d   1      32.819  18.345 -24.279  0.00  0.00     0.013 A 
ATOM     17 CL   UNL d   1      32.673  16.991 -24.790  0.00  0.00    -0.082 Cl
ATOM     18  C   UNL d   1      32.901  18.867 -23.647  0.00  0.00     0.026 A 
ENDBRANCH  11  12
ENDBRANCH  10  11
ENDBRANCH   8  10
ENDBRANCH   7   8
ENDBRANCH   1   7
BRANCH   4  19
ATOM     19  C   UNL d   1      32.556  23.702 -19.665  0.00  0.00     0.000 C 
BRANCH  19  20
ATOM     20  C   UNL d   1      32.557  23.537 -18.848  0.00  0.00     0.000 A 
ATOM     21  C   UNL d   1      33.228  23.269 -18.475  0.00  0.00     0.000 A 
ATOM     22  C   UNL d   1      33.219  23.106 -17.655  0.00  0.00     0.000 A 
ATOM     23  C   UNL d   1      32.521  23.222 -17.236  0.00  0.00     0.000 A 
ATOM     24  C   UNL d   1      31.850  23.491 -17.609  0.00  0.00     0.000 A 
ATOM     25  C   UNL d   1      31.858  23.650 -18.411  0.00  0.00     0.000 A 
ENDBRANCH  19  20
ENDBRANCH   4  19
TORSDOF 7
ENDMDL
