MODEL 1
REMARK VINA RESULT:      25.4      0.000      0.000
REMARK  5 active torsions:
REMARK  status: ('A' for Active; 'I' for Inactive)
REMARK    1  A    between atoms: C_7  and  N_2 
REMARK    2  A    between atoms: C_15  and  C_7 
REMARK    3  A    between atoms: C_8  and  O_14 
REMARK    4  A    between atoms: O_17  and  C_9 
REMARK    5  A    between atoms: O_14  and  C_15 
ROOT
ATOM      1  C   UNL d   1      13.024  12.195  -3.605  0.00  0.00     0.110 C 
ENDROOT
BRANCH   1   2
ATOM      2  N   UNL d   1      13.164  12.710  -4.237  0.00  0.00    -0.266 N 
ATOM      3  C   UNL d   1      13.419  12.534  -5.008  0.00  0.00     0.296 A 
ATOM      4  S   UNL d   1      13.474  13.248  -5.430  0.00  0.00    -0.025 SA
ATOM      5  O   UNL d   1      13.585  11.779  -5.298  0.00  0.00    -0.259 OA
ATOM      6  C   UNL d   1      13.254  13.861  -4.916  0.00  0.00     0.050 A 
ATOM      7  C   UNL d   1      13.201  14.688  -5.020  0.00  0.00     0.008 A 
ATOM      8  C   UNL d   1      13.064  13.533  -4.184  0.00  0.00     0.074 A 
ATOM      9  C   UNL d   1      12.961  15.169  -4.397  0.00  0.00     0.001 A 
ATOM     10  C   UNL d   1      12.772  14.837  -3.667  0.00  0.00     0.002 A 
ATOM     11  C   UNL d   1      12.822  14.023  -3.559  0.00  0.00     0.018 A 
ENDBRANCH   1   2
BRANCH   1  12
ATOM     12  C   UNL d   1      13.643  11.955  -3.122  0.00  0.00     0.142 C 
BRANCH  12  13
ATOM     13  O   UNL d   1      13.503  11.782  -2.317  0.00  0.00    -0.304 OA
BRANCH  13  14
ATOM     14  C   UNL d   1      13.984  12.122  -1.735  0.00  0.00     0.100 A 
ATOM     15  C   UNL d   1      13.667  12.335  -1.017  0.00  0.00     0.027 A 
ATOM     16  C   UNL d   1      14.147  12.676  -0.436  0.00  0.00     0.026 A 
ATOM     17  C   UNL d   1      14.950  12.797  -0.590  0.00  0.00     0.094 A 
ATOM     18  C   UNL d   1      15.260  12.576  -1.326  0.00  0.00     0.026 A 
ATOM     19  C   UNL d   1      14.776  12.240  -1.894  0.00  0.00     0.027 A 
BRANCH  17  20
ATOM     20  O   UNL d   1      15.431  13.134  -0.018  0.00  0.00    -0.328 OA
ATOM     21  C   UNL d   1      15.783  13.869  -0.153  0.00  0.00     0.181 C 
ENDBRANCH  17  20
ENDBRANCH  13  14
ENDBRANCH  12  13
ENDBRANCH   1  12
TORSDOF 5
ENDMDL
MODEL 2
REMARK VINA RESULT:      26.4      1.676      4.211
REMARK  5 active torsions:
REMARK  status: ('A' for Active; 'I' for Inactive)
REMARK    1  A    between atoms: C_7  and  N_2 
REMARK    2  A    between atoms: C_15  and  C_7 
REMARK    3  A    between atoms: C_8  and  O_14 
REMARK    4  A    between atoms: O_17  and  C_9 
REMARK    5  A    between atoms: O_14  and  C_15 
ROOT
ATOM      1  C   UNL d   1      14.137  11.949  -2.031  0.00  0.00     0.110 C 
ENDROOT
BRANCH   1   2
ATOM      2  N   UNL d   1      14.239  12.310  -1.293  0.00  0.00    -0.266 N 
ATOM      3  C   UNL d   1      13.771  12.243  -0.609  0.00  0.00     0.296 A 
ATOM      4  S   UNL d   1      14.111  12.717  -0.017  0.00  0.00    -0.025 SA
ATOM      5  O   UNL d   1      13.089  11.783  -0.537  0.00  0.00    -0.259 OA
ATOM      6  C   UNL d   1      14.787  13.075  -0.338  0.00  0.00     0.050 A 
ATOM      7  C   UNL d   1      15.348  13.603  -0.017  0.00  0.00     0.008 A 
ATOM      8  C   UNL d   1      14.866  12.826  -1.121  0.00  0.00     0.074 A 
ATOM      9  C   UNL d   1      15.975  13.871  -0.478  0.00  0.00     0.001 A 
ATOM     10  C   UNL d   1      16.051  13.620  -1.260  0.00  0.00     0.002 A 
ATOM     11  C   UNL d   1      15.500  13.100  -1.582  0.00  0.00     0.018 A 
ENDBRANCH   1   2
BRANCH   1  12
ATOM     12  C   UNL d   1      13.422  12.017  -2.428  0.00  0.00     0.142 C 
BRANCH  12  13
ATOM     13  O   UNL d   1      13.366  11.788  -3.229  0.00  0.00    -0.304 OA
BRANCH  13  14
ATOM     14  C   UNL d   1      13.253  12.364  -3.813  0.00  0.00     0.100 A 
ATOM     15  C   UNL d   1      13.508  12.229  -4.573  0.00  0.00     0.027 A 
ATOM     16  C   UNL d   1      13.396  12.804  -5.158  0.00  0.00     0.026 A 
ATOM     17  C   UNL d   1      13.024  13.516  -4.962  0.00  0.00     0.094 A 
ATOM     18  C   UNL d   1      12.769  13.640  -4.183  0.00  0.00     0.026 A 
ATOM     19  C   UNL d   1      12.885  13.064  -3.614  0.00  0.00     0.027 A 
BRANCH  17  20
ATOM     20  O   UNL d   1      12.910  14.091  -5.536  0.00  0.00    -0.328 OA
ATOM     21  C   UNL d   1      12.802  14.879  -5.317  0.00  0.00     0.181 C 
ENDBRANCH  17  20
ENDBRANCH  13  14
ENDBRANCH  12  13
ENDBRANCH   1  12
TORSDOF 5
ENDMDL
