MODEL 1
REMARK VINA RESULT:      -7.7      0.000      0.000
REMARK  3 active torsions:
REMARK  status: ('A' for Active; 'I' for Inactive)
REMARK    1  A    between atoms: C_6  and  N_1 
REMARK    2  A    between atoms: C_5  and  C_9 
REMARK    3  A    between atoms: C_14  and  C_6 
ROOT
ATOM      1  C   UNL d   1     -47.014  12.872  22.917  0.00  0.00     0.064 A 
ATOM      2  C   UNL d   1     -47.266  12.137  23.196  0.00  0.00     0.006 A 
ATOM      3  C   UNL d   1     -47.486  13.298  22.395  0.00  0.00     0.006 A 
ATOM      4  C   UNL d   1     -48.465  12.256  22.429  0.00  0.00     0.018 A 
ATOM      5  C   UNL d   1     -47.989  11.829  22.953  0.00  0.00     0.002 A 
ATOM      6  C   UNL d   1     -48.214  12.991  22.150  0.00  0.00     0.002 A 
ENDROOT
BRANCH   4   7
ATOM      7  C   UNL d   1     -49.190  11.948  22.186  0.00  0.00     0.084 C 
BRANCH   7   8
ATOM      8  N   UNL d   1     -49.878  12.133  22.601  0.00  0.00    -0.259 N 
ATOM      9  C   UNL d   1     -50.425  12.721  22.393  0.00  0.00     0.153 A 
ATOM     10  S   UNL d   1     -51.021  12.714  22.956  0.00  0.00    -0.053 SA
ATOM     11  S   UNL d   1     -50.373  13.219  21.736  0.00  0.00    -0.052 SA
ATOM     12  C   UNL d   1     -50.844  12.127  23.508  0.00  0.00     0.099 A 
ATOM     13  C   UNL d   1     -50.139  11.769  23.289  0.00  0.00     0.272 A 
ATOM     14  O   UNL d   1     -49.756  11.152  23.686  0.00  0.00    -0.266 OA
ENDBRANCH   7   8
ENDBRANCH   4   7
BRANCH   1  15
ATOM     15  C   UNL d   1     -46.283  13.178  23.165  0.00  0.00     0.211 C 
ATOM     16  O   UNL d   1     -45.587  12.773  22.999  0.00  0.00    -0.644 OA
ATOM     17  O   UNL d   1     -46.258  13.892  23.578  0.00  0.00    -0.644 OA
ENDBRANCH   1  15
TORSDOF 3
ENDMDL
MODEL 2
REMARK VINA RESULT:      -7.3      2.451      3.197
REMARK  3 active torsions:
REMARK  status: ('A' for Active; 'I' for Inactive)
REMARK    1  A    between atoms: C_6  and  N_1 
REMARK    2  A    between atoms: C_5  and  C_9 
REMARK    3  A    between atoms: C_14  and  C_6 
ROOT
ATOM      1  C   UNL d   1     -49.571  14.748  22.725  0.00  0.00     0.064 A 
ATOM      2  C   UNL d   1     -49.882  14.050  22.414  0.00  0.00     0.006 A 
ATOM      3  C   UNL d   1     -48.761  14.819  22.850  0.00  0.00     0.006 A 
ATOM      4  C   UNL d   1     -48.568  13.491  22.355  0.00  0.00     0.018 A 
ATOM      5  C   UNL d   1     -49.383  13.422  22.230  0.00  0.00     0.002 A 
ATOM      6  C   UNL d   1     -48.257  14.190  22.666  0.00  0.00     0.002 A 
ENDROOT
BRANCH   4   7
ATOM      7  C   UNL d   1     -48.068  12.863  22.171  0.00  0.00     0.084 C 
BRANCH   7   8
ATOM      8  N   UNL d   1     -47.797  12.361  22.766  0.00  0.00    -0.259 N 
ATOM      9  C   UNL d   1     -47.060  12.412  23.144  0.00  0.00     0.153 A 
ATOM     10  S   UNL d   1     -47.024  11.807  23.696  0.00  0.00    -0.053 SA
ATOM     11  S   UNL d   1     -46.474  12.973  22.987  0.00  0.00    -0.052 SA
ATOM     12  C   UNL d   1     -47.731  11.385  23.661  0.00  0.00     0.099 A 
ATOM     13  C   UNL d   1     -48.208  11.727  23.087  0.00  0.00     0.272 A 
ATOM     14  O   UNL d   1     -48.968  11.482  22.868  0.00  0.00    -0.266 OA
ENDBRANCH   7   8
ENDBRANCH   4   7
BRANCH   1  15
ATOM     15  C   UNL d   1     -50.079  15.378  22.909  0.00  0.00     0.211 C 
ATOM     16  O   UNL d   1     -49.956  15.823  23.591  0.00  0.00    -0.644 OA
ATOM     17  O   UNL d   1     -50.708  15.558  22.407  0.00  0.00    -0.644 OA
ENDBRANCH   1  15
TORSDOF 3
ENDMDL
MODEL 3
REMARK VINA RESULT:      -6.4      2.096      3.620
REMARK  3 active torsions:
REMARK  status: ('A' for Active; 'I' for Inactive)
REMARK    1  A    between atoms: C_6  and  N_1 
REMARK    2  A    between atoms: C_5  and  C_9 
REMARK    3  A    between atoms: C_14  and  C_6 
ROOT
ATOM      1  C   UNL d   1     -49.688  12.132  22.979  0.00  0.00     0.064 A 
ATOM      2  C   UNL d   1     -48.931  11.909  23.221  0.00  0.00     0.006 A 
ATOM      3  C   UNL d   1     -49.782  12.680  22.373  0.00  0.00     0.006 A 
ATOM      4  C   UNL d   1     -48.362  12.788  22.248  0.00  0.00     0.018 A 
ATOM      5  C   UNL d   1     -48.269  12.236  22.857  0.00  0.00     0.002 A 
ATOM      6  C   UNL d   1     -49.119  13.010  22.006  0.00  0.00     0.002 A 
ENDROOT
BRANCH   4   7
ATOM      7  C   UNL d   1     -47.699  13.115  21.883  0.00  0.00     0.084 C 
BRANCH   7   8
ATOM      8  N   UNL d   1     -47.192  13.605  22.311  0.00  0.00    -0.259 N 
ATOM      9  C   UNL d   1     -46.441  13.394  22.594  0.00  0.00     0.153 A 
ATOM     10  S   UNL d   1     -46.134  14.046  22.985  0.00  0.00    -0.053 SA
ATOM     11  S   UNL d   1     -46.076  12.660  22.497  0.00  0.00    -0.052 SA
ATOM     12  C   UNL d   1     -46.689  14.655  22.944  0.00  0.00     0.099 A 
ATOM     13  C   UNL d   1     -47.341  14.382  22.528  0.00  0.00     0.272 A 
ATOM     14  O   UNL d   1     -48.029  14.810  22.355  0.00  0.00    -0.266 OA
ENDBRANCH   7   8
ENDBRANCH   4   7
BRANCH   1  15
ATOM     15  C   UNL d   1     -50.353  11.800  23.349  0.00  0.00     0.211 C 
ATOM     16  O   UNL d   1     -51.064  12.212  23.368  0.00  0.00    -0.644 OA
ATOM     17  O   UNL d   1     -50.297  11.054  23.698  0.00  0.00    -0.644 OA
ENDBRANCH   1  15
TORSDOF 3
ENDMDL
MODEL 4
REMARK VINA RESULT:      -5.6      9.280     10.259
REMARK  3 active torsions:
REMARK  status: ('A' for Active; 'I' for Inactive)
REMARK    1  A    between atoms: C_6  and  N_1 
REMARK    2  A    between atoms: C_5  and  C_9 
REMARK    3  A    between atoms: C_14  and  C_6 
ROOT
ATOM      1  C   UNL d   1     -40.638  15.344  20.019  0.00  0.00     0.064 A 
ATOM      2  C   UNL d   1     -40.562  15.901  19.416  0.00  0.00     0.006 A 
ATOM      3  C   UNL d   1     -40.662  14.541  19.838  0.00  0.00     0.006 A 
ATOM      4  C   UNL d   1     -40.534  14.850  18.448  0.00  0.00     0.018 A 
ATOM      5  C   UNL d   1     -40.510  15.657  18.632  0.00  0.00     0.002 A 
ATOM      6  C   UNL d   1     -40.610  14.293  19.051  0.00  0.00     0.002 A 
ENDROOT
BRANCH   4   7
ATOM      7  C   UNL d   1     -40.483  14.605  17.663  0.00  0.00     0.084 C 
BRANCH   7   8
ATOM      8  N   UNL d   1     -39.744  14.487  17.314  0.00  0.00    -0.259 N 
ATOM      9  C   UNL d   1     -39.347  15.032  16.830  0.00  0.00     0.153 A 
ATOM     10  S   UNL d   1     -38.637  14.689  16.606  0.00  0.00    -0.053 SA
ATOM     11  S   UNL d   1     -39.623  15.780  16.616  0.00  0.00    -0.052 SA
ATOM     12  C   UNL d   1     -38.594  13.940  16.949  0.00  0.00     0.099 A 
ATOM     13  C   UNL d   1     -39.278  13.816  17.386  0.00  0.00     0.272 A 
ATOM     14  O   UNL d   1     -39.468  13.138  17.822  0.00  0.00    -0.266 OA
ENDBRANCH   7   8
ENDBRANCH   4   7
BRANCH   1  15
ATOM     15  C   UNL d   1     -40.689  15.595  20.809  0.00  0.00     0.211 C 
ATOM     16  O   UNL d   1     -41.419  15.791  21.134  0.00  0.00    -0.644 OA
ATOM     17  O   UNL d   1     -40.005  15.648  21.267  0.00  0.00    -0.644 OA
ENDBRANCH   1  15
TORSDOF 3
ENDMDL
MODEL 5
REMARK VINA RESULT:      -5.5      9.424     10.135
REMARK  3 active torsions:
REMARK  status: ('A' for Active; 'I' for Inactive)
REMARK    1  A    between atoms: C_6  and  N_1 
REMARK    2  A    between atoms: C_5  and  C_9 
REMARK    3  A    between atoms: C_14  and  C_6 
ROOT
ATOM      1  C   UNL d   1     -40.715  15.227  17.739  0.00  0.00     0.064 A 
ATOM      2  C   UNL d   1     -40.759  15.799  18.332  0.00  0.00     0.006 A 
ATOM      3  C   UNL d   1     -40.542  14.447  17.932  0.00  0.00     0.006 A 
ATOM      4  C   UNL d   1     -40.458  14.805  19.313  0.00  0.00     0.018 A 
ATOM      5  C   UNL d   1     -40.631  15.590  19.118  0.00  0.00     0.002 A 
ATOM      6  C   UNL d   1     -40.413  14.233  18.720  0.00  0.00     0.002 A 
ENDROOT
BRANCH   4   7
ATOM      7  C   UNL d   1     -40.329  14.595  20.099  0.00  0.00     0.084 C 
BRANCH   7   8
ATOM      8  N   UNL d   1     -39.636  14.827  20.481  0.00  0.00    -0.259 N 
ATOM      9  C   UNL d   1     -39.572  15.441  21.036  0.00  0.00     0.153 A 
ATOM     10  S   UNL d   1     -38.788  15.479  21.272  0.00  0.00    -0.053 SA
ATOM     11  S   UNL d   1     -40.190  15.922  21.299  0.00  0.00    -0.052 SA
ATOM     12  C   UNL d   1     -38.370  14.895  20.867  0.00  0.00     0.099 A 
ATOM     13  C   UNL d   1     -38.894  14.493  20.380  0.00  0.00     0.272 A 
ATOM     14  O   UNL d   1     -38.711  13.863  19.874  0.00  0.00    -0.266 OA
ENDBRANCH   7   8
ENDBRANCH   4   7
BRANCH   1  15
ATOM     15  C   UNL d   1     -40.845  15.443  16.948  0.00  0.00     0.211 C 
ATOM     16  O   UNL d   1     -41.550  15.243  16.574  0.00  0.00    -0.644 OA
ATOM     17  O   UNL d   1     -40.264  15.861  16.537  0.00  0.00    -0.644 OA
ENDBRANCH   1  15
TORSDOF 3
ENDMDL
