MODEL 1
REMARK VINA RESULT:      -5.9      0.000      0.000
REMARK  7 active torsions:
REMARK  status: ('A' for Active; 'I' for Inactive)
REMARK    1  A    between atoms: N_3  and  C_2 
REMARK       I    between atoms: C_6  and  N_3 
REMARK    2  A    between atoms: C_11  and  C_4 
REMARK    3  A    between atoms: C_5  and  C_6 
REMARK    4  A    between atoms: C_15  and  C_11 
REMARK    5  A    between atoms: C_18  and  C_12 
REMARK    6  A    between atoms: O_17  and  C_18 
REMARK    7  A    between atoms: C_19  and  O_17 
ROOT
ATOM      1  C   UNL d   1     -44.289  12.842  21.807  0.00  0.00     0.158 A 
ATOM      2  O   UNL d   1     -43.851  13.392  21.378  0.00  0.00    -0.300 OA
ATOM      3  C   UNL d   1     -43.787  12.223  22.015  0.00  0.00     0.032 A 
ATOM      4  C   UNL d   1     -43.074  13.117  21.317  0.00  0.00     0.125 A 
ATOM      5  C   UNL d   1     -43.037  12.393  21.712  0.00  0.00     0.029 A 
ENDROOT
BRANCH   1   6
ATOM      6  C   UNL d   1     -45.094  12.899  21.997  0.00  0.00     0.304 C 
ATOM      7  N   UNL d   1     -45.333  12.870  22.788  0.00  0.00    -0.180 NA
ATOM      8  O   UNL d   1     -45.653  12.984  21.396  0.00  0.00    -0.263 OA
BRANCH   7   9
ATOM      9  C   UNL d   1     -46.130  12.926  22.978  0.00  0.00     0.216 A 
ATOM     10  N   UNL d   1     -46.632  12.292  23.206  0.00  0.00    -0.200 NA
ATOM     11  C   UNL d   1     -47.367  12.596  23.341  0.00  0.00     0.175 A 
ATOM     12  N   UNL d   1     -47.346  13.409  23.205  0.00  0.00    -0.187 NA
ATOM     13  S   UNL d   1     -46.581  13.612  22.981  0.00  0.00     0.054 SA
BRANCH  11  14
ATOM     14  C   UNL d   1     -48.034  12.173  23.577  0.00  0.00     0.082 C 
BRANCH  14  15
ATOM     15  C   UNL d   1     -48.479  11.767  23.005  0.00  0.00     0.199 C 
ATOM     16  O   UNL d   1     -48.243  11.024  22.744  0.00  0.00    -0.286 OA
ATOM     17  C   UNL d   1     -49.166  12.114  22.696  0.00  0.00     0.045 C 
ENDBRANCH  14  15
ENDBRANCH  11  14
ENDBRANCH   7   9
ENDBRANCH   1   6
BRANCH   4  18
ATOM     18  C   UNL d   1     -42.460  13.498  20.933  0.00  0.00     0.147 C 
BRANCH  18  19
ATOM     19  O   UNL d   1     -41.994  14.045  21.350  0.00  0.00    -0.303 OA
BRANCH  19  20
ATOM     20  C   UNL d   1     -41.441  14.506  20.949  0.00  0.00     0.100 A 
ATOM     21  C   UNL d   1     -41.500  15.328  20.978  0.00  0.00     0.025 A 
ATOM     22  C   UNL d   1     -40.951  15.788  20.580  0.00  0.00     0.002 A 
ATOM     23  C   UNL d   1     -40.336  15.426  20.147  0.00  0.00     0.000 A 
ATOM     24  C   UNL d   1     -40.284  14.603  20.123  0.00  0.00     0.002 A 
ATOM     25  C   UNL d   1     -39.784  15.895  19.746  0.00  0.00     0.000 C 
ATOM     26  C   UNL d   1     -40.836  14.143  20.524  0.00  0.00     0.025 A 
ENDBRANCH  19  20
ENDBRANCH  18  19
ENDBRANCH   4  18
TORSDOF 7
ENDMDL
MODEL 2
REMARK VINA RESULT:      -5.2      2.336      6.391
REMARK  7 active torsions:
REMARK  status: ('A' for Active; 'I' for Inactive)
REMARK    1  A    between atoms: N_3  and  C_2 
REMARK       I    between atoms: C_6  and  N_3 
REMARK    2  A    between atoms: C_11  and  C_4 
REMARK    3  A    between atoms: C_5  and  C_6 
REMARK    4  A    between atoms: C_15  and  C_11 
REMARK    5  A    between atoms: C_18  and  C_12 
REMARK    6  A    between atoms: O_17  and  C_18 
REMARK    7  A    between atoms: C_19  and  O_17 
ROOT
ATOM      1  C   UNL d   1     -43.109  13.033  21.410  0.00  0.00     0.158 A 
ATOM      2  O   UNL d   1     -43.872  13.340  21.408  0.00  0.00    -0.300 OA
ATOM      3  C   UNL d   1     -43.122  12.321  21.823  0.00  0.00     0.032 A 
ATOM      4  C   UNL d   1     -44.365  12.821  21.821  0.00  0.00     0.125 A 
ATOM      5  C   UNL d   1     -43.898  12.190  22.077  0.00  0.00     0.029 A 
ENDROOT
BRANCH   1   6
ATOM      6  C   UNL d   1     -42.442  13.376  21.058  0.00  0.00     0.304 C 
ATOM      7  N   UNL d   1     -42.044  13.991  21.441  0.00  0.00    -0.180 NA
ATOM      8  O   UNL d   1     -42.177  13.103  20.326  0.00  0.00    -0.263 OA
BRANCH   7   9
ATOM      9  C   UNL d   1     -41.383  14.333  21.094  0.00  0.00     0.216 A 
ATOM     10  N   UNL d   1     -41.358  15.072  20.695  0.00  0.00    -0.200 NA
ATOM     11  C   UNL d   1     -40.601  15.190  20.443  0.00  0.00     0.175 A 
ATOM     12  N   UNL d   1     -40.142  14.543  20.671  0.00  0.00    -0.187 NA
ATOM     13  S   UNL d   1     -40.627  14.015  21.074  0.00  0.00     0.054 SA
BRANCH  11  14
ATOM     14  C   UNL d   1     -40.322  15.843  20.025  0.00  0.00     0.082 C 
BRANCH  14  15
ATOM     15  C   UNL d   1     -40.273  15.806  19.197  0.00  0.00     0.199 C 
ATOM     16  O   UNL d   1     -40.948  15.892  18.736  0.00  0.00    -0.286 OA
ATOM     17  C   UNL d   1     -39.538  15.679  18.834  0.00  0.00     0.045 C 
ENDBRANCH  14  15
ENDBRANCH  11  14
ENDBRANCH   7   9
ENDBRANCH   1   6
BRANCH   4  18
ATOM     18  C   UNL d   1     -45.167  12.920  21.949  0.00  0.00     0.147 C 
BRANCH  18  19
ATOM     19  O   UNL d   1     -45.428  13.294  22.643  0.00  0.00    -0.303 OA
BRANCH  19  20
ATOM     20  C   UNL d   1     -46.225  13.476  22.738  0.00  0.00     0.100 A 
ATOM     21  C   UNL d   1     -46.756  12.882  22.952  0.00  0.00     0.025 A 
ATOM     22  C   UNL d   1     -47.550  13.063  23.047  0.00  0.00     0.002 A 
ATOM     23  C   UNL d   1     -47.819  13.843  22.928  0.00  0.00     0.000 A 
ATOM     24  C   UNL d   1     -47.282  14.432  22.715  0.00  0.00     0.002 A 
ATOM     25  C   UNL d   1     -48.622  14.021  23.026  0.00  0.00     0.000 C 
ATOM     26  C   UNL d   1     -46.485  14.249  22.620  0.00  0.00     0.025 A 
ENDBRANCH  19  20
ENDBRANCH  18  19
ENDBRANCH   4  18
TORSDOF 7
ENDMDL
MODEL 3
REMARK VINA RESULT:      -5.1      2.147      6.409
REMARK  7 active torsions:
REMARK  status: ('A' for Active; 'I' for Inactive)
REMARK    1  A    between atoms: N_3  and  C_2 
REMARK       I    between atoms: C_6  and  N_3 
REMARK    2  A    between atoms: C_11  and  C_4 
REMARK    3  A    between atoms: C_5  and  C_6 
REMARK    4  A    between atoms: C_15  and  C_11 
REMARK    5  A    between atoms: C_18  and  C_12 
REMARK    6  A    between atoms: O_17  and  C_18 
REMARK    7  A    between atoms: C_19  and  O_17 
ROOT
ATOM      1  C   UNL d   1     -45.472  12.889  22.593  0.00  0.00     0.158 A 
ATOM      2  O   UNL d   1     -45.914  13.582  22.559  0.00  0.00    -0.300 OA
ATOM      3  C   UNL d   1     -45.926  12.316  22.972  0.00  0.00     0.032 A 
ATOM      4  C   UNL d   1     -46.645  13.444  22.917  0.00  0.00     0.125 A 
ATOM      5  C   UNL d   1     -46.651  12.659  23.173  0.00  0.00     0.029 A 
ENDROOT
BRANCH   1   6
ATOM      6  C   UNL d   1     -44.704  12.782  22.299  0.00  0.00     0.304 C 
ATOM      7  N   UNL d   1     -44.381  13.340  21.782  0.00  0.00    -0.180 NA
ATOM      8  O   UNL d   1     -44.267  12.120  22.523  0.00  0.00    -0.263 OA
BRANCH   7   9
ATOM      9  C   UNL d   1     -43.620  13.236  21.489  0.00  0.00     0.216 A 
ATOM     10  N   UNL d   1     -42.955  13.724  21.648  0.00  0.00    -0.200 NA
ATOM     11  C   UNL d   1     -42.325  13.419  21.248  0.00  0.00     0.175 A 
ATOM     12  N   UNL d   1     -42.571  12.748  20.838  0.00  0.00    -0.187 NA
ATOM     13  S   UNL d   1     -43.372  12.635  20.987  0.00  0.00     0.054 SA
BRANCH  11  14
ATOM     14  C   UNL d   1     -41.558  13.721  21.244  0.00  0.00     0.082 C 
BRANCH  14  15
ATOM     15  C   UNL d   1     -41.358  14.314  20.697  0.00  0.00     0.199 C 
ATOM     16  O   UNL d   1     -41.250  14.129  19.903  0.00  0.00    -0.286 OA
ATOM     17  C   UNL d   1     -41.266  15.097  20.955  0.00  0.00     0.045 C 
ENDBRANCH  14  15
ENDBRANCH  11  14
ENDBRANCH   7   9
ENDBRANCH   1   6
BRANCH   4  18
ATOM     18  C   UNL d   1     -47.249  13.990  23.001  0.00  0.00     0.147 C 
BRANCH  18  19
ATOM     19  O   UNL d   1     -47.988  13.840  22.652  0.00  0.00    -0.303 OA
BRANCH  19  20
ATOM     20  C   UNL d   1     -48.633  14.320  22.829  0.00  0.00     0.100 A 
ATOM     21  C   UNL d   1     -49.277  14.003  23.235  0.00  0.00     0.025 A 
ATOM     22  C   UNL d   1     -49.920  14.479  23.412  0.00  0.00     0.002 A 
ATOM     23  C   UNL d   1     -49.923  15.281  23.183  0.00  0.00     0.000 A 
ATOM     24  C   UNL d   1     -49.275  15.591  22.777  0.00  0.00     0.002 A 
ATOM     25  C   UNL d   1     -50.574  15.759  23.364  0.00  0.00     0.000 C 
ATOM     26  C   UNL d   1     -48.630  15.112  22.600  0.00  0.00     0.025 A 
ENDBRANCH  19  20
ENDBRANCH  18  19
ENDBRANCH   4  18
TORSDOF 7
ENDMDL
MODEL 4
REMARK VINA RESULT:      -4.9      2.034      3.077
REMARK  7 active torsions:
REMARK  status: ('A' for Active; 'I' for Inactive)
REMARK    1  A    between atoms: N_3  and  C_2 
REMARK       I    between atoms: C_6  and  N_3 
REMARK    2  A    between atoms: C_11  and  C_4 
REMARK    3  A    between atoms: C_5  and  C_6 
REMARK    4  A    between atoms: C_15  and  C_11 
REMARK    5  A    between atoms: C_18  and  C_12 
REMARK    6  A    between atoms: O_17  and  C_18 
REMARK    7  A    between atoms: C_19  and  O_17 
ROOT
ATOM      1  C   UNL d   1     -42.029  13.674  20.760  0.00  0.00     0.158 A 
ATOM      2  O   UNL d   1     -41.777  13.757  19.982  0.00  0.00    -0.300 OA
ATOM      3  C   UNL d   1     -41.490  14.064  21.246  0.00  0.00     0.032 A 
ATOM      4  C   UNL d   1     -41.079  14.199  19.978  0.00  0.00     0.125 A 
ATOM      5  C   UNL d   1     -40.903  14.388  20.763  0.00  0.00     0.029 A 
ENDROOT
BRANCH   1   6
ATOM      6  C   UNL d   1     -42.707  13.270  21.015  0.00  0.00     0.304 C 
ATOM      7  N   UNL d   1     -43.196  13.607  21.589  0.00  0.00    -0.180 NA
ATOM      8  O   UNL d   1     -42.891  12.533  20.693  0.00  0.00    -0.263 OA
BRANCH   7   9
ATOM      9  C   UNL d   1     -43.868  13.209  21.843  0.00  0.00     0.216 A 
ATOM     10  N   UNL d   1     -44.647  13.521  21.878  0.00  0.00    -0.200 NA
ATOM     11  C   UNL d   1     -45.132  12.940  22.158  0.00  0.00     0.175 A 
ATOM     12  N   UNL d   1     -44.681  12.265  22.303  0.00  0.00    -0.187 NA
ATOM     13  S   UNL d   1     -43.900  12.432  22.107  0.00  0.00     0.054 SA
BRANCH  11  14
ATOM     14  C   UNL d   1     -45.945  13.002  22.283  0.00  0.00     0.082 C 
BRANCH  14  15
ATOM     15  C   UNL d   1     -46.222  13.356  22.981  0.00  0.00     0.199 C 
ATOM     16  O   UNL d   1     -46.177  12.956  23.698  0.00  0.00    -0.286 OA
ATOM     17  C   UNL d   1     -46.547  14.119  22.954  0.00  0.00     0.045 C 
ENDBRANCH  14  15
ENDBRANCH  11  14
ENDBRANCH   7   9
ENDBRANCH   1   6
BRANCH   4  18
ATOM     18  C   UNL d   1     -40.646  14.408  19.316  0.00  0.00     0.147 C 
BRANCH  18  19
ATOM     19  O   UNL d   1     -40.575  13.870  18.687  0.00  0.00    -0.303 OA
BRANCH  19  20
ATOM     20  C   UNL d   1     -40.094  14.049  18.043  0.00  0.00     0.100 A 
ATOM     21  C   UNL d   1     -39.444  13.569  17.875  0.00  0.00     0.025 A 
ATOM     22  C   UNL d   1     -38.965  13.746  17.235  0.00  0.00     0.002 A 
ATOM     23  C   UNL d   1     -39.132  14.408  16.756  0.00  0.00     0.000 A 
ATOM     24  C   UNL d   1     -39.784  14.883  16.930  0.00  0.00     0.002 A 
ATOM     25  C   UNL d   1     -38.644  14.583  16.110  0.00  0.00     0.000 C 
ATOM     26  C   UNL d   1     -40.265  14.704  17.574  0.00  0.00     0.025 A 
ENDBRANCH  19  20
ENDBRANCH  18  19
ENDBRANCH   4  18
TORSDOF 7
ENDMDL
