MODEL 1
REMARK VINA RESULT:      21.3      0.000      0.000
REMARK  3 active torsions:
REMARK  status: ('A' for Active; 'I' for Inactive)
REMARK    1  A    between atoms: C_7  and  C_1 
REMARK    2  A    between atoms: O_14  and  C_7 
REMARK    3  A    between atoms: C_17  and  O_14 
ROOT
ATOM      1  C   UNL d   1      23.939  12.692  -3.580  0.00  0.00     0.127 A 
ATOM      2  C   UNL d   1      24.491  12.087  -3.580  0.00  0.00     0.305 A 
ATOM      3  C   UNL d   1      23.663  12.992  -2.863  0.00  0.00     0.013 A 
ATOM      4  C   UNL d   1      23.937  12.689  -2.148  0.00  0.00     0.023 A 
ATOM      5  O   UNL d   1      24.766  11.783  -2.865  0.00  0.00    -0.273 OA
ATOM      6  C   UNL d   1      24.490  12.084  -2.148  0.00  0.00     0.103 A 
ATOM      7  C   UNL d   1      23.661  12.989  -1.447  0.00  0.00     0.002 A 
ATOM      8  O   UNL d   1      24.768  11.786  -4.315  0.00  0.00    -0.259 OA
ATOM      9  C   UNL d   1      24.764  11.780  -1.449  0.00  0.00     0.025 A 
ATOM     10  C   UNL d   1      23.936  12.686  -0.732  0.00  0.00     0.000 A 
ATOM     11  C   UNL d   1      24.488  12.081  -0.732  0.00  0.00     0.002 A 
ATOM     12  C   UNL d   1      23.103  13.601  -1.447  0.00  0.00     0.000 A 
ATOM     13  C   UNL d   1      23.659  12.986  -0.015  0.00  0.00     0.000 A 
ATOM     14  C   UNL d   1      22.817  13.911  -0.744  0.00  0.00     0.000 A 
ATOM     15  C   UNL d   1      23.098  13.601  -0.015  0.00  0.00     0.000 A 
ENDROOT
BRANCH   1  16
ATOM     16  C   UNL d   1      23.649  13.011  -4.313  0.00  0.00     0.305 C 
ATOM     17  O   UNL d   1      22.846  13.034  -4.467  0.00  0.00    -0.259 OA
BRANCH  16  18
ATOM     18  O   UNL d   1      24.179  13.294  -4.858  0.00  0.00    -0.271 OA
BRANCH  18  19
ATOM     19  C   UNL d   1      24.049  13.164  -5.662  0.00  0.00     0.126 C 
ATOM     20  C   UNL d   1      24.680  13.273  -6.269  0.00  0.00     0.029 C 
ENDBRANCH  18  19
ENDBRANCH  16  18
ENDBRANCH   1  16
TORSDOF 3
ENDMDL
MODEL 2
REMARK VINA RESULT:      21.9      9.334     10.543
REMARK  3 active torsions:
REMARK  status: ('A' for Active; 'I' for Inactive)
REMARK    1  A    between atoms: C_7  and  C_1 
REMARK    2  A    between atoms: O_14  and  C_7 
REMARK    3  A    between atoms: C_17  and  O_14 
ROOT
ATOM      1  C   UNL d   1      14.362  13.006  -1.530  0.00  0.00     0.127 A 
ATOM      2  C   UNL d   1      14.402  12.188  -1.548  0.00  0.00     0.305 A 
ATOM      3  C   UNL d   1      14.040  13.414  -2.169  0.00  0.00     0.013 A 
ATOM      4  C   UNL d   1      13.757  13.005  -2.827  0.00  0.00     0.023 A 
ATOM      5  O   UNL d   1      14.119  11.779  -2.206  0.00  0.00    -0.273 OA
ATOM      6  C   UNL d   1      13.796  12.188  -2.846  0.00  0.00     0.103 A 
ATOM      7  C   UNL d   1      13.441  13.414  -3.453  0.00  0.00     0.002 A 
ATOM      8  O   UNL d   1      14.732  11.780  -0.892  0.00  0.00    -0.259 OA
ATOM      9  C   UNL d   1      13.520  11.779  -3.489  0.00  0.00     0.025 A 
ATOM     10  C   UNL d   1      13.158  13.005  -4.111  0.00  0.00     0.000 A 
ATOM     11  C   UNL d   1      13.198  12.187  -4.129  0.00  0.00     0.002 A 
ATOM     12  C   UNL d   1      13.401  14.241  -3.434  0.00  0.00     0.000 A 
ATOM     13  C   UNL d   1      12.836  13.413  -4.750  0.00  0.00     0.000 A 
ATOM     14  C   UNL d   1      13.083  14.662  -4.062  0.00  0.00     0.000 A 
ATOM     15  C   UNL d   1      12.796  14.244  -4.732  0.00  0.00     0.000 A 
ENDROOT
BRANCH   1  16
ATOM     16  C   UNL d   1      14.651  13.436  -0.855  0.00  0.00     0.305 C 
ATOM     17  O   UNL d   1      14.399  13.244  -0.101  0.00  0.00    -0.259 OA
BRANCH  16  18
ATOM     18  O   UNL d   1      15.180  14.040  -0.968  0.00  0.00    -0.271 OA
BRANCH  18  19
ATOM     19  C   UNL d   1      15.524  14.412  -0.317  0.00  0.00     0.126 C 
ATOM     20  C   UNL d   1      15.706  15.275  -0.306  0.00  0.00     0.029 C 
ENDBRANCH  18  19
ENDBRANCH  16  18
ENDBRANCH   1  16
TORSDOF 3
ENDMDL
