MODEL 1
REMARK VINA RESULT:      -5.7      0.000      0.000
REMARK  2 active torsions:
REMARK  status: ('A' for Active; 'I' for Inactive)
REMARK    1  A    between atoms: C_2  and  S_1 
REMARK    2  A    between atoms: C_7  and  C_3 
ROOT
ATOM      1  C   UNL d   1     -41.707-122.534 -53.940  0.00  0.00     0.117 A 
ATOM      2  C   UNL d   1     -41.586-122.381 -52.518  0.00  0.00     0.076 A 
ATOM      3  C   UNL d   1     -41.781-122.072 -53.260  0.00  0.00     0.021 A 
ATOM      4  C   UNL d   1     -41.439-123.310 -53.884  0.00  0.00     0.071 A 
ATOM      5  C   UNL d   1     -41.318-123.158 -52.462  0.00  0.00     0.065 A 
ATOM      6  C   UNL d   1     -41.244-123.624 -53.148  0.00  0.00     0.024 A 
ATOM      7 CL   UNL d   1     -41.123-123.471 -51.726  0.00  0.00    -0.082 Cl
ATOM      8 CL   UNL d   1     -41.366-123.772 -54.563  0.00  0.00    -0.082 Cl
ENDROOT
BRANCH   1   9
ATOM      9  S   UNL d   1     -41.904-122.217 -54.678  0.00  0.00     0.303 S 
ATOM     10  O   UNL d   1     -41.125-121.994 -54.796  0.00  0.00    -0.197 OA
ATOM     11  O   UNL d   1     -42.701-122.441 -54.568  0.00  0.00    -0.197 OA
ATOM     12  N   UNL d   1     -42.110-121.903 -55.414  0.00  0.00    -0.043 N 
ENDBRANCH   1   9
BRANCH   2  13
ATOM     13  C   UNL d   1     -41.661-121.916 -51.841  0.00  0.00     0.212 C 
ATOM     14  O   UNL d   1     -41.123-121.311 -51.691  0.00  0.00    -0.644 OA
ATOM     15  O   UNL d   1     -42.280-122.060 -51.312  0.00  0.00    -0.644 OA
ENDBRANCH   2  13
TORSDOF 2
ENDMDL
MODEL 2
REMARK VINA RESULT:      -5.2      1.388      2.665
REMARK  2 active torsions:
REMARK  status: ('A' for Active; 'I' for Inactive)
REMARK    1  A    between atoms: C_2  and  S_1 
REMARK    2  A    between atoms: C_7  and  C_3 
ROOT
ATOM      1  C   UNL d   1     -41.651-122.420 -52.736  0.00  0.00     0.117 A 
ATOM      2  C   UNL d   1     -41.831-122.367 -54.159  0.00  0.00     0.076 A 
ATOM      3  C   UNL d   1     -41.886-122.012 -53.414  0.00  0.00     0.021 A 
ATOM      4  C   UNL d   1     -41.358-123.187 -52.797  0.00  0.00     0.071 A 
ATOM      5  C   UNL d   1     -41.538-123.135 -54.220  0.00  0.00     0.065 A 
ATOM      6  C   UNL d   1     -41.301-123.546 -53.536  0.00  0.00     0.024 A 
ATOM      7 CL   UNL d   1     -41.481-123.493 -54.959  0.00  0.00    -0.082 Cl
ATOM      8 CL   UNL d   1     -41.123-123.595 -52.120  0.00  0.00    -0.082 Cl
ENDROOT
BRANCH   1   9
ATOM      9  S   UNL d   1     -41.709-122.058 -51.995  0.00  0.00     0.303 S 
ATOM     10  O   UNL d   1     -42.285-122.595 -51.772  0.00  0.00    -0.197 OA
ATOM     11  O   UNL d   1     -41.123-121.506 -52.213  0.00  0.00    -0.197 OA
ATOM     12  N   UNL d   1     -41.761-121.690 -51.257  0.00  0.00    -0.043 N 
ENDBRANCH   1   9
BRANCH   2  13
ATOM     13  C   UNL d   1     -42.068-121.956 -54.834  0.00  0.00     0.212 C 
ATOM     14  O   UNL d   1     -41.512-121.569 -55.301  0.00  0.00    -0.644 OA
ATOM     15  O   UNL d   1     -42.868-121.934 -55.040  0.00  0.00    -0.644 OA
ENDBRANCH   2  13
TORSDOF 2
ENDMDL
MODEL 3
REMARK VINA RESULT:      -3.4      1.156      1.345
REMARK  2 active torsions:
REMARK  status: ('A' for Active; 'I' for Inactive)
REMARK    1  A    between atoms: C_2  and  S_1 
REMARK    2  A    between atoms: C_7  and  C_3 
ROOT
ATOM      1  C   UNL d   1     -41.659-122.670 -52.650  0.00  0.00     0.117 A 
ATOM      2  C   UNL d   1     -41.786-122.672 -51.220  0.00  0.00     0.076 A 
ATOM      3  C   UNL d   1     -41.879-122.293 -51.949  0.00  0.00     0.021 A 
ATOM      4  C   UNL d   1     -41.344-123.430 -52.628  0.00  0.00     0.071 A 
ATOM      5  C   UNL d   1     -41.471-123.433 -51.198  0.00  0.00     0.065 A 
ATOM      6  C   UNL d   1     -41.249-123.814 -51.905  0.00  0.00     0.024 A 
ATOM      7 CL   UNL d   1     -41.376-123.816 -50.476  0.00  0.00    -0.082 Cl
ATOM      8 CL   UNL d   1     -41.124-123.807 -53.328  0.00  0.00    -0.082 Cl
ENDROOT
BRANCH   1   9
ATOM      9  S   UNL d   1     -41.755-122.283 -53.375  0.00  0.00     0.303 S 
ATOM     10  O   UNL d   1     -41.138-121.777 -53.193  0.00  0.00    -0.197 OA
ATOM     11  O   UNL d   1     -42.386-122.794 -53.569  0.00  0.00    -0.197 OA
ATOM     12  N   UNL d   1     -41.859-121.903 -54.101  0.00  0.00    -0.043 N 
ENDBRANCH   1   9
BRANCH   2  13
ATOM     13  C   UNL d   1     -42.007-122.292 -50.522  0.00  0.00     0.212 C 
ATOM     14  O   UNL d   1     -41.515-121.728 -50.183  0.00  0.00    -0.644 OA
ATOM     15  O   UNL d   1     -42.728-122.482 -50.164  0.00  0.00    -0.644 OA
ENDBRANCH   2  13
TORSDOF 2
ENDMDL
