MODEL 1
REMARK VINA RESULT:      29.1      0.000      0.000
REMARK  0 active torsions:
REMARK  status: ('A' for Active; 'I' for Inactive)
ROOT
ATOM      1  N   UNL d   1      14.090  13.639  -2.529  0.00  0.00    -0.176 N 
ATOM      2  C   UNL d   1      14.077  12.870  -2.232  0.00  0.00     0.167 A 
ATOM      3  N   UNL d   1      14.402  14.236  -2.098  0.00  0.00    -0.150 NA
ATOM      4  C   UNL d   1      13.768  13.786  -3.295  0.00  0.00     0.283 A 
ATOM      5  N   UNL d   1      13.742  12.252  -2.703  0.00  0.00    -0.227 NA
ATOM      6  C   UNL d   1      14.721  14.088  -1.337  0.00  0.00     0.159 A 
ATOM      7  C   UNL d   1      13.441  13.178  -3.754  0.00  0.00     0.076 A 
ATOM      8  C   UNL d   1      14.375  12.703  -1.507  0.00  0.00     0.038 A 
ATOM      9  C   UNL d   1      13.428  12.408  -3.457  0.00  0.00     0.088 A 
ATOM     10  C   UNL d   1      14.708  13.318  -1.040  0.00  0.00     0.033 A 
ATOM     11  O   UNL d   1      13.781  14.561  -3.594  0.00  0.00    -0.265 OA
ATOM     12 CL   UNL d   1      15.035  14.687  -0.903  0.00  0.00    -0.060 Cl
ATOM     13  C   UNL d   1      13.132  13.333  -4.495  0.00  0.00     0.006 A 
ATOM     14  C   UNL d   1      14.362  11.933  -1.210  0.00  0.00     0.003 A 
ATOM     15  C   UNL d   1      15.009  13.153  -0.311  0.00  0.00     0.003 A 
ATOM     16  C   UNL d   1      13.106  11.800  -3.904  0.00  0.00     0.019 A 
ATOM     17  C   UNL d   1      12.808  12.727  -4.949  0.00  0.00     0.000 A 
ATOM     18  C   UNL d   1      14.681  11.779  -0.447  0.00  0.00     0.000 A 
ATOM     19  C   UNL d   1      14.995  12.383  -0.014  0.00  0.00     0.000 A 
ATOM     20  C   UNL d   1      12.795  11.958  -4.653  0.00  0.00     0.002 A 
ENDROOT
TORSDOF 0
ENDMDL
