MODEL 1
REMARK VINA RESULT:      49.0      0.000      0.000
REMARK  8 active torsions:
REMARK  status: ('A' for Active; 'I' for Inactive)
REMARK    1  A    between atoms: N_4  and  C_1 
REMARK    2  A    between atoms: C_2  and  O_12 
REMARK    3  A    between atoms: C_8  and  C_2 
REMARK       I    between atoms: C_10  and  N_4 
REMARK    4  A    between atoms: O_12  and  C_5 
REMARK    5  A    between atoms: S_20  and  C_6 
REMARK    6  A    between atoms: C_14  and  C_10 
REMARK    7  A    between atoms: C_16  and  C_26 
REMARK    8  A    between atoms: C_26  and  S_20 
ROOT
ATOM      1  C   UNL d   1      14.459  12.705  -1.070  0.00  0.00     0.167 A 
ATOM      2  C   UNL d   1      13.909  12.104  -0.961  0.00  0.00     0.222 A 
ATOM      3  C   UNL d   1      13.527  11.798  -1.632  0.00  0.00     0.069 A 
ATOM      4  C   UNL d   1      14.627  12.998  -1.821  0.00  0.00     0.151 A 
ATOM      5  C   UNL d   1      13.696  12.091  -2.383  0.00  0.00     0.110 A 
ATOM      6  O   UNL d   1      14.248  12.693  -2.472  0.00  0.00    -0.302 OA
ATOM      7  O   UNL d   1      13.743  11.814  -0.217  0.00  0.00    -0.284 OA
ENDROOT
BRANCH   5   8
ATOM      8  C   UNL d   1      13.312  11.782  -3.041  0.00  0.00     0.062 C 
BRANCH   8   9
ATOM      9  S   UNL d   1      13.150  12.271  -3.685  0.00  0.00    -0.057 SA
BRANCH   9  10
ATOM     10  C   UNL d   1      13.260  13.107  -4.112  0.00  0.00     0.166 A 
ATOM     11  S   UNL d   1      13.647  13.511  -4.717  0.00  0.00    -0.006 SA
ATOM     12  C   UNL d   1      13.401  14.300  -4.701  0.00  0.00     0.269 A 
ATOM     13  N   UNL d   1      12.858  14.380  -4.080  0.00  0.00    -0.107 NA
ATOM     14  N   UNL d   1      12.771  13.645  -3.717  0.00  0.00    -0.132 NA
BRANCH  12  15
ATOM     15  N   UNL d   1      13.487  15.034  -5.063  0.00  0.00    -0.337 NA
ATOM     16  C   UNL d   1      13.574  15.770  -5.426  0.00  0.00     0.330 C 
ATOM     17  O   UNL d   1      12.847  15.661  -5.801  0.00  0.00    -0.251 OA
BRANCH  16  18
ATOM     18  C   UNL d   1      14.148  16.365  -5.418  0.00  0.00     0.070 A 
ATOM     19  C   UNL d   1      14.662  16.851  -4.994  0.00  0.00     0.006 A 
ATOM     20  C   UNL d   1      14.625  16.907  -5.831  0.00  0.00     0.006 A 
ENDBRANCH  16  18
ENDBRANCH  12  15
ENDBRANCH   9  10
ENDBRANCH   8   9
ENDBRANCH   5   8
BRANCH   1  21
ATOM     21  O   UNL d   1      14.848  13.019  -0.407  0.00  0.00    -0.268 OA
BRANCH  21  22
ATOM     22  C   UNL d   1      14.710  13.804  -0.183  0.00  0.00     0.305 C 
ATOM     23  O   UNL d   1      13.945  14.061  -0.014  0.00  0.00    -0.259 OA
BRANCH  22  24
ATOM     24  C   UNL d   1      15.350  14.339  -0.127  0.00  0.00     0.118 A 
ATOM     25  C   UNL d   1      16.134  14.064  -0.117  0.00  0.00     0.147 A 
ATOM     26  F   UNL d   1      16.282  13.242  -0.163  0.00  0.00    -0.204 F 
ATOM     27  C   UNL d   1      16.765  14.576  -0.062  0.00  0.00     0.030 A 
ATOM     28  C   UNL d   1      16.620  15.386  -0.016  0.00  0.00     0.005 A 
ATOM     29  C   UNL d   1      15.843  15.688  -0.024  0.00  0.00     0.030 A 
ATOM     30  C   UNL d   1      15.205  15.150  -0.080  0.00  0.00     0.147 A 
ATOM     31  F   UNL d   1      14.419  15.429  -0.090  0.00  0.00    -0.204 F 
ENDBRANCH  22  24
ENDBRANCH  21  22
ENDBRANCH   1  21
TORSDOF 8
ENDMDL
