MODEL 1
REMARK VINA RESULT:       4.9      0.000      0.000
REMARK  2 active torsions:
REMARK  status: ('A' for Active; 'I' for Inactive)
REMARK    1  A    between atoms: C_6  and  C_1 
REMARK    2  A    between atoms: O_12  and  C_9 
ROOT
ATOM      1  C   UNL d   1      46.596 -19.193  41.833  0.00  0.00     0.123 A 
ATOM      2  C   UNL d   1      46.544 -18.423  42.124  0.00  0.00     0.305 A 
ATOM      3  O   UNL d   1      46.526 -18.292  42.921  0.00  0.00    -0.271 OA
ATOM      4  C   UNL d   1      46.627 -19.812  42.348  0.00  0.00     0.012 A 
ATOM      5  C   UNL d   1      46.558 -18.930  43.472  0.00  0.00     0.125 A 
ATOM      6  C   UNL d   1      46.610 -19.701  43.181  0.00  0.00     0.025 A 
ATOM      7  O   UNL d   1      46.513 -17.799  41.612  0.00  0.00    -0.259 OA
ATOM      8  C   UNL d   1      46.540 -18.808  44.290  0.00  0.00     0.117 A 
ATOM      9  C   UNL d   1      46.641 -20.328  43.716  0.00  0.00     0.002 A 
ATOM     10  C   UNL d   1      46.624 -20.211  44.536  0.00  0.00     0.002 A 
ATOM     11  C   UNL d   1      46.572 -19.441  44.826  0.00  0.00     0.026 A 
ENDROOT
BRANCH   1  12
ATOM     12  C   UNL d   1      46.616 -19.348  41.028  0.00  0.00     0.302 C 
ATOM     13  O   UNL d   1      46.645 -20.143  40.737  0.00  0.00    -0.263 OA
ATOM     14  N   UNL d   1      46.606 -18.703  40.509  0.00  0.00    -0.102 N 
ENDBRANCH   1  12
BRANCH   8  15
ATOM     15  O   UNL d   1      46.490 -18.046  44.577  0.00  0.00    -0.326 OA
ATOM     16  C   UNL d   1      45.811 -17.790  44.937  0.00  0.00     0.181 C 
ENDBRANCH   8  15
TORSDOF 2
ENDMDL
