MODEL 1
REMARK VINA RESULT:      -9.0      0.000      0.000
REMARK  0 active torsions:
REMARK  status: ('A' for Active; 'I' for Inactive)
ROOT
ATOM      1  N   UNL d   1     -46.179  13.060  23.249  0.00  0.00    -0.208 NA
ATOM      2  C   UNL d   1     -46.433  12.308  23.474  0.00  0.00     0.279 A 
ATOM      3  C   UNL d   1     -47.792  12.693  23.250  0.00  0.00     0.006 A 
ATOM      4  C   UNL d   1     -47.237  12.125  23.474  0.00  0.00     0.058 A 
ATOM      5  C   UNL d   1     -46.735  13.633  23.023  0.00  0.00     0.085 A 
ATOM      6  C   UNL d   1     -47.543  13.443  23.026  0.00  0.00     0.018 A 
ATOM      7  O   UNL d   1     -45.876  11.740  23.698  0.00  0.00    -0.265 OA
ATOM      8  C   UNL d   1     -48.588  12.511  23.251  0.00  0.00     0.000 A 
ATOM      9  C   UNL d   1     -47.492  11.381  23.696  0.00  0.00     0.005 A 
ATOM     10  C   UNL d   1     -48.098  14.008  22.803  0.00  0.00     0.002 A 
ATOM     11  C   UNL d   1     -46.487  14.386  22.798  0.00  0.00     0.019 A 
ATOM     12  C   UNL d   1     -48.836  11.769  23.473  0.00  0.00     0.000 A 
ATOM     13  C   UNL d   1     -48.292  11.197  23.697  0.00  0.00     0.000 A 
ATOM     14  C   UNL d   1     -47.846  14.766  22.576  0.00  0.00     0.000 A 
ATOM     15  C   UNL d   1     -47.043  14.955  22.573  0.00  0.00     0.002 A 
ENDROOT
TORSDOF 0
ENDMDL
MODEL 2
REMARK VINA RESULT:      -8.9      0.750      2.418
REMARK  0 active torsions:
REMARK  status: ('A' for Active; 'I' for Inactive)
ROOT
ATOM      1  N   UNL d   1     -47.375  11.615  23.698  0.00  0.00    -0.208 NA
ATOM      2  C   UNL d   1     -46.721  12.092  23.540  0.00  0.00     0.279 A 
ATOM      3  C   UNL d   1     -47.586  13.129  23.068  0.00  0.00     0.006 A 
ATOM      4  C   UNL d   1     -46.826  12.848  23.226  0.00  0.00     0.058 A 
ATOM      5  C   UNL d   1     -48.139  11.896  23.540  0.00  0.00     0.085 A 
ATOM      6  C   UNL d   1     -48.239  12.657  23.224  0.00  0.00     0.018 A 
ATOM      7  O   UNL d   1     -45.961  11.810  23.698  0.00  0.00    -0.265 OA
ATOM      8  C   UNL d   1     -47.689  13.878  22.757  0.00  0.00     0.000 A 
ATOM      9  C   UNL d   1     -46.181  13.324  23.067  0.00  0.00     0.005 A 
ATOM     10  C   UNL d   1     -48.995  12.939  23.066  0.00  0.00     0.002 A 
ATOM     11  C   UNL d   1     -48.796  11.423  23.696  0.00  0.00     0.019 A 
ATOM     12  C   UNL d   1     -47.043  14.347  22.602  0.00  0.00     0.000 A 
ATOM     13  C   UNL d   1     -46.284  14.076  22.755  0.00  0.00     0.000 A 
ATOM     14  C   UNL d   1     -49.655  12.461  23.224  0.00  0.00     0.000 A 
ATOM     15  C   UNL d   1     -49.556  11.704  23.539  0.00  0.00     0.002 A 
ENDROOT
TORSDOF 0
ENDMDL
MODEL 3
REMARK VINA RESULT:      -8.7      1.580      2.266
REMARK  0 active torsions:
REMARK  status: ('A' for Active; 'I' for Inactive)
ROOT
ATOM      1  N   UNL d   1     -48.143  11.739  23.594  0.00  0.00    -0.208 NA
ATOM      2  C   UNL d   1     -48.897  11.675  23.268  0.00  0.00     0.279 A 
ATOM      3  C   UNL d   1     -48.567  12.667  22.292  0.00  0.00     0.006 A 
ATOM      4  C   UNL d   1     -49.110  12.137  22.619  0.00  0.00     0.058 A 
ATOM      5  C   UNL d   1     -47.596  12.270  23.267  0.00  0.00     0.085 A 
ATOM      6  C   UNL d   1     -47.814  12.733  22.614  0.00  0.00     0.018 A 
ATOM      7  O   UNL d   1     -49.440  11.144  23.596  0.00  0.00    -0.265 OA
ATOM      8  C   UNL d   1     -48.778  13.124  21.649  0.00  0.00     0.000 A 
ATOM      9  C   UNL d   1     -49.856  12.076  22.293  0.00  0.00     0.005 A 
ATOM     10  C   UNL d   1     -47.275  13.261  22.287  0.00  0.00     0.002 A 
ATOM     11  C   UNL d   1     -46.840  12.339  23.589  0.00  0.00     0.019 A 
ATOM     12  C   UNL d   1     -49.522  13.059  21.329  0.00  0.00     0.000 A 
ATOM     13  C   UNL d   1     -50.068  12.536  21.646  0.00  0.00     0.000 A 
ATOM     14  C   UNL d   1     -46.514  13.329  22.613  0.00  0.00     0.000 A 
ATOM     15  C   UNL d   1     -46.297  12.869  23.263  0.00  0.00     0.002 A 
ENDROOT
TORSDOF 0
ENDMDL
MODEL 4
REMARK VINA RESULT:      -8.5      1.484      2.945
REMARK  0 active torsions:
REMARK  status: ('A' for Active; 'I' for Inactive)
ROOT
ATOM      1  N   UNL d   1     -49.083  13.844  22.960  0.00  0.00    -0.208 NA
ATOM      2  C   UNL d   1     -48.379  14.246  22.808  0.00  0.00     0.279 A 
ATOM      3  C   UNL d   1     -47.632  13.063  23.109  0.00  0.00     0.006 A 
ATOM      4  C   UNL d   1     -47.655  13.857  22.882  0.00  0.00     0.058 A 
ATOM      5  C   UNL d   1     -49.061  13.047  23.188  0.00  0.00     0.085 A 
ATOM      6  C   UNL d   1     -48.330  12.660  23.261  0.00  0.00     0.018 A 
ATOM      7  O   UNL d   1     -48.403  15.040  22.581  0.00  0.00    -0.265 OA
ATOM      8  C   UNL d   1     -46.914  12.680  23.181  0.00  0.00     0.000 A 
ATOM      9  C   UNL d   1     -46.956  14.252  22.732  0.00  0.00     0.005 A 
ATOM     10  C   UNL d   1     -48.305  11.870  23.487  0.00  0.00     0.002 A 
ATOM     11  C   UNL d   1     -49.762  12.640  23.342  0.00  0.00     0.019 A 
ATOM     12  C   UNL d   1     -46.222  13.078  23.031  0.00  0.00     0.000 A 
ATOM     13  C   UNL d   1     -46.235  13.866  22.805  0.00  0.00     0.000 A 
ATOM     14  C   UNL d   1     -49.012  11.462  23.641  0.00  0.00     0.000 A 
ATOM     15  C   UNL d   1     -49.738  11.846  23.569  0.00  0.00     0.002 A 
ENDROOT
TORSDOF 0
ENDMDL
MODEL 5
REMARK VINA RESULT:      -8.3      1.340      2.554
REMARK  0 active torsions:
REMARK  status: ('A' for Active; 'I' for Inactive)
ROOT
ATOM      1  N   UNL d   1     -48.708  13.680  22.876  0.00  0.00    -0.208 NA
ATOM      2  C   UNL d   1     -47.895  13.569  22.959  0.00  0.00     0.279 A 
ATOM      3  C   UNL d   1     -48.115  12.217  23.371  0.00  0.00     0.006 A 
ATOM      4  C   UNL d   1     -47.599  12.840  23.206  0.00  0.00     0.058 A 
ATOM      5  C   UNL d   1     -49.228  13.055  23.041  0.00  0.00     0.085 A 
ATOM      6  C   UNL d   1     -48.925  12.323  23.289  0.00  0.00     0.018 A 
ATOM      7  O   UNL d   1     -47.379  14.193  22.794  0.00  0.00    -0.265 OA
ATOM      8  C   UNL d   1     -47.821  11.495  23.615  0.00  0.00     0.000 A 
ATOM      9  C   UNL d   1     -46.794  12.726  23.290  0.00  0.00     0.005 A 
ATOM     10  C   UNL d   1     -49.438  11.702  23.453  0.00  0.00     0.002 A 
ATOM     11  C   UNL d   1     -50.042  13.160  22.959  0.00  0.00     0.019 A 
ATOM     12  C   UNL d   1     -47.019  11.388  23.697  0.00  0.00     0.000 A 
ATOM     13  C   UNL d   1     -46.498  12.000  23.535  0.00  0.00     0.000 A 
ATOM     14  C   UNL d   1     -50.257  11.810  23.370  0.00  0.00     0.000 A 
ATOM     15  C   UNL d   1     -50.558  12.538  23.124  0.00  0.00     0.002 A 
ENDROOT
TORSDOF 0
ENDMDL
MODEL 6
REMARK VINA RESULT:      -8.3      1.530      2.090
REMARK  0 active torsions:
REMARK  status: ('A' for Active; 'I' for Inactive)
ROOT
ATOM      1  N   UNL d   1     -48.425  14.196  22.844  0.00  0.00    -0.208 NA
ATOM      2  C   UNL d   1     -49.120  13.786  23.013  0.00  0.00     0.279 A 
ATOM      3  C   UNL d   1     -48.362  12.607  23.302  0.00  0.00     0.006 A 
ATOM      4  C   UNL d   1     -49.090  12.994  23.242  0.00  0.00     0.058 A 
ATOM      5  C   UNL d   1     -47.694  13.810  22.904  0.00  0.00     0.085 A 
ATOM      6  C   UNL d   1     -47.668  13.012  23.134  0.00  0.00     0.018 A 
ATOM      7  O   UNL d   1     -49.848  14.173  22.953  0.00  0.00    -0.265 OA
ATOM      8  C   UNL d   1     -48.333  11.823  23.528  0.00  0.00     0.000 A 
ATOM      9  C   UNL d   1     -49.776  12.584  23.410  0.00  0.00     0.005 A 
ATOM     10  C   UNL d   1     -46.944  12.626  23.194  0.00  0.00     0.002 A 
ATOM     11  C   UNL d   1     -46.995  14.215  22.736  0.00  0.00     0.019 A 
ATOM     12  C   UNL d   1     -49.019  11.421  23.694  0.00  0.00     0.000 A 
ATOM     13  C   UNL d   1     -49.747  11.796  23.637  0.00  0.00     0.000 A 
ATOM     14  C   UNL d   1     -46.242  13.036  23.025  0.00  0.00     0.000 A 
ATOM     15  C   UNL d   1     -46.268  13.828  22.796  0.00  0.00     0.002 A 
ENDROOT
TORSDOF 0
ENDMDL
MODEL 7
REMARK VINA RESULT:      -8.3      0.945      2.612
REMARK  0 active torsions:
REMARK  status: ('A' for Active; 'I' for Inactive)
ROOT
ATOM      1  N   UNL d   1     -46.862  13.087  23.244  0.00  0.00    -0.208 NA
ATOM      2  C   UNL d   1     -46.994  13.858  22.985  0.00  0.00     0.279 A 
ATOM      3  C   UNL d   1     -48.400  13.603  22.921  0.00  0.00     0.006 A 
ATOM      4  C   UNL d   1     -47.761  14.117  22.824  0.00  0.00     0.058 A 
ATOM      5  C   UNL d   1     -47.503  12.569  23.342  0.00  0.00     0.085 A 
ATOM      6  C   UNL d   1     -48.272  12.834  23.178  0.00  0.00     0.018 A 
ATOM      7  O   UNL d   1     -46.354  14.372  22.888  0.00  0.00    -0.265 OA
ATOM      8  C   UNL d   1     -49.159  13.859  22.761  0.00  0.00     0.000 A 
ATOM      9  C   UNL d   1     -47.896  14.880  22.567  0.00  0.00     0.005 A 
ATOM     10  C   UNL d   1     -48.910  12.323  23.275  0.00  0.00     0.002 A 
ATOM     11  C   UNL d   1     -47.376  11.797  23.600  0.00  0.00     0.019 A 
ATOM     12  C   UNL d   1     -49.287  14.620  22.506  0.00  0.00     0.000 A 
ATOM     13  C   UNL d   1     -48.659  15.138  22.406  0.00  0.00     0.000 A 
ATOM     14  C   UNL d   1     -48.781  11.545  23.535  0.00  0.00     0.000 A 
ATOM     15  C   UNL d   1     -48.016  11.283  23.698  0.00  0.00     0.002 A 
ENDROOT
TORSDOF 0
ENDMDL
MODEL 8
REMARK VINA RESULT:      -7.9      1.658      2.567
REMARK  0 active torsions:
REMARK  status: ('A' for Active; 'I' for Inactive)
ROOT
ATOM      1  N   UNL d   1     -49.180  13.168  22.061  0.00  0.00    -0.208 NA
ATOM      2  C   UNL d   1     -48.431  12.825  22.077  0.00  0.00     0.279 A 
ATOM      3  C   UNL d   1     -47.880  14.036  22.601  0.00  0.00     0.006 A 
ATOM      4  C   UNL d   1     -47.782  13.257  22.346  0.00  0.00     0.058 A 
ATOM      5  C   UNL d   1     -49.280  13.951  22.316  0.00  0.00     0.085 A 
ATOM      6  C   UNL d   1     -48.624  14.382  22.587  0.00  0.00     0.018 A 
ATOM      7  O   UNL d   1     -48.333  12.045  21.821  0.00  0.00    -0.265 OA
ATOM      8  C   UNL d   1     -47.236  14.463  22.868  0.00  0.00     0.000 A 
ATOM      9  C   UNL d   1     -47.038  12.920  22.363  0.00  0.00     0.005 A 
ATOM     10  C   UNL d   1     -48.720  15.158  22.841  0.00  0.00     0.002 A 
ATOM     11  C   UNL d   1     -50.027  14.299  22.303  0.00  0.00     0.019 A 
ATOM     12  C   UNL d   1     -46.499  14.123  22.882  0.00  0.00     0.000 A 
ATOM     13  C   UNL d   1     -46.391  13.350  22.631  0.00  0.00     0.000 A 
ATOM     14  C   UNL d   1     -49.474  15.507  22.826  0.00  0.00     0.000 A 
ATOM     15  C   UNL d   1     -50.126  15.079  22.558  0.00  0.00     0.002 A 
ENDROOT
TORSDOF 0
ENDMDL
MODEL 9
REMARK VINA RESULT:      -6.8      8.933     10.122
REMARK  0 active torsions:
REMARK  status: ('A' for Active; 'I' for Inactive)
ROOT
ATOM      1  N   UNL d   1     -39.759  13.412  18.115  0.00  0.00    -0.208 NA
ATOM      2  C   UNL d   1     -40.337  13.997  18.177  0.00  0.00     0.279 A 
ATOM      3  C   UNL d   1     -39.746  14.706  17.084  0.00  0.00     0.006 A 
ATOM      4  C   UNL d   1     -40.331  14.643  17.664  0.00  0.00     0.058 A 
ATOM      5  C   UNL d   1     -39.171  13.474  17.534  0.00  0.00     0.085 A 
ATOM      6  C   UNL d   1     -39.169  14.125  17.019  0.00  0.00     0.018 A 
ATOM      7  O   UNL d   1     -40.922  13.933  18.757  0.00  0.00    -0.265 OA
ATOM      8  C   UNL d   1     -39.740  15.345  16.576  0.00  0.00     0.000 A 
ATOM      9  C   UNL d   1     -40.901  15.224  17.722  0.00  0.00     0.005 A 
ATOM     10  C   UNL d   1     -38.587  14.189  16.442  0.00  0.00     0.002 A 
ATOM     11  C   UNL d   1     -38.591  12.891  17.467  0.00  0.00     0.019 A 
ATOM     12  C   UNL d   1     -40.311  15.921  16.639  0.00  0.00     0.000 A 
ATOM     13  C   UNL d   1     -40.896  15.867  17.211  0.00  0.00     0.000 A 
ATOM     14  C   UNL d   1     -38.004  13.602  16.376  0.00  0.00     0.000 A 
ATOM     15  C   UNL d   1     -38.006  12.954  16.887  0.00  0.00     0.002 A 
ENDROOT
TORSDOF 0
ENDMDL
