MODEL 1
REMARK VINA RESULT:      -5.0      0.000      0.000
REMARK  4 active torsions:
REMARK  status: ('A' for Active; 'I' for Inactive)
REMARK    1  A    between atoms: N_2  and  S_1 
REMARK    2  A    between atoms: C_3  and  S_1 
REMARK    3  A    between atoms: C_4  and  N_2 
REMARK    4  A    between atoms: O_14  and  C_7 
ROOT
ATOM      1  S   UNL d   1      57.161   0.653  31.748  0.00  0.00     0.285 S 
ATOM      2  O   UNL d   1      57.702   0.682  32.372  0.00  0.00    -0.198 OA
ATOM      3  O   UNL d   1      56.606   0.623  31.113  0.00  0.00    -0.198 OA
ENDROOT
BRANCH   1   4
ATOM      4  N   UNL d   1      56.538   0.646  32.288  0.00  0.00    -0.156 NA
BRANCH   4   5
ATOM      5  C   UNL d   1      56.237  -0.067  32.563  0.00  0.00     0.116 A 
ATOM      6  C   UNL d   1      55.650  -0.084  33.143  0.00  0.00     0.112 A 
ATOM      7  C   UNL d   1      55.349  -0.797  33.419  0.00  0.00     0.026 A 
ATOM      8  C   UNL d   1      55.628  -1.511  33.121  0.00  0.00     0.002 A 
ATOM      9  C   UNL d   1      56.215  -1.501  32.540  0.00  0.00     0.002 A 
ATOM     10  C   UNL d   1      56.516  -0.788  32.265  0.00  0.00     0.022 A 
BRANCH   6  11
ATOM     11  O   UNL d   1      55.365   0.659  33.448  0.00  0.00    -0.327 OA
ATOM     12  C   UNL d   1      54.799   0.682  34.044  0.00  0.00     0.181 C 
ENDBRANCH   6  11
ENDBRANCH   4   5
ENDBRANCH   1   4
BRANCH   1  13
ATOM     13  C   UNL d   1      57.796   0.660  31.194  0.00  0.00     0.105 A 
ATOM     14  C   UNL d   1      58.580   0.655  31.471  0.00  0.00     0.014 A 
ATOM     15  C   UNL d   1      59.198   0.662  30.920  0.00  0.00     0.012 A 
ATOM     16  C   UNL d   1      59.036   0.674  30.095  0.00  0.00     0.058 A 
ATOM     17  C   UNL d   1      58.260   0.679  29.836  0.00  0.00     0.012 A 
ATOM     18 CL   UNL d   1      59.578   0.681  29.555  0.00  0.00    -0.082 Cl
ATOM     19  C   UNL d   1      57.635   0.672  30.369  0.00  0.00     0.014 A 
ENDBRANCH   1  13
TORSDOF 4
ENDMDL
MODEL 2
REMARK VINA RESULT:      -4.8      1.830      4.031
REMARK  4 active torsions:
REMARK  status: ('A' for Active; 'I' for Inactive)
REMARK    1  A    between atoms: N_2  and  S_1 
REMARK    2  A    between atoms: C_3  and  S_1 
REMARK    3  A    between atoms: C_4  and  N_2 
REMARK    4  A    between atoms: O_14  and  C_7 
ROOT
ATOM      1  S   UNL d   1      56.995  -0.226  31.244  0.00  0.00     0.285 S 
ATOM      2  O   UNL d   1      56.798   0.557  31.068  0.00  0.00    -0.198 OA
ATOM      3  O   UNL d   1      57.198  -1.026  31.422  0.00  0.00    -0.198 OA
ENDROOT
BRANCH   1   4
ATOM      4  N   UNL d   1      57.437  -0.272  30.550  0.00  0.00    -0.156 NA
BRANCH   4   5
ATOM      5  C   UNL d   1      58.203   0.027  30.526  0.00  0.00     0.116 A 
ATOM      6  C   UNL d   1      58.654  -0.020  29.837  0.00  0.00     0.112 A 
ATOM      7  C   UNL d   1      59.419   0.279  29.813  0.00  0.00     0.026 A 
ATOM      8  C   UNL d   1      59.751   0.632  30.478  0.00  0.00     0.002 A 
ATOM      9  C   UNL d   1      59.304   0.682  31.170  0.00  0.00     0.002 A 
ATOM     10  C   UNL d   1      58.539   0.383  31.194  0.00  0.00     0.022 A 
BRANCH   6  11
ATOM     11  O   UNL d   1      58.305  -0.386  29.152  0.00  0.00    -0.327 OA
ATOM     12  C   UNL d   1      58.738  -0.486  28.460  0.00  0.00     0.181 C 
ENDBRANCH   6  11
ENDBRANCH   4   5
ENDBRANCH   1   4
BRANCH   1  13
ATOM     13  C   UNL d   1      56.544  -0.182  31.955  0.00  0.00     0.105 A 
ATOM     14  C   UNL d   1      56.340  -0.882  32.354  0.00  0.00     0.014 A 
ATOM     15  C   UNL d   1      55.897  -0.830  33.051  0.00  0.00     0.012 A 
ATOM     16  C   UNL d   1      55.656  -0.082  33.351  0.00  0.00     0.058 A 
ATOM     17  C   UNL d   1      55.863   0.599  32.948  0.00  0.00     0.012 A 
ATOM     18 CL   UNL d   1      55.247   0.009  33.990  0.00  0.00    -0.082 Cl
ATOM     19  C   UNL d   1      56.303   0.566  32.255  0.00  0.00     0.014 A 
ENDBRANCH   1  13
TORSDOF 4
ENDMDL
