MODEL 1
REMARK VINA RESULT:     125.0      0.000      0.000
REMARK  6 active torsions:
REMARK  status: ('A' for Active; 'I' for Inactive)
REMARK    1  A    between atoms: S_5  and  C_2 
REMARK    2  A    between atoms: C_15  and  S_5 
REMARK    3  A    between atoms: N_11  and  C_8 
REMARK    4  A    between atoms: C_16  and  N_11 
REMARK    5  A    between atoms: C_17  and  N_12 
REMARK    6  A    between atoms: C_24  and  C_17 
ROOT
ATOM      1  C   UNL d   1      59.258  49.125  51.072  0.00  0.00     0.197 A 
ATOM      2  C   UNL d   1      58.456  49.266  51.130  0.00  0.00     0.227 A 
ATOM      3  N   UNL d   1      59.612  49.391  51.771  0.00  0.00    -0.192 N 
ATOM      4  N   UNL d   1      59.725  48.789  50.476  0.00  0.00    -0.206 NA
ATOM      5  N   UNL d   1      58.308  49.615  51.854  0.00  0.00    -0.115 NA
ATOM      6  N   UNL d   1      59.028  49.694  52.257  0.00  0.00    -0.058 NA
ATOM      7  C   UNL d   1      60.537  48.719  50.579  0.00  0.00     0.166 A 
ATOM      8  C   UNL d   1      60.891  48.984  51.277  0.00  0.00     0.054 A 
ATOM      9  C   UNL d   1      60.432  49.318  51.871  0.00  0.00     0.089 A 
ATOM     10  C   UNL d   1      61.707  48.913  51.379  0.00  0.00     0.005 A 
ATOM     11  C   UNL d   1      60.787  49.585  52.573  0.00  0.00     0.019 A 
ATOM     12  C   UNL d   1      62.063  49.180  52.081  0.00  0.00     0.000 A 
ATOM     13  C   UNL d   1      61.600  49.515  52.676  0.00  0.00     0.002 A 
ENDROOT
BRANCH   7  14
ATOM     14  N   UNL d   1      60.995  48.379  49.974  0.00  0.00    -0.227 NA
BRANCH  14  15
ATOM     15  C   UNL d   1      60.998  47.556  49.860  0.00  0.00     0.086 A 
ATOM     16  C   UNL d   1      61.277  47.236  49.148  0.00  0.00     0.038 A 
ATOM     17  C   UNL d   1      61.278  46.416  49.038  0.00  0.00     0.082 A 
ATOM     18  N   UNL d   1      61.000  45.920  49.641  0.00  0.00    -0.302 N 
ATOM     19  C   UNL d   1      60.725  46.241  50.345  0.00  0.00     0.082 A 
ATOM     20  C   UNL d   1      60.723  47.061  50.455  0.00  0.00     0.038 A 
BRANCH  18  21
ATOM     21  C   UNL d   1      61.000  45.104  49.536  0.00  0.00     0.080 C 
BRANCH  21  22
ATOM     22  C   UNL d   1      61.649  44.657  49.784  0.00  0.00     0.018 A 
ATOM     23  C   UNL d   1      61.581  44.167  50.442  0.00  0.00     0.002 A 
ATOM     24  C   UNL d   1      62.222  43.720  50.696  0.00  0.00     0.000 A 
ATOM     25  C   UNL d   1      62.949  43.764  50.283  0.00  0.00     0.000 A 
ATOM     26  C   UNL d   1      63.009  44.256  49.626  0.00  0.00     0.000 A 
ATOM     27  C   UNL d   1      62.364  44.705  49.373  0.00  0.00     0.002 A 
ENDBRANCH  21  22
ENDBRANCH  18  21
ENDBRANCH  14  15
ENDBRANCH   7  14
BRANCH   2  28
ATOM     28  S   UNL d   1      57.889  49.087  50.555  0.00  0.00     0.231 S 
ATOM     29  O   UNL d   1      58.360  48.463  50.285  0.00  0.00    -0.215 OA
ATOM     30  O   UNL d   1      57.414  49.708  50.818  0.00  0.00    -0.215 OA
BRANCH  28  31
ATOM     31  C   UNL d   1      57.329  48.903  49.980  0.00  0.00     0.090 A 
ATOM     32  C   UNL d   1      57.259  48.133  49.711  0.00  0.00     0.011 A 
ATOM     33  C   UNL d   1      56.699  47.945  49.134  0.00  0.00     0.001 A 
ATOM     34  C   UNL d   1      56.208  48.532  48.829  0.00  0.00     0.000 A 
ATOM     35  C   UNL d   1      56.281  49.300  49.101  0.00  0.00     0.001 A 
ATOM     36  C   UNL d   1      56.838  49.485  49.673  0.00  0.00     0.011 A 
ENDBRANCH  28  31
ENDBRANCH   2  28
TORSDOF 6
ENDMDL
