MODEL 1
REMARK VINA RESULT:      -5.0      0.000      0.000
REMARK  5 active torsions:
REMARK  status: ('A' for Active; 'I' for Inactive)
REMARK    1  A    between atoms: C_7  and  N_2 
REMARK    2  A    between atoms: C_8  and  C_7 
REMARK    3  A    between atoms: C_13  and  C_8 
REMARK    4  A    between atoms: C_9  and  O_11 
REMARK    5  A    between atoms: O_11  and  C_13 
ROOT
ATOM      1  C   UNL d   1      58.427   0.576  29.068  0.00  0.00     0.378 A 
ATOM      2  N   UNL d   1      58.713   0.553  29.848  0.00  0.00    -0.251 N 
ATOM      3  O   UNL d   1      59.069   0.508  28.559  0.00  0.00    -0.258 OA
ATOM      4  C   UNL d   1      59.539   0.471  29.808  0.00  0.00     0.092 A 
ATOM      5  C   UNL d   1      59.757   0.443  29.013  0.00  0.00     0.121 A 
ATOM      6  O   UNL d   1      57.636   0.653  28.852  0.00  0.00    -0.237 OA
ATOM      7  C   UNL d   1      60.109   0.419  30.401  0.00  0.00     0.020 A 
ATOM      8  C   UNL d   1      60.559   0.362  28.806  0.00  0.00     0.026 A 
ATOM      9  C   UNL d   1      60.908   0.338  30.193  0.00  0.00     0.002 A 
ATOM     10  C   UNL d   1      61.132   0.310  29.396  0.00  0.00     0.002 A 
ENDROOT
BRANCH   2  11
ATOM     11  C   UNL d   1      58.262   0.603  30.528  0.00  0.00     0.087 C 
BRANCH  11  12
ATOM     12  C   UNL d   1      57.683   0.043  30.691  0.00  0.00     0.046 C 
BRANCH  12  13
ATOM     13  C   UNL d   1      57.250   0.081  31.382  0.00  0.00     0.124 C 
BRANCH  13  14
ATOM     14  O   UNL d   1      56.946  -0.601  31.725  0.00  0.00    -0.305 OA
BRANCH  14  15
ATOM     15  C   UNL d   1      56.379  -0.556  32.326  0.00  0.00     0.100 A 
ATOM     16  C   UNL d   1      56.097  -1.240  32.675  0.00  0.00     0.025 A 
ATOM     17  C   UNL d   1      55.530  -1.195  33.277  0.00  0.00     0.002 A 
ATOM     18  C   UNL d   1      55.254  -0.463  33.520  0.00  0.00     0.000 A 
ATOM     19  C   UNL d   1      55.540   0.229  33.167  0.00  0.00     0.002 A 
ATOM     20  C   UNL d   1      56.106   0.184  32.565  0.00  0.00     0.025 A 
ENDBRANCH  14  15
ENDBRANCH  13  14
ENDBRANCH  12  13
ENDBRANCH  11  12
ENDBRANCH   2  11
TORSDOF 5
ENDMDL
MODEL 2
REMARK VINA RESULT:      -4.7      1.084      4.966
REMARK  5 active torsions:
REMARK  status: ('A' for Active; 'I' for Inactive)
REMARK    1  A    between atoms: C_7  and  N_2 
REMARK    2  A    between atoms: C_8  and  C_7 
REMARK    3  A    between atoms: C_13  and  C_8 
REMARK    4  A    between atoms: C_9  and  O_11 
REMARK    5  A    between atoms: O_11  and  C_13 
ROOT
ATOM      1  C   UNL d   1      56.625  -1.147  31.854  0.00  0.00     0.378 A 
ATOM      2  N   UNL d   1      56.620  -0.317  31.896  0.00  0.00    -0.251 N 
ATOM      3  O   UNL d   1      56.179  -1.437  32.480  0.00  0.00    -0.258 OA
ATOM      4  C   UNL d   1      56.164  -0.104  32.558  0.00  0.00     0.092 A 
ATOM      5  C   UNL d   1      55.893  -0.795  32.917  0.00  0.00     0.121 A 
ATOM      6  O   UNL d   1      57.012  -1.593  31.280  0.00  0.00    -0.237 OA
ATOM      7  C   UNL d   1      55.969   0.635  32.869  0.00  0.00     0.020 A 
ATOM      8  C   UNL d   1      55.418  -0.749  33.599  0.00  0.00     0.026 A 
ATOM      9  C   UNL d   1      55.496   0.678  33.548  0.00  0.00     0.002 A 
ATOM     10  C   UNL d   1      55.221  -0.012  33.913  0.00  0.00     0.002 A 
ENDROOT
BRANCH   2  11
ATOM     11  C   UNL d   1      56.996   0.194  31.381  0.00  0.00     0.087 C 
BRANCH  11  12
ATOM     12  C   UNL d   1      57.816   0.205  31.321  0.00  0.00     0.046 C 
BRANCH  12  13
ATOM     13  C   UNL d   1      58.180   0.443  30.631  0.00  0.00     0.124 C 
BRANCH  13  14
ATOM     14  O   UNL d   1      58.970   0.669  30.629  0.00  0.00    -0.305 OA
BRANCH  14  15
ATOM     15  C   UNL d   1      59.435   0.580  29.950  0.00  0.00     0.100 A 
ATOM     16  C   UNL d   1      59.102   0.682  29.210  0.00  0.00     0.025 A 
ATOM     17  C   UNL d   1      59.567   0.592  28.531  0.00  0.00     0.002 A 
ATOM     18  C   UNL d   1      60.360   0.401  28.605  0.00  0.00     0.000 A 
ATOM     19  C   UNL d   1      60.696   0.298  29.354  0.00  0.00     0.002 A 
ATOM     20  C   UNL d   1      60.232   0.388  30.032  0.00  0.00     0.025 A 
ENDBRANCH  14  15
ENDBRANCH  13  14
ENDBRANCH  12  13
ENDBRANCH  11  12
ENDBRANCH   2  11
TORSDOF 5
ENDMDL
MODEL 3
REMARK VINA RESULT:      -4.2      1.776      5.082
REMARK  5 active torsions:
REMARK  status: ('A' for Active; 'I' for Inactive)
REMARK    1  A    between atoms: C_7  and  N_2 
REMARK    2  A    between atoms: C_8  and  C_7 
REMARK    3  A    between atoms: C_13  and  C_8 
REMARK    4  A    between atoms: C_9  and  O_11 
REMARK    5  A    between atoms: O_11  and  C_13 
ROOT
ATOM      1  C   UNL d   1      57.341   0.673  33.649  0.00  0.00     0.378 A 
ATOM      2  N   UNL d   1      56.733   0.675  33.082  0.00  0.00    -0.251 N 
ATOM      3  O   UNL d   1      56.994   0.673  34.394  0.00  0.00    -0.258 OA
ATOM      4  C   UNL d   1      56.010   0.677  33.492  0.00  0.00     0.092 A 
ATOM      5  C   UNL d   1      56.173   0.676  34.301  0.00  0.00     0.121 A 
ATOM      6  O   UNL d   1      58.147   0.670  33.483  0.00  0.00    -0.237 OA
ATOM      7  C   UNL d   1      55.231   0.680  33.221  0.00  0.00     0.020 A 
ATOM      8  C   UNL d   1      55.546   0.678  34.849  0.00  0.00     0.026 A 
ATOM      9  C   UNL d   1      54.609   0.682  33.769  0.00  0.00     0.002 A 
ATOM     10  C   UNL d   1      54.766   0.681  34.582  0.00  0.00     0.002 A 
ENDROOT
BRANCH   2  11
ATOM     11  C   UNL d   1      56.831   0.676  32.270  0.00  0.00     0.087 C 
BRANCH  11  12
ATOM     12  C   UNL d   1      57.235   0.066  31.895  0.00  0.00     0.046 C 
BRANCH  12  13
ATOM     13  C   UNL d   1      57.500   0.153  31.128  0.00  0.00     0.124 C 
BRANCH  13  14
ATOM     14  O   UNL d   1      57.533  -0.492  30.619  0.00  0.00    -0.305 OA
BRANCH  14  15
ATOM     15  C   UNL d   1      58.054  -0.498  29.976  0.00  0.00     0.100 A 
ATOM     16  C   UNL d   1      58.494  -1.167  29.811  0.00  0.00     0.025 A 
ATOM     17  C   UNL d   1      59.015  -1.172  29.167  0.00  0.00     0.002 A 
ATOM     18  C   UNL d   1      59.086  -0.504  28.698  0.00  0.00     0.000 A 
ATOM     19  C   UNL d   1      58.641   0.173  28.865  0.00  0.00     0.002 A 
ATOM     20  C   UNL d   1      58.120   0.178  29.509  0.00  0.00     0.025 A 
ENDBRANCH  14  15
ENDBRANCH  13  14
ENDBRANCH  12  13
ENDBRANCH  11  12
ENDBRANCH   2  11
TORSDOF 5
ENDMDL
MODEL 4
REMARK VINA RESULT:      -4.1      2.103      4.872
REMARK  5 active torsions:
REMARK  status: ('A' for Active; 'I' for Inactive)
REMARK    1  A    between atoms: C_7  and  N_2 
REMARK    2  A    between atoms: C_8  and  C_7 
REMARK    3  A    between atoms: C_13  and  C_8 
REMARK    4  A    between atoms: C_9  and  O_11 
REMARK    5  A    between atoms: O_11  and  C_13 
ROOT
ATOM      1  C   UNL d   1      57.098   0.279  31.267  0.00  0.00     0.378 A 
ATOM      2  N   UNL d   1      57.069  -0.529  31.461  0.00  0.00    -0.251 N 
ATOM      3  O   UNL d   1      56.596   0.682  31.777  0.00  0.00    -0.258 OA
ATOM      4  C   UNL d   1      56.541  -0.614  32.097  0.00  0.00     0.092 A 
ATOM      5  C   UNL d   1      56.250   0.134  32.291  0.00  0.00     0.121 A 
ATOM      6  O   UNL d   1      57.554   0.609  30.666  0.00  0.00    -0.237 OA
ATOM      7  C   UNL d   1      56.297  -1.280  32.516  0.00  0.00     0.020 A 
ATOM      8  C   UNL d   1      55.705   0.217  32.915  0.00  0.00     0.026 A 
ATOM      9  C   UNL d   1      55.754  -1.195  33.137  0.00  0.00     0.002 A 
ATOM     10  C   UNL d   1      55.458  -0.448  33.336  0.00  0.00     0.002 A 
ENDROOT
BRANCH   2  11
ATOM     11  C   UNL d   1      57.484  -1.129  31.092  0.00  0.00     0.087 C 
BRANCH  11  12
ATOM     12  C   UNL d   1      57.874  -0.995  30.380  0.00  0.00     0.046 C 
BRANCH  12  13
ATOM     13  C   UNL d   1      58.437  -1.520  30.109  0.00  0.00     0.124 C 
BRANCH  13  14
ATOM     14  O   UNL d   1      58.567  -1.617  29.303  0.00  0.00    -0.305 OA
BRANCH  14  15
ATOM     15  C   UNL d   1      59.085  -2.199  29.025  0.00  0.00     0.100 A 
ATOM     16  C   UNL d   1      59.877  -2.027  28.922  0.00  0.00     0.025 A 
ATOM     17  C   UNL d   1      60.396  -2.610  28.644  0.00  0.00     0.002 A 
ATOM     18  C   UNL d   1      60.109  -3.358  28.472  0.00  0.00     0.000 A 
ATOM     19  C   UNL d   1      59.307  -3.532  28.576  0.00  0.00     0.002 A 
ATOM     20  C   UNL d   1      58.790  -2.950  28.854  0.00  0.00     0.025 A 
ENDBRANCH  14  15
ENDBRANCH  13  14
ENDBRANCH  12  13
ENDBRANCH  11  12
ENDBRANCH   2  11
TORSDOF 5
ENDMDL
MODEL 5
REMARK VINA RESULT:      -3.2      1.401      1.963
REMARK  5 active torsions:
REMARK  status: ('A' for Active; 'I' for Inactive)
REMARK    1  A    between atoms: C_7  and  N_2 
REMARK    2  A    between atoms: C_8  and  C_7 
REMARK    3  A    between atoms: C_13  and  C_8 
REMARK    4  A    between atoms: C_9  and  O_11 
REMARK    5  A    between atoms: O_11  and  C_13 
ROOT
ATOM      1  C   UNL d   1      57.485  -1.030  30.743  0.00  0.00     0.378 A 
ATOM      2  N   UNL d   1      57.626  -0.211  30.767  0.00  0.00    -0.251 N 
ATOM      3  O   UNL d   1      58.020  -1.365  30.217  0.00  0.00    -0.258 OA
ATOM      4  C   UNL d   1      58.255  -0.051  30.248  0.00  0.00     0.092 A 
ATOM      5  C   UNL d   1      58.497  -0.764  29.910  0.00  0.00     0.121 A 
ATOM      6  O   UNL d   1      56.907  -1.427  31.174  0.00  0.00    -0.237 OA
ATOM      7  C   UNL d   1      58.630   0.656  30.049  0.00  0.00     0.020 A 
ATOM      8  C   UNL d   1      59.125  -0.771  29.363  0.00  0.00     0.026 A 
ATOM      9  C   UNL d   1      59.255   0.646  29.504  0.00  0.00     0.002 A 
ATOM     10  C   UNL d   1      59.502  -0.066  29.161  0.00  0.00     0.002 A 
ENDROOT
BRANCH   2  11
ATOM     11  C   UNL d   1      57.219   0.335  31.219  0.00  0.00     0.087 C 
BRANCH  11  12
ATOM     12  C   UNL d   1      57.361   0.404  32.025  0.00  0.00     0.046 C 
BRANCH  12  13
ATOM     13  C   UNL d   1      56.776   0.664  32.531  0.00  0.00     0.124 C 
BRANCH  13  14
ATOM     14  O   UNL d   1      56.783   0.454  33.326  0.00  0.00    -0.305 OA
BRANCH  14  15
ATOM     15  C   UNL d   1      56.102   0.529  33.789  0.00  0.00     0.100 A 
ATOM     16  C   UNL d   1      55.365   0.536  33.436  0.00  0.00     0.025 A 
ATOM     17  C   UNL d   1      54.683   0.611  33.900  0.00  0.00     0.002 A 
ATOM     18  C   UNL d   1      54.752   0.678  34.714  0.00  0.00     0.000 A 
ATOM     19  C   UNL d   1      55.498   0.670  35.071  0.00  0.00     0.002 A 
ATOM     20  C   UNL d   1      56.179   0.595  34.607  0.00  0.00     0.025 A 
ENDBRANCH  14  15
ENDBRANCH  13  14
ENDBRANCH  12  13
ENDBRANCH  11  12
ENDBRANCH   2  11
TORSDOF 5
ENDMDL
