MODEL 1
REMARK VINA RESULT:      38.9      0.000      0.000
REMARK  6 active torsions:
REMARK  status: ('A' for Active; 'I' for Inactive)
REMARK    1  A    between atoms: O_10  and  C_1 
REMARK    2  A    between atoms: O_9  and  C_6 
REMARK    3  A    between atoms: O_12  and  C_8 
REMARK    4  A    between atoms: C_13  and  O_9 
REMARK    5  A    between atoms: C_19  and  O_10 
REMARK    6  A    between atoms: C_14  and  O_12 
ROOT
ATOM      1  C   UNL d   1      46.120 -15.670  43.776  0.00  0.00     0.161 A 
ATOM      2  C   UNL d   1      46.275 -17.121  42.996  0.00  0.00     0.128 A 
ATOM      3  C   UNL d   1      45.974 -17.086  43.782  0.00  0.00     0.066 A 
ATOM      4  C   UNL d   1      45.902 -16.359  44.161  0.00  0.00     0.222 A 
ATOM      5  O   UNL d   1      46.497 -16.428  42.603  0.00  0.00    -0.303 OA
ATOM      6  C   UNL d   1      46.351 -17.847  42.610  0.00  0.00     0.149 A 
ATOM      7  C   UNL d   1      46.421 -15.705  42.989  0.00  0.00     0.126 A 
ATOM      8  C   UNL d   1      46.129 -18.534  43.002  0.00  0.00     0.128 A 
ATOM      9  C   UNL d   1      45.755 -17.779  44.167  0.00  0.00     0.007 A 
ATOM     10  O   UNL d   1      45.608 -16.325  44.929  0.00  0.00    -0.284 OA
ATOM     11  C   UNL d   1      45.828 -18.499  43.789  0.00  0.00     0.027 A 
ATOM     12  C   UNL d   1      46.645 -14.996  42.597  0.00  0.00     0.029 C 
ENDROOT
BRANCH   1  13
ATOM     13  O   UNL d   1      46.049 -14.927  44.154  0.00  0.00    -0.302 OA
BRANCH  13  14
ATOM     14  C   UNL d   1      45.372 -14.476  44.032  0.00  0.00     0.100 A 
ATOM     15  C   UNL d   1      45.227 -14.145  43.292  0.00  0.00     0.025 A 
ATOM     16  C   UNL d   1      44.546 -13.693  43.169  0.00  0.00     0.002 A 
ATOM     17  C   UNL d   1      44.012 -13.573  43.786  0.00  0.00     0.000 A 
ATOM     18  C   UNL d   1      44.160 -13.906  44.527  0.00  0.00     0.002 A 
ATOM     19  C   UNL d   1      44.841 -14.359  44.650  0.00  0.00     0.025 A 
ENDBRANCH  13  14
ENDBRANCH   1  13
BRANCH   6  20
ATOM     20  O   UNL d   1      46.643 -17.881  41.845  0.00  0.00    -0.269 OA
BRANCH  20  21
ATOM     21  C   UNL d   1      46.165 -18.154  41.231  0.00  0.00     0.300 C 
ATOM     22  O   UNL d   1      45.393 -17.875  41.158  0.00  0.00    -0.259 OA
ATOM     23  C   UNL d   1      46.460 -18.705  40.690  0.00  0.00     0.074 C 
ENDBRANCH  20  21
ENDBRANCH   6  20
BRANCH   8  24
ATOM     24  O   UNL d   1      46.203 -19.280  42.617  0.00  0.00    -0.271 OA
BRANCH  24  25
ATOM     25  C   UNL d   1      45.847 -19.951  42.942  0.00  0.00     0.300 C 
ATOM     26  O   UNL d   1      45.194 -20.278  42.569  0.00  0.00    -0.259 OA
ATOM     27  C   UNL d   1      46.146 -20.287  43.632  0.00  0.00     0.074 C 
ENDBRANCH  24  25
ENDBRANCH   8  24
TORSDOF 6
ENDMDL
