MODEL 1
REMARK VINA RESULT:      -5.7      0.000      0.000
REMARK  3 active torsions:
REMARK  status: ('A' for Active; 'I' for Inactive)
REMARK    1  A    between atoms: C_11  and  N_1 
REMARK    2  A    between atoms: C_3  and  C_6 
REMARK    3  A    between atoms: C_6  and  N_5 
ROOT
ATOM      1  N   UNL d   1     -41.405-122.665 -52.773  0.00  0.00    -0.301 N 
ATOM      2  N   UNL d   1     -41.281-123.044 -51.160  0.00  0.00    -0.300 N 
ATOM      3  C   UNL d   1     -41.380-123.468 -52.526  0.00  0.00     0.100 A 
ATOM      4  C   UNL d   1     -41.366-122.068 -52.204  0.00  0.00     0.100 A 
ATOM      5  C   UNL d   1     -41.305-122.242 -51.406  0.00  0.00     0.100 A 
ATOM      6  C   UNL d   1     -41.318-123.654 -51.716  0.00  0.00     0.100 A 
ENDROOT
BRANCH   2   7
ATOM      7  C   UNL d   1     -41.218-123.231 -50.350  0.00  0.00     0.080 C 
BRANCH   7   8
ATOM      8  C   UNL d   1     -41.898-123.376 -49.905  0.00  0.00     0.019 A 
ATOM      9  C   UNL d   1     -41.870-123.318 -49.068  0.00  0.00     0.022 A 
ATOM     10  C   UNL d   1     -42.548-123.463 -48.624  0.00  0.00     0.120 A 
ATOM     11  C   UNL d   1     -41.165-123.118 -48.701  0.00  0.00     0.003 A 
ATOM     12  N   UNL d   1     -42.532-123.409 -47.806  0.00  0.00    -0.241 NA
ATOM     13  C   UNL d   1     -43.265-123.667 -49.010  0.00  0.00     0.213 A 
ATOM     14  C   UNL d   1     -41.815-123.205 -47.419  0.00  0.00     0.099 A 
ATOM     15  C   UNL d   1     -41.136-123.060 -47.863  0.00  0.00     0.021 A 
ATOM     16  C   UNL d   1     -43.290-123.723 -49.841  0.00  0.00     0.044 A 
ATOM     17  O   UNL d   1     -43.944-123.812 -48.566  0.00  0.00    -0.285 OA
ATOM     18  C   UNL d   1     -42.611-123.579 -50.285  0.00  0.00     0.005 A 
ENDBRANCH   7   8
ENDBRANCH   2   7
BRANCH   1  19
ATOM     19  C   UNL d   1     -41.467-122.702 -53.605  0.00  0.00     0.064 A 
ATOM     20  C   UNL d   1     -41.145-123.204 -54.160  0.00  0.00     0.018 A 
ATOM     21  C   UNL d   1     -41.330-123.078 -54.981  0.00  0.00     0.002 A 
ATOM     22  C   UNL d   1     -41.811-122.480 -55.209  0.00  0.00     0.000 A 
ATOM     23  C   UNL d   1     -42.135-121.973 -54.635  0.00  0.00     0.002 A 
ATOM     24  C   UNL d   1     -41.963-122.085 -53.839  0.00  0.00     0.018 A 
ENDBRANCH   1  19
TORSDOF 3
ENDMDL
