MODEL 1
REMARK VINA RESULT:      35.6      0.000      0.000
REMARK  3 active torsions:
REMARK  status: ('A' for Active; 'I' for Inactive)
REMARK    1  A    between atoms: C_6  and  C_1 
REMARK    2  A    between atoms: C_2  and  C_8 
REMARK       I    between atoms: N_11  and  C_6 
REMARK    3  A    between atoms: C_12  and  N_11 
ROOT
ATOM      1  C   UNL d   1      46.563 -19.158  43.448  0.00  0.00     0.054 A 
ATOM      2  C   UNL d   1      46.514 -18.669  44.114  0.00  0.00     0.088 A 
ATOM      3  C   UNL d   1      46.615 -19.980  43.528  0.00  0.00     0.005 A 
ATOM      4  C   UNL d   1      46.519 -19.009  44.876  0.00  0.00     0.019 A 
ATOM      5  C   UNL d   1      46.620 -20.321  44.290  0.00  0.00     0.000 A 
ATOM      6  C   UNL d   1      46.570 -19.804  44.955  0.00  0.00     0.002 A 
ENDROOT
BRANCH   2   7
ATOM      7  N   UNL d   1      46.462 -17.846  44.035  0.00  0.00    -0.207 NA
ATOM      8  C   UNL d   1      45.897 -17.413  44.457  0.00  0.00     0.286 C 
ATOM      9  O   UNL d   1      45.385 -17.773  44.954  0.00  0.00    -0.265 OA
BRANCH   8  10
ATOM     10  C   UNL d   1      45.860 -16.579  44.363  0.00  0.00     0.098 A 
ATOM     11  S   UNL d   1      46.452 -16.164  44.094  0.00  0.00    -0.081 SA
ATOM     12  C   UNL d   1      46.206 -15.364  44.080  0.00  0.00     0.030 A 
ATOM     13  C   UNL d   1      46.559 -14.689  43.865  0.00  0.00     0.006 A 
ATOM     14  C   UNL d   1      45.430 -15.342  44.359  0.00  0.00     0.017 A 
ATOM     15  C   UNL d   1      46.147 -13.969  43.921  0.00  0.00     0.001 A 
ATOM     16  C   UNL d   1      45.381 -13.927  44.194  0.00  0.00     0.000 A 
ATOM     17  C   UNL d   1      45.013 -14.633  44.419  0.00  0.00     0.001 A 
ATOM     18  C   UNL d   1      45.213 -16.122  44.539  0.00  0.00     0.069 A 
ATOM     19 CL   UNL d   1      44.505 -16.397  44.832  0.00  0.00    -0.082 Cl
ENDBRANCH   8  10
ENDBRANCH   2   7
BRANCH   1  20
ATOM     20  C   UNL d   1      46.558 -18.818  42.687  0.00  0.00     0.164 A 
ATOM     21  N   UNL d   1      46.498 -18.033  42.407  0.00  0.00    -0.225 NA
ATOM     22  C   UNL d   1      46.529 -18.077  41.597  0.00  0.00     0.101 A 
ATOM     23  C   UNL d   1      46.495 -17.482  41.042  0.00  0.00     0.021 A 
ATOM     24  C   UNL d   1      46.603 -18.823  41.364  0.00  0.00     0.101 A 
ATOM     25  C   UNL d   1      46.537 -17.653  40.236  0.00  0.00     0.002 A 
ATOM     26  C   UNL d   1      46.612 -18.404  39.999  0.00  0.00     0.002 A 
ATOM     27  C   UNL d   1      46.646 -18.994  40.557  0.00  0.00     0.021 A 
ATOM     28  N   UNL d   1      46.624 -19.306  42.022  0.00  0.00    -0.225 NA
ENDBRANCH   1  20
TORSDOF 3
ENDMDL
