MODEL 1
REMARK VINA RESULT:      -7.4      0.000      0.000
REMARK  2 active torsions:
REMARK  status: ('A' for Active; 'I' for Inactive)
REMARK    1  A    between atoms: C_5  and  C_1 
REMARK    2  A    between atoms: C_7  and  C_3 
REMARK       I    between atoms: N_8  and  C_7 
ROOT
ATOM      1  C   UNL d   1     -46.510  13.146  22.945  0.00  0.00     0.086 A 
ATOM      2  S   UNL d   1     -47.278  12.966  22.689  0.00  0.00    -0.080 SA
ATOM      3  C   UNL d   1     -47.693  13.678  22.625  0.00  0.00     0.053 A 
ATOM      4  C   UNL d   1     -46.454  13.964  23.038  0.00  0.00     0.012 A 
ATOM      5  C   UNL d   1     -47.188  14.292  22.840  0.00  0.00     0.009 A 
ENDROOT
BRANCH   3   6
ATOM      6  C   UNL d   1     -48.479  13.758  22.388  0.00  0.00     0.117 A 
ATOM      7  N   UNL d   1     -48.899  13.215  21.932  0.00  0.00    -0.238 NA
ATOM      8  C   UNL d   1     -49.664  13.520  21.828  0.00  0.00     0.088 A 
ATOM      9  C   UNL d   1     -50.320  13.226  21.427  0.00  0.00     0.020 A 
ATOM     10  C   UNL d   1     -49.708  14.244  22.220  0.00  0.00     0.049 A 
ATOM     11  C   UNL d   1     -51.017  13.658  21.419  0.00  0.00     0.002 A 
ATOM     12  C   UNL d   1     -51.061  14.382  21.811  0.00  0.00     0.001 A 
ATOM     13  C   UNL d   1     -50.409  14.676  22.210  0.00  0.00     0.008 A 
ATOM     14  S   UNL d   1     -48.971  14.391  22.567  0.00  0.00    -0.066 SA
ENDBRANCH   3   6
BRANCH   1  15
ATOM     15  C   UNL d   1     -45.907  12.597  23.082  0.00  0.00     0.271 C 
ATOM     16  N   UNL d   1     -45.240  12.598  22.600  0.00  0.00    -0.267 N 
ATOM     17  C   UNL d   1     -44.642  12.051  22.738  0.00  0.00     0.110 A 
ATOM     18  C   UNL d   1     -45.176  13.138  21.991  0.00  0.00     0.110 A 
ATOM     19  C   UNL d   1     -43.975  12.046  22.262  0.00  0.00     0.142 A 
ATOM     20  O   UNL d   1     -43.907  12.590  21.646  0.00  0.00    -0.300 OA
ATOM     21  C   UNL d   1     -44.506  13.138  21.508  0.00  0.00     0.142 A 
ATOM     22  O   UNL d   1     -45.975  12.053  23.698  0.00  0.00    -0.266 OA
ENDBRANCH   1  15
TORSDOF 2
ENDMDL
MODEL 2
REMARK VINA RESULT:      -6.9      1.884      4.717
REMARK  2 active torsions:
REMARK  status: ('A' for Active; 'I' for Inactive)
REMARK    1  A    between atoms: C_5  and  C_1 
REMARK    2  A    between atoms: C_7  and  C_3 
REMARK       I    between atoms: N_8  and  C_7 
ROOT
ATOM      1  C   UNL d   1     -48.388  14.305  22.874  0.00  0.00     0.086 A 
ATOM      2  S   UNL d   1     -48.104  13.552  23.075  0.00  0.00    -0.080 SA
ATOM      3  C   UNL d   1     -47.291  13.545  22.925  0.00  0.00     0.053 A 
ATOM      4  C   UNL d   1     -47.753  14.757  22.603  0.00  0.00     0.012 A 
ATOM      5  C   UNL d   1     -47.074  14.285  22.636  0.00  0.00     0.009 A 
ENDROOT
BRANCH   3   6
ATOM      6  C   UNL d   1     -46.784  12.905  23.046  0.00  0.00     0.117 A 
ATOM      7  N   UNL d   1     -45.990  12.874  22.825  0.00  0.00    -0.238 NA
ATOM      8  C   UNL d   1     -45.699  12.132  23.053  0.00  0.00     0.088 A 
ATOM      9  C   UNL d   1     -44.954  11.789  22.978  0.00  0.00     0.020 A 
ATOM     10  C   UNL d   1     -46.313  11.714  23.412  0.00  0.00     0.049 A 
ATOM     11  C   UNL d   1     -44.827  11.031  23.261  0.00  0.00     0.002 A 
ATOM     12  C   UNL d   1     -45.441  10.613  23.620  0.00  0.00     0.001 A 
ATOM     13  C   UNL d   1     -46.182  10.953  23.695  0.00  0.00     0.008 A 
ATOM     14  S   UNL d   1     -46.986  12.196  23.407  0.00  0.00    -0.066 SA
ENDBRANCH   3   6
BRANCH   1  15
ATOM     15  C   UNL d   1     -49.174  14.555  22.936  0.00  0.00     0.271 C 
ATOM     16  N   UNL d   1     -49.727  14.295  22.386  0.00  0.00    -0.267 N 
ATOM     17  C   UNL d   1     -50.508  14.545  22.451  0.00  0.00     0.110 A 
ATOM     18  C   UNL d   1     -49.501  13.793  21.784  0.00  0.00     0.110 A 
ATOM     19  C   UNL d   1     -51.064  14.290  21.906  0.00  0.00     0.142 A 
ATOM     20  O   UNL d   1     -50.839  13.783  21.296  0.00  0.00    -0.300 OA
ATOM     21  C   UNL d   1     -50.058  13.533  21.232  0.00  0.00     0.142 A 
ATOM     22  O   UNL d   1     -49.399  15.062  23.547  0.00  0.00    -0.266 OA
ENDBRANCH   1  15
TORSDOF 2
ENDMDL
MODEL 3
REMARK VINA RESULT:      -6.8      2.310      5.002
REMARK  2 active torsions:
REMARK  status: ('A' for Active; 'I' for Inactive)
REMARK    1  A    between atoms: C_5  and  C_1 
REMARK    2  A    between atoms: C_7  and  C_3 
REMARK       I    between atoms: N_8  and  C_7 
ROOT
ATOM      1  C   UNL d   1     -49.754  12.868  22.910  0.00  0.00     0.086 A 
ATOM      2  S   UNL d   1     -48.941  12.856  22.746  0.00  0.00    -0.080 SA
ATOM      3  C   UNL d   1     -48.596  12.287  23.236  0.00  0.00     0.053 A 
ATOM      4  C   UNL d   1     -49.906  12.308  23.497  0.00  0.00     0.012 A 
ATOM      5  C   UNL d   1     -49.188  11.949  23.698  0.00  0.00     0.009 A 
ENDROOT
BRANCH   3   6
ATOM      6  C   UNL d   1     -47.795  12.091  23.257  0.00  0.00     0.117 A 
ATOM      7  N   UNL d   1     -47.180  12.554  22.960  0.00  0.00    -0.238 NA
ATOM      8  C   UNL d   1     -46.473  12.144  23.099  0.00  0.00     0.088 A 
ATOM      9  C   UNL d   1     -45.690  12.330  22.927  0.00  0.00     0.020 A 
ATOM     10  C   UNL d   1     -46.656  11.436  23.480  0.00  0.00     0.049 A 
ATOM     11  C   UNL d   1     -45.094  11.807  23.136  0.00  0.00     0.002 A 
ATOM     12  C   UNL d   1     -45.277  11.099  23.517  0.00  0.00     0.001 A 
ATOM     13  C   UNL d   1     -46.056  10.913  23.689  0.00  0.00     0.008 A 
ATOM     14  S   UNL d   1     -47.478  11.405  23.577  0.00  0.00    -0.066 SA
ENDBRANCH   3   6
BRANCH   1  15
ATOM     15  C   UNL d   1     -50.312  13.357  22.546  0.00  0.00     0.271 C 
ATOM     16  N   UNL d   1     -50.401  14.133  22.804  0.00  0.00    -0.267 N 
ATOM     17  C   UNL d   1     -50.957  14.617  22.440  0.00  0.00     0.110 A 
ATOM     18  C   UNL d   1     -49.942  14.416  23.417  0.00  0.00     0.110 A 
ATOM     19  C   UNL d   1     -51.052  15.391  22.693  0.00  0.00     0.142 A 
ATOM     20  O   UNL d   1     -50.589  15.681  23.311  0.00  0.00    -0.300 OA
ATOM     21  C   UNL d   1     -50.033  15.195  23.675  0.00  0.00     0.142 A 
ATOM     22  O   UNL d   1     -50.774  13.067  21.927  0.00  0.00    -0.266 OA
ENDBRANCH   1  15
TORSDOF 2
ENDMDL
MODEL 4
REMARK VINA RESULT:      -6.2      1.737      4.824
REMARK  2 active torsions:
REMARK  status: ('A' for Active; 'I' for Inactive)
REMARK    1  A    between atoms: C_5  and  C_1 
REMARK    2  A    between atoms: C_7  and  C_3 
REMARK       I    between atoms: N_8  and  C_7 
ROOT
ATOM      1  C   UNL d   1     -48.562  13.701  23.038  0.00  0.00     0.086 A 
ATOM      2  S   UNL d   1     -47.813  13.767  22.687  0.00  0.00    -0.080 SA
ATOM      3  C   UNL d   1     -47.355  13.134  22.957  0.00  0.00     0.053 A 
ATOM      4  C   UNL d   1     -48.562  13.032  23.520  0.00  0.00     0.012 A 
ATOM      5  C   UNL d   1     -47.814  12.681  23.469  0.00  0.00     0.009 A 
ENDROOT
BRANCH   3   6
ATOM      6  C   UNL d   1     -46.572  12.982  22.747  0.00  0.00     0.117 A 
ATOM      7  N   UNL d   1     -46.117  12.351  23.019  0.00  0.00    -0.238 NA
ATOM      8  C   UNL d   1     -45.368  12.416  22.667  0.00  0.00     0.088 A 
ATOM      9  C   UNL d   1     -44.692  11.951  22.729  0.00  0.00     0.020 A 
ATOM     10  C   UNL d   1     -45.368  13.085  22.184  0.00  0.00     0.049 A 
ATOM     11  C   UNL d   1     -44.020  12.155  22.307  0.00  0.00     0.002 A 
ATOM     12  C   UNL d   1     -44.020  12.824  21.824  0.00  0.00     0.001 A 
ATOM     13  C   UNL d   1     -44.692  13.288  21.762  0.00  0.00     0.008 A 
ATOM     14  S   UNL d   1     -46.117  13.435  22.235  0.00  0.00    -0.066 SA
ENDBRANCH   3   6
BRANCH   1  15
ATOM     15  C   UNL d   1     -49.195  14.220  22.923  0.00  0.00     0.271 C 
ATOM     16  N   UNL d   1     -49.815  13.999  22.429  0.00  0.00    -0.267 N 
ATOM     17  C   UNL d   1     -50.444  14.517  22.315  0.00  0.00     0.110 A 
ATOM     18  C   UNL d   1     -49.803  13.273  22.057  0.00  0.00     0.110 A 
ATOM     19  C   UNL d   1     -51.064  14.304  21.825  0.00  0.00     0.142 A 
ATOM     20  O   UNL d   1     -51.056  13.571  21.447  0.00  0.00    -0.300 OA
ATOM     21  C   UNL d   1     -50.427  13.053  21.561  0.00  0.00     0.142 A 
ATOM     22  O   UNL d   1     -49.203  14.953  23.300  0.00  0.00    -0.266 OA
ENDBRANCH   1  15
TORSDOF 2
ENDMDL
MODEL 5
REMARK VINA RESULT:      -6.0      8.408      9.518
REMARK  2 active torsions:
REMARK  status: ('A' for Active; 'I' for Inactive)
REMARK    1  A    between atoms: C_5  and  C_1 
REMARK    2  A    between atoms: C_7  and  C_3 
REMARK       I    between atoms: N_8  and  C_7 
ROOT
ATOM      1  C   UNL d   1     -39.727  14.842  18.132  0.00  0.00     0.086 A 
ATOM      2  S   UNL d   1     -39.330  15.080  18.820  0.00  0.00    -0.080 SA
ATOM      3  C   UNL d   1     -39.769  14.812  19.467  0.00  0.00     0.053 A 
ATOM      4  C   UNL d   1     -40.406  14.430  18.355  0.00  0.00     0.012 A 
ATOM      5  C   UNL d   1     -40.431  14.412  19.183  0.00  0.00     0.009 A 
ENDROOT
BRANCH   3   6
ATOM      6  C   UNL d   1     -39.576  14.926  20.261  0.00  0.00     0.117 A 
ATOM      7  N   UNL d   1     -39.142  14.403  20.728  0.00  0.00    -0.238 NA
ATOM      8  C   UNL d   1     -39.082  14.739  21.484  0.00  0.00     0.088 A 
ATOM      9  C   UNL d   1     -38.718  14.475  22.173  0.00  0.00     0.020 A 
ATOM     10  C   UNL d   1     -39.479  15.462  21.476  0.00  0.00     0.049 A 
ATOM     11  C   UNL d   1     -38.751  14.935  22.851  0.00  0.00     0.002 A 
ATOM     12  C   UNL d   1     -39.147  15.658  22.843  0.00  0.00     0.001 A 
ATOM     13  C   UNL d   1     -39.510  15.922  22.158  0.00  0.00     0.008 A 
ATOM     14  S   UNL d   1     -39.785  15.577  20.716  0.00  0.00    -0.066 SA
ENDBRANCH   3   6
BRANCH   1  15
ATOM     15  C   UNL d   1     -39.481  14.994  17.357  0.00  0.00     0.271 C 
ATOM     16  N   UNL d   1     -39.027  14.436  16.959  0.00  0.00    -0.267 N 
ATOM     17  C   UNL d   1     -38.784  14.590  16.188  0.00  0.00     0.110 A 
ATOM     18  C   UNL d   1     -38.821  13.738  17.328  0.00  0.00     0.110 A 
ATOM     19  C   UNL d   1     -38.331  14.038  15.786  0.00  0.00     0.142 A 
ATOM     20  O   UNL d   1     -38.121  13.331  16.155  0.00  0.00    -0.300 OA
ATOM     21  C   UNL d   1     -38.364  13.178  16.926  0.00  0.00     0.142 A 
ATOM     22  O   UNL d   1     -39.692  15.701  16.988  0.00  0.00    -0.266 OA
ENDBRANCH   1  15
TORSDOF 2
ENDMDL
MODEL 6
REMARK VINA RESULT:      -5.5      7.949      9.652
REMARK  2 active torsions:
REMARK  status: ('A' for Active; 'I' for Inactive)
REMARK    1  A    between atoms: C_5  and  C_1 
REMARK    2  A    between atoms: C_7  and  C_3 
REMARK       I    between atoms: N_8  and  C_7 
ROOT
ATOM      1  C   UNL d   1     -40.228  14.818  19.627  0.00  0.00     0.086 A 
ATOM      2  S   UNL d   1     -39.685  14.435  19.131  0.00  0.00    -0.080 SA
ATOM      3  C   UNL d   1     -39.778  14.746  18.371  0.00  0.00     0.053 A 
ATOM      4  C   UNL d   1     -40.652  15.362  19.173  0.00  0.00     0.012 A 
ATOM      5  C   UNL d   1     -40.372  15.316  18.395  0.00  0.00     0.009 A 
ENDROOT
BRANCH   3   6
ATOM      6  C   UNL d   1     -39.349  14.523  17.702  0.00  0.00     0.117 A 
ATOM      7  N   UNL d   1     -39.081  13.761  17.537  0.00  0.00    -0.238 NA
ATOM      8  C   UNL d   1     -38.678  13.793  16.813  0.00  0.00     0.088 A 
ATOM      9  C   UNL d   1     -38.297  13.211  16.373  0.00  0.00     0.020 A 
ATOM     10  C   UNL d   1     -38.701  14.570  16.539  0.00  0.00     0.049 A 
ATOM     11  C   UNL d   1     -37.940  13.409  15.662  0.00  0.00     0.002 A 
ATOM     12  C   UNL d   1     -37.962  14.187  15.388  0.00  0.00     0.001 A 
ATOM     13  C   UNL d   1     -38.342  14.767  15.825  0.00  0.00     0.008 A 
ATOM     14  S   UNL d   1     -39.118  15.023  17.093  0.00  0.00    -0.066 SA
ENDBRANCH   3   6
BRANCH   1  15
ATOM     15  C   UNL d   1     -40.324  14.677  20.435  0.00  0.00     0.271 C 
ATOM     16  N   UNL d   1     -39.825  15.047  20.974  0.00  0.00    -0.267 N 
ATOM     17  C   UNL d   1     -39.923  14.905  21.778  0.00  0.00     0.110 A 
ATOM     18  C   UNL d   1     -39.239  15.550  20.710  0.00  0.00     0.110 A 
ATOM     19  C   UNL d   1     -39.429  15.270  22.320  0.00  0.00     0.142 A 
ATOM     20  O   UNL d   1     -38.836  15.779  22.058  0.00  0.00    -0.300 OA
ATOM     21  C   UNL d   1     -38.738  15.922  21.253  0.00  0.00     0.142 A 
ATOM     22  O   UNL d   1     -40.917  14.168  20.698  0.00  0.00    -0.266 OA
ENDBRANCH   1  15
TORSDOF 2
ENDMDL
MODEL 7
REMARK VINA RESULT:      -4.9      7.643      8.516
REMARK  2 active torsions:
REMARK  status: ('A' for Active; 'I' for Inactive)
REMARK    1  A    between atoms: C_5  and  C_1 
REMARK    2  A    between atoms: C_7  and  C_3 
REMARK       I    between atoms: N_8  and  C_7 
ROOT
ATOM      1  C   UNL d   1     -39.874  14.982  21.382  0.00  0.00     0.086 A 
ATOM      2  S   UNL d   1     -39.714  15.229  20.607  0.00  0.00    -0.080 SA
ATOM      3  C   UNL d   1     -40.305  14.919  20.119  0.00  0.00     0.053 A 
ATOM      4  C   UNL d   1     -40.559  14.522  21.370  0.00  0.00     0.012 A 
ATOM      5  C   UNL d   1     -40.825  14.484  20.586  0.00  0.00     0.009 A 
ENDROOT
BRANCH   3   6
ATOM      6  C   UNL d   1     -40.363  15.027  19.303  0.00  0.00     0.117 A 
ATOM      7  N   UNL d   1     -40.813  15.607  18.927  0.00  0.00    -0.238 NA
ATOM      8  C   UNL d   1     -40.707  15.510  18.110  0.00  0.00     0.088 A 
ATOM      9  C   UNL d   1     -41.013  15.922  17.467  0.00  0.00     0.020 A 
ATOM     10  C   UNL d   1     -40.195  14.875  17.990  0.00  0.00     0.049 A 
ATOM     11  C   UNL d   1     -40.806  15.697  16.706  0.00  0.00     0.002 A 
ATOM     12  C   UNL d   1     -40.295  15.061  16.586  0.00  0.00     0.001 A 
ATOM     13  C   UNL d   1     -39.990  14.650  17.226  0.00  0.00     0.008 A 
ATOM     14  S   UNL d   1     -39.983  14.576  18.732  0.00  0.00    -0.066 SA
ENDBRANCH   3   6
BRANCH   1  15
ATOM     15  C   UNL d   1     -39.422  15.166  22.049  0.00  0.00     0.271 C 
ATOM     16  N   UNL d   1     -38.930  14.594  22.377  0.00  0.00    -0.267 N 
ATOM     17  C   UNL d   1     -38.482  14.780  23.040  0.00  0.00     0.110 A 
ATOM     18  C   UNL d   1     -38.890  13.850  22.044  0.00  0.00     0.110 A 
ATOM     19  C   UNL d   1     -37.990  14.215  23.372  0.00  0.00     0.142 A 
ATOM     20  O   UNL d   1     -37.946  13.462  23.039  0.00  0.00    -0.300 OA
ATOM     21  C   UNL d   1     -38.395  13.276  22.374  0.00  0.00     0.142 A 
ATOM     22  O   UNL d   1     -39.466  15.919  22.382  0.00  0.00    -0.266 OA
ENDBRANCH   1  15
TORSDOF 2
ENDMDL
