MODEL 1
REMARK VINA RESULT:      50.7      0.000      0.000
REMARK  5 active torsions:
REMARK  status: ('A' for Active; 'I' for Inactive)
REMARK    1  A    between atoms: C_11  and  N_1 
REMARK    2  A    between atoms: C_5  and  C_3 
REMARK       I    between atoms: N_14  and  C_5 
REMARK    3  A    between atoms: N_7  and  C_18 
REMARK    4  A    between atoms: C_17  and  N_14 
REMARK    5  A    between atoms: C_18  and  C_17 
ROOT
ATOM      1  C   UNL d   1     -48.373  28.760  34.707  0.00  0.00     0.281 C 
ATOM      2  O   UNL d   1     -48.030  28.118  35.092  0.00  0.00    -0.265 OA
ATOM      3  N   UNL d   1     -48.985  28.634  34.177  0.00  0.00    -0.205 NA
ENDROOT
BRANCH   1   4
ATOM      4  C   UNL d   1     -48.098  29.528  34.857  0.00  0.00     0.080 A 
ATOM      5  C   UNL d   1     -48.163  30.174  34.347  0.00  0.00     0.088 A 
ATOM      6  N   UNL d   1     -47.816  30.822  34.722  0.00  0.00    -0.273 N 
ATOM      7  C   UNL d   1     -47.539  30.581  35.455  0.00  0.00     0.265 A 
ATOM      8  C   UNL d   1     -47.714  29.777  35.542  0.00  0.00     0.067 A 
ATOM      9  O   UNL d   1     -47.157  31.091  35.985  0.00  0.00    -0.267 OA
BRANCH   6  10
ATOM     10  C   UNL d   1     -47.757  31.585  34.411  0.00  0.00     0.067 A 
ATOM     11  C   UNL d   1     -48.365  31.996  34.030  0.00  0.00     0.018 A 
ATOM     12  C   UNL d   1     -48.068  32.733  33.809  0.00  0.00     0.002 A 
ATOM     13  C   UNL d   1     -47.282  32.770  34.055  0.00  0.00     0.002 A 
ATOM     14  C   UNL d   1     -47.087  32.068  34.424  0.00  0.00     0.018 A 
ENDBRANCH   6  10
ENDBRANCH   1   4
BRANCH   3  15
ATOM     15  C   UNL d   1     -49.256  27.874  34.030  0.00  0.00     0.121 C 
BRANCH  15  16
ATOM     16  C   UNL d   1     -49.646  27.697  33.330  0.00  0.00     0.101 C 
BRANCH  16  17
ATOM     17  N   UNL d   1     -50.212  27.089  33.324  0.00  0.00    -0.301 N 
ATOM     18  C   UNL d   1     -49.965  26.304  33.321  0.00  0.00     0.080 A 
ATOM     19  C   UNL d   1     -50.532  25.703  33.316  0.00  0.00     0.018 A 
ATOM     20  C   UNL d   1     -50.298  24.919  33.313  0.00  0.00     0.002 A 
ATOM     21  C   UNL d   1     -51.334  25.885  33.314  0.00  0.00     0.003 A 
ATOM     22  C   UNL d   1     -50.853  24.319  33.308  0.00  0.00     0.000 A 
ATOM     23  C   UNL d   1     -51.661  24.500  33.306  0.00  0.00     0.000 A 
ATOM     24  C   UNL d   1     -51.903  25.288  33.309  0.00  0.00     0.000 A 
ATOM     25  C   UNL d   1     -51.573  26.677  33.317  0.00  0.00     0.019 A 
ATOM     26  C   UNL d   1     -51.009  27.284  33.322  0.00  0.00     0.080 A 
ENDBRANCH  16  17
ENDBRANCH  15  16
ENDBRANCH   3  15
TORSDOF 5
ENDMDL
MODEL 2
REMARK VINA RESULT:      53.6      0.652      1.130
REMARK  5 active torsions:
REMARK  status: ('A' for Active; 'I' for Inactive)
REMARK    1  A    between atoms: C_11  and  N_1 
REMARK    2  A    between atoms: C_5  and  C_3 
REMARK       I    between atoms: N_14  and  C_5 
REMARK    3  A    between atoms: N_7  and  C_18 
REMARK    4  A    between atoms: C_17  and  N_14 
REMARK    5  A    between atoms: C_18  and  C_17 
ROOT
ATOM      1  C   UNL d   1     -48.299  28.123  34.783  0.00  0.00     0.281 C 
ATOM      2  O   UNL d   1     -47.797  27.473  34.844  0.00  0.00    -0.265 OA
ATOM      3  N   UNL d   1     -49.031  28.038  34.426  0.00  0.00    -0.205 NA
ENDROOT
BRANCH   1   4
ATOM      4  C   UNL d   1     -48.062  28.860  35.084  0.00  0.00     0.080 A 
ATOM      5  C   UNL d   1     -48.073  29.576  34.675  0.00  0.00     0.088 A 
ATOM      6  N   UNL d   1     -47.791  30.158  35.187  0.00  0.00    -0.273 N 
ATOM      7  C   UNL d   1     -47.607  29.807  35.905  0.00  0.00     0.265 A 
ATOM      8  C   UNL d   1     -47.774  28.999  35.843  0.00  0.00     0.067 A 
ATOM      9  O   UNL d   1     -47.306  30.229  36.552  0.00  0.00    -0.267 OA
BRANCH   6  10
ATOM     10  C   UNL d   1     -47.708  30.960  35.007  0.00  0.00     0.067 A 
ATOM     11  C   UNL d   1     -48.183  31.386  34.482  0.00  0.00     0.018 A 
ATOM     12  C   UNL d   1     -47.908  32.163  34.468  0.00  0.00     0.002 A 
ATOM     13  C   UNL d   1     -47.267  32.210  34.985  0.00  0.00     0.002 A 
ATOM     14  C   UNL d   1     -47.141  31.475  35.317  0.00  0.00     0.018 A 
ENDBRANCH   6  10
ENDBRANCH   1   4
BRANCH   3  15
ATOM     15  C   UNL d   1     -49.265  27.310  34.129  0.00  0.00     0.121 C 
BRANCH  15  16
ATOM     16  C   UNL d   1     -49.838  27.261  33.544  0.00  0.00     0.101 C 
BRANCH  16  17
ATOM     17  N   UNL d   1     -50.311  26.579  33.496  0.00  0.00    -0.301 N 
ATOM     18  C   UNL d   1     -51.129  26.655  33.448  0.00  0.00     0.080 A 
ATOM     19  C   UNL d   1     -51.594  25.973  33.401  0.00  0.00     0.018 A 
ATOM     20  C   UNL d   1     -52.408  26.036  33.352  0.00  0.00     0.002 A 
ATOM     21  C   UNL d   1     -51.245  25.228  33.402  0.00  0.00     0.003 A 
ATOM     22  C   UNL d   1     -52.875  25.366  33.306  0.00  0.00     0.000 A 
ATOM     23  C   UNL d   1     -52.526  24.615  33.307  0.00  0.00     0.000 A 
ATOM     24  C   UNL d   1     -51.707  24.546  33.355  0.00  0.00     0.000 A 
ATOM     25  C   UNL d   1     -50.422  25.162  33.451  0.00  0.00     0.019 A 
ATOM     26  C   UNL d   1     -49.950  25.842  33.498  0.00  0.00     0.080 A 
ENDBRANCH  16  17
ENDBRANCH  15  16
ENDBRANCH   3  15
TORSDOF 5
ENDMDL
