MODEL 1
REMARK VINA RESULT:      -3.4      0.000      0.000
REMARK  5 active torsions:
REMARK  status: ('A' for Active; 'I' for Inactive)
REMARK    1  A    between atoms: C_6  and  N_1 
REMARK    2  A    between atoms: C_13  and  C_6 
REMARK    3  A    between atoms: O_11  and  C_7 
REMARK    4  A    between atoms: O_19  and  C_8 
REMARK    5  A    between atoms: C_20  and  O_11 
ROOT
ATOM      1  C   UNL d   1      56.963  -0.083  32.756  0.00  0.00     0.122 A 
ATOM      2  C   UNL d   1      57.608   0.410  32.893  0.00  0.00     0.117 A 
ATOM      3  C   UNL d   1      58.097   0.639  32.268  0.00  0.00     0.028 A 
ATOM      4  C   UNL d   1      57.931   0.369  31.509  0.00  0.00     0.020 A 
ATOM      5  C   UNL d   1      56.807  -0.348  31.991  0.00  0.00     0.027 A 
ATOM      6  C   UNL d   1      57.291  -0.120  31.374  0.00  0.00     0.004 A 
ENDROOT
BRANCH   4   7
ATOM      7  C   UNL d   1      58.422   0.600  30.887  0.00  0.00     0.085 C 
BRANCH   7   8
ATOM      8  N   UNL d   1      58.334   0.251  30.145  0.00  0.00    -0.251 N 
ATOM      9  C   UNL d   1      57.679   0.280  29.627  0.00  0.00     0.378 A 
ATOM     10  O   UNL d   1      57.866  -0.160  28.952  0.00  0.00    -0.258 OA
ATOM     11  O   UNL d   1      56.974   0.678  29.772  0.00  0.00    -0.237 OA
ATOM     12  C   UNL d   1      58.632  -0.460  29.048  0.00  0.00     0.121 A 
ATOM     13  C   UNL d   1      58.921  -0.207  29.785  0.00  0.00     0.092 A 
ATOM     14  C   UNL d   1      59.112  -0.933  28.566  0.00  0.00     0.026 A 
ATOM     15  C   UNL d   1      59.674  -0.421  30.034  0.00  0.00     0.020 A 
ATOM     16  C   UNL d   1      60.144  -0.891  29.547  0.00  0.00     0.002 A 
ATOM     17  C   UNL d   1      59.864  -1.146  28.816  0.00  0.00     0.002 A 
ATOM     18  C   UNL d   1      60.902  -1.104  29.803  0.00  0.00     0.000 C 
ENDBRANCH   7   8
ENDBRANCH   4   7
BRANCH   2  19
ATOM     19  O   UNL d   1      57.772   0.679  33.648  0.00  0.00    -0.326 OA
ATOM     20  C   UNL d   1      58.545   0.629  33.937  0.00  0.00     0.181 C 
ENDBRANCH   2  19
BRANCH   1  21
ATOM     21  O   UNL d   1      56.475  -0.312  33.376  0.00  0.00    -0.305 OA
BRANCH  21  22
ATOM     22  C   UNL d   1      55.741  -0.638  33.218  0.00  0.00     0.100 C 
ATOM     23  C   UNL d   1      55.060  -0.237  33.428  0.00  0.00     0.027 C 
ATOM     24  C   UNL d   1      55.688  -1.373  32.845  0.00  0.00     0.027 C 
ENDBRANCH  21  22
ENDBRANCH   1  21
TORSDOF 5
ENDMDL
MODEL 2
REMARK VINA RESULT:      -3.0      1.251      1.703
REMARK  5 active torsions:
REMARK  status: ('A' for Active; 'I' for Inactive)
REMARK    1  A    between atoms: C_6  and  N_1 
REMARK    2  A    between atoms: C_13  and  C_6 
REMARK    3  A    between atoms: O_11  and  C_7 
REMARK    4  A    between atoms: O_19  and  C_8 
REMARK    5  A    between atoms: C_20  and  O_11 
ROOT
ATOM      1  C   UNL d   1      57.164  -0.507  31.999  0.00  0.00     0.122 A 
ATOM      2  C   UNL d   1      57.677   0.097  31.778  0.00  0.00     0.117 A 
ATOM      3  C   UNL d   1      57.989   0.119  31.014  0.00  0.00     0.028 A 
ATOM      4  C   UNL d   1      57.782  -0.470  30.479  0.00  0.00     0.020 A 
ATOM      5  C   UNL d   1      56.962  -1.092  31.454  0.00  0.00     0.027 A 
ATOM      6  C   UNL d   1      57.273  -1.069  30.698  0.00  0.00     0.004 A 
ENDROOT
BRANCH   4   7
ATOM      7  C   UNL d   1      58.096  -0.445  29.716  0.00  0.00     0.085 C 
BRANCH   7   8
ATOM      8  N   UNL d   1      58.879  -0.671  29.588  0.00  0.00    -0.251 N 
ATOM      9  C   UNL d   1      59.575  -0.219  29.678  0.00  0.00     0.378 A 
ATOM     10  O   UNL d   1      60.220  -0.698  29.481  0.00  0.00    -0.258 OA
ATOM     11  O   UNL d   1      59.606   0.567  29.921  0.00  0.00    -0.237 OA
ATOM     12  C   UNL d   1      59.927  -1.444  29.270  0.00  0.00     0.121 A 
ATOM     13  C   UNL d   1      59.099  -1.427  29.336  0.00  0.00     0.092 A 
ATOM     14  C   UNL d   1      60.299  -2.142  29.025  0.00  0.00     0.026 A 
ATOM     15  C   UNL d   1      58.653  -2.094  29.161  0.00  0.00     0.020 A 
ATOM     16  C   UNL d   1      59.033  -2.784  28.918  0.00  0.00     0.002 A 
ATOM     17  C   UNL d   1      59.853  -2.808  28.850  0.00  0.00     0.002 A 
ATOM     18  C   UNL d   1      58.578  -3.453  28.743  0.00  0.00     0.000 C 
ENDBRANCH   7   8
ENDBRANCH   4   7
BRANCH   2  19
ATOM     19  O   UNL d   1      57.882   0.682  32.312  0.00  0.00    -0.326 OA
ATOM     20  C   UNL d   1      58.641   0.682  32.640  0.00  0.00     0.181 C 
ENDBRANCH   2  19
BRANCH   1  21
ATOM     21  O   UNL d   1      56.851  -0.531  32.759  0.00  0.00    -0.305 OA
BRANCH  21  22
ATOM     22  C   UNL d   1      56.086  -0.799  32.877  0.00  0.00     0.100 C 
ATOM     23  C   UNL d   1      55.929  -1.602  32.889  0.00  0.00     0.027 C 
ATOM     24  C   UNL d   1      55.472  -0.258  32.983  0.00  0.00     0.027 C 
ENDBRANCH  21  22
ENDBRANCH   1  21
TORSDOF 5
ENDMDL
MODEL 3
REMARK VINA RESULT:      -3.0      1.347      4.474
REMARK  5 active torsions:
REMARK  status: ('A' for Active; 'I' for Inactive)
REMARK    1  A    between atoms: C_6  and  N_1 
REMARK    2  A    between atoms: C_13  and  C_6 
REMARK    3  A    between atoms: O_11  and  C_7 
REMARK    4  A    between atoms: O_19  and  C_8 
REMARK    5  A    between atoms: C_20  and  O_11 
ROOT
ATOM      1  C   UNL d   1      59.211   0.446  30.102  0.00  0.00     0.122 A 
ATOM      2  C   UNL d   1      58.536   0.307  29.652  0.00  0.00     0.117 A 
ATOM      3  C   UNL d   1      57.798   0.247  30.018  0.00  0.00     0.028 A 
ATOM      4  C   UNL d   1      57.747   0.327  30.835  0.00  0.00     0.020 A 
ATOM      5  C   UNL d   1      59.149   0.525  30.920  0.00  0.00     0.027 A 
ATOM      6  C   UNL d   1      58.418   0.465  31.280  0.00  0.00     0.004 A 
ENDROOT
BRANCH   4   7
ATOM      7  C   UNL d   1      57.009   0.266  31.197  0.00  0.00     0.085 C 
BRANCH   7   8
ATOM      8  N   UNL d   1      56.814  -0.415  31.619  0.00  0.00    -0.251 N 
ATOM      9  C   UNL d   1      56.989  -1.211  31.437  0.00  0.00     0.378 A 
ATOM     10  O   UNL d   1      56.672  -1.687  32.035  0.00  0.00    -0.258 OA
ATOM     11  O   UNL d   1      57.405  -1.469  30.775  0.00  0.00    -0.237 OA
ATOM     12  C   UNL d   1      56.302  -1.190  32.586  0.00  0.00     0.121 A 
ATOM     13  C   UNL d   1      56.390  -0.405  32.329  0.00  0.00     0.092 A 
ATOM     14  C   UNL d   1      55.895  -1.342  33.291  0.00  0.00     0.026 A 
ATOM     15  C   UNL d   1      56.077   0.215  32.767  0.00  0.00     0.020 A 
ATOM     16  C   UNL d   1      55.673   0.053  33.468  0.00  0.00     0.002 A 
ATOM     17  C   UNL d   1      55.582  -0.722  33.728  0.00  0.00     0.002 A 
ATOM     18  C   UNL d   1      55.360   0.682  33.906  0.00  0.00     0.000 C 
ENDBRANCH   7   8
ENDBRANCH   4   7
BRANCH   2  19
ATOM     19  O   UNL d   1      58.588   0.228  28.840  0.00  0.00    -0.326 OA
ATOM     20  C   UNL d   1      58.103  -0.321  28.455  0.00  0.00     0.181 C 
ENDBRANCH   2  19
BRANCH   1  21
ATOM     21  O   UNL d   1      59.947   0.507  29.740  0.00  0.00    -0.305 OA
BRANCH  21  22
ATOM     22  C   UNL d   1      60.597   0.136  30.073  0.00  0.00     0.100 C 
ATOM     23  C   UNL d   1      60.803   0.287  30.850  0.00  0.00     0.027 C 
ATOM     24  C   UNL d   1      61.044  -0.393  29.623  0.00  0.00     0.027 C 
ENDBRANCH  21  22
ENDBRANCH   1  21
TORSDOF 5
ENDMDL
MODEL 4
REMARK VINA RESULT:      -2.0      1.248      2.170
REMARK  5 active torsions:
REMARK  status: ('A' for Active; 'I' for Inactive)
REMARK    1  A    between atoms: C_6  and  N_1 
REMARK    2  A    between atoms: C_13  and  C_6 
REMARK    3  A    between atoms: O_11  and  C_7 
REMARK    4  A    between atoms: O_19  and  C_8 
REMARK    5  A    between atoms: C_20  and  O_11 
ROOT
ATOM      1  C   UNL d   1      55.863  -0.183  33.408  0.00  0.00     0.122 A 
ATOM      2  C   UNL d   1      55.990  -0.817  32.899  0.00  0.00     0.117 A 
ATOM      3  C   UNL d   1      56.382  -0.701  32.181  0.00  0.00     0.028 A 
ATOM      4  C   UNL d   1      56.643   0.054  31.983  0.00  0.00     0.020 A 
ATOM      5  C   UNL d   1      56.129   0.569  33.200  0.00  0.00     0.027 A 
ATOM      6  C   UNL d   1      56.517   0.682  32.490  0.00  0.00     0.004 A 
ENDROOT
BRANCH   4   7
ATOM      7  C   UNL d   1      57.035   0.165  31.266  0.00  0.00     0.085 C 
BRANCH   7   8
ATOM      8  N   UNL d   1      57.856   0.240  31.255  0.00  0.00    -0.251 N 
ATOM      9  C   UNL d   1      58.369   0.475  31.870  0.00  0.00     0.378 A 
ATOM     10  O   UNL d   1      59.143   0.461  31.579  0.00  0.00    -0.258 OA
ATOM     11  O   UNL d   1      58.136   0.682  32.632  0.00  0.00    -0.237 OA
ATOM     12  C   UNL d   1      59.113   0.220  30.787  0.00  0.00     0.121 A 
ATOM     13  C   UNL d   1      58.318   0.083  30.586  0.00  0.00     0.092 A 
ATOM     14  C   UNL d   1      59.700   0.104  30.215  0.00  0.00     0.026 A 
ATOM     15  C   UNL d   1      58.115  -0.164  29.830  0.00  0.00     0.020 A 
ATOM     16  C   UNL d   1      58.707  -0.276  29.267  0.00  0.00     0.002 A 
ATOM     17  C   UNL d   1      59.496  -0.143  29.459  0.00  0.00     0.002 A 
ATOM     18  C   UNL d   1      58.497  -0.525  28.506  0.00  0.00     0.000 C 
ENDBRANCH   7   8
ENDBRANCH   4   7
BRANCH   2  19
ATOM     19  O   UNL d   1      55.729  -1.566  33.097  0.00  0.00    -0.326 OA
ATOM     20  C   UNL d   1      55.555  -2.106  32.495  0.00  0.00     0.181 C 
ENDBRANCH   2  19
BRANCH   1  21
ATOM     21  O   UNL d   1      55.473  -0.295  34.123  0.00  0.00    -0.305 OA
BRANCH  21  22
ATOM     22  C   UNL d   1      55.197   0.352  34.542  0.00  0.00     0.100 C 
ATOM     23  C   UNL d   1      54.466   0.674  34.367  0.00  0.00     0.027 C 
ATOM     24  C   UNL d   1      55.657   0.680  35.144  0.00  0.00     0.027 C 
ENDBRANCH  21  22
ENDBRANCH   1  21
TORSDOF 5
ENDMDL
MODEL 5
REMARK VINA RESULT:      -1.7      1.801      4.675
REMARK  5 active torsions:
REMARK  status: ('A' for Active; 'I' for Inactive)
REMARK    1  A    between atoms: C_6  and  N_1 
REMARK    2  A    between atoms: C_13  and  C_6 
REMARK    3  A    between atoms: O_11  and  C_7 
REMARK    4  A    between atoms: O_19  and  C_8 
REMARK    5  A    between atoms: C_20  and  O_11 
ROOT
ATOM      1  C   UNL d   1      59.714  -2.610  28.672  0.00  0.00     0.122 A 
ATOM      2  C   UNL d   1      58.936  -2.687  28.929  0.00  0.00     0.117 A 
ATOM      3  C   UNL d   1      58.500  -2.018  29.140  0.00  0.00     0.028 A 
ATOM      4  C   UNL d   1      58.853  -1.276  29.090  0.00  0.00     0.020 A 
ATOM      5  C   UNL d   1      60.058  -1.862  28.626  0.00  0.00     0.027 A 
ATOM      6  C   UNL d   1      59.625  -1.201  28.835  0.00  0.00     0.004 A 
ENDROOT
BRANCH   4   7
ATOM      7  C   UNL d   1      58.415  -0.610  29.302  0.00  0.00     0.085 C 
BRANCH   7   8
ATOM      8  N   UNL d   1      58.661  -0.142  29.935  0.00  0.00    -0.251 N 
ATOM      9  C   UNL d   1      59.358   0.313  30.009  0.00  0.00     0.378 A 
ATOM     10  O   UNL d   1      59.346   0.682  30.750  0.00  0.00    -0.258 OA
ATOM     11  O   UNL d   1      59.948   0.378  29.440  0.00  0.00    -0.237 OA
ATOM     12  C   UNL d   1      58.647   0.458  31.134  0.00  0.00     0.121 A 
ATOM     13  C   UNL d   1      58.224  -0.050  30.631  0.00  0.00     0.092 A 
ATOM     14  C   UNL d   1      58.331   0.646  31.876  0.00  0.00     0.026 A 
ATOM     15  C   UNL d   1      57.501  -0.364  30.865  0.00  0.00     0.020 A 
ATOM     16  C   UNL d   1      57.197  -0.170  31.606  0.00  0.00     0.002 A 
ATOM     17  C   UNL d   1      57.610   0.333  32.110  0.00  0.00     0.002 A 
ATOM     18  C   UNL d   1      56.469  -0.489  31.837  0.00  0.00     0.000 C 
ENDBRANCH   7   8
ENDBRANCH   4   7
BRANCH   2  19
ATOM     19  O   UNL d   1      58.586  -3.424  28.979  0.00  0.00    -0.326 OA
ATOM     20  C   UNL d   1      57.876  -3.563  28.578  0.00  0.00     0.181 C 
ENDBRANCH   2  19
BRANCH   1  21
ATOM     21  O   UNL d   1      60.150  -3.274  28.461  0.00  0.00    -0.305 OA
BRANCH  21  22
ATOM     22  C   UNL d   1      60.804  -3.490  28.904  0.00  0.00     0.100 C 
ATOM     23  C   UNL d   1      61.133  -2.962  29.436  0.00  0.00     0.027 C 
ATOM     24  C   UNL d   1      61.133  -4.242  28.813  0.00  0.00     0.027 C 
ENDBRANCH  21  22
ENDBRANCH   1  21
TORSDOF 5
ENDMDL
