MODEL 1
REMARK VINA RESULT:     104.7      0.000      0.000
REMARK  1 active torsions:
REMARK  status: ('A' for Active; 'I' for Inactive)
REMARK    1  A    between atoms: C_7  and  C_1 
ROOT
ATOM      1  C   UNL d   1     -56.890 -98.945 -44.950  0.00  0.00     0.062 A 
ATOM      2  C   UNL d   1     -57.700 -99.008 -44.829  0.00  0.00     0.202 A 
ATOM      3  C   UNL d   1     -58.234 -98.959 -45.443  0.00  0.00     0.101 A 
ATOM      4  C   UNL d   1     -56.607 -98.827 -45.728  0.00  0.00     0.103 A 
ATOM      5  C   UNL d   1     -57.950 -98.841 -46.220  0.00  0.00     0.109 A 
ATOM      6  O   UNL d   1     -57.140 -98.776 -46.364  0.00  0.00    -0.307 OA
ATOM      7  C   UNL d   1     -59.021 -99.021 -45.313  0.00  0.00     0.204 A 
ATOM      8  C   UNL d   1     -58.461 -98.789 -46.848  0.00  0.00     0.067 A 
ATOM      9  C   UNL d   1     -59.558 -98.972 -45.928  0.00  0.00     0.084 A 
ATOM     10  O   UNL d   1     -57.982 -99.125 -44.056  0.00  0.00    -0.286 OA
ATOM     11  C   UNL d   1     -59.274 -98.855 -46.706  0.00  0.00     0.201 A 
ATOM     12  O   UNL d   1     -59.303 -99.138 -44.540  0.00  0.00    -0.286 OA
ATOM     13  C   UNL d   1     -55.792 -98.762 -45.870  0.00  0.00     0.027 C 
ATOM     14  O   UNL d   1     -59.800 -98.803 -47.340  0.00  0.00    -0.286 OA
ENDROOT
BRANCH   1  15
ATOM     15  C   UNL d   1     -56.360 -98.997 -44.316  0.00  0.00     0.007 A 
ATOM     16  C   UNL d   1     -56.635 -98.865 -43.565  0.00  0.00     0.027 A 
ATOM     17  C   UNL d   1     -56.105 -98.917 -42.936  0.00  0.00     0.123 A 
ATOM     18  O   UNL d   1     -56.487 -98.767 -42.229  0.00  0.00    -0.303 OA
ATOM     19  C   UNL d   1     -55.325 -99.096 -43.069  0.00  0.00     0.123 A 
ATOM     20  C   UNL d   1     -56.176 -98.761 -41.478  0.00  0.00     0.125 A 
ATOM     21  C   UNL d   1     -55.399 -98.904 -41.247  0.00  0.00     0.053 A 
ATOM     22  C   UNL d   1     -54.744 -99.090 -41.724  0.00  0.00     0.125 A 
ATOM     23  O   UNL d   1     -54.713 -99.175 -42.533  0.00  0.00    -0.303 OA
ATOM     24  C   UNL d   1     -55.052 -99.229 -43.836  0.00  0.00     0.027 A 
ATOM     25  C   UNL d   1     -55.584 -99.177 -44.470  0.00  0.00     0.002 A 
ENDBRANCH   1  15
TORSDOF 1
ENDMDL
