MODEL 1
REMARK VINA RESULT:       1.9      0.000      0.000
REMARK  6 active torsions:
REMARK  status: ('A' for Active; 'I' for Inactive)
REMARK    1  A    between atoms: N_3  and  S_1 
REMARK    2  A    between atoms: C_11  and  S_1 
REMARK    3  A    between atoms: C_2  and  N_3 
REMARK    4  A    between atoms: C_5  and  C_7 
REMARK       I    between atoms: C_7  and  N_12 
REMARK    5  A    between atoms: C_27  and  C_9 
REMARK    6  A    between atoms: N_12  and  C_20 
ROOT
ATOM      1  C   UNL d   1     -42.144-122.682 -51.948  0.00  0.00     0.105 A 
ATOM      2  C   UNL d   1     -42.624-123.235 -52.327  0.00  0.00     0.015 A 
ATOM      3  C   UNL d   1     -41.399-122.507 -52.238  0.00  0.00     0.015 A 
ATOM      4  C   UNL d   1     -41.594-123.437 -53.299  0.00  0.00     0.085 A 
ATOM      5  C   UNL d   1     -42.339-123.612 -53.008  0.00  0.00     0.020 A 
ATOM      6  C   UNL d   1     -41.123-122.884 -52.912  0.00  0.00     0.020 A 
ENDROOT
BRANCH   1   7
ATOM      7  S   UNL d   1     -42.427-122.297 -51.257  0.00  0.00     0.287 S 
ATOM      8  O   UNL d   1     -42.493-121.592 -51.682  0.00  0.00    -0.198 OA
ATOM      9  O   UNL d   1     -42.703-121.932 -50.570  0.00  0.00    -0.198 OA
BRANCH   7  10
ATOM     10  N   UNL d   1     -42.356-123.013 -50.838  0.00  0.00    -0.130 NA
BRANCH  10  11
ATOM     11  C   UNL d   1     -42.527-123.042 -50.028  0.00  0.00     0.227 A 
ATOM     12  S   UNL d   1     -41.999-122.896 -49.440  0.00  0.00    -0.025 SA
ATOM     13  C   UNL d   1     -42.404-122.987 -48.701  0.00  0.00     0.135 A 
ATOM     14  N   UNL d   1     -43.194-123.193 -48.871  0.00  0.00    -0.139 NA
ATOM     15  N   UNL d   1     -43.251-123.223 -49.709  0.00  0.00    -0.120 NA
BRANCH  13  16
ATOM     16  C   UNL d   1     -42.176-122.915 -47.917  0.00  0.00     0.028 C 
ATOM     17  C   UNL d   1     -42.575-123.365 -47.340  0.00  0.00     0.002 C 
ENDBRANCH  13  16
ENDBRANCH  10  11
ENDBRANCH   7  10
ENDBRANCH   1   7
BRANCH   4  18
ATOM     18  N   UNL d   1     -41.301-123.816 -53.987  0.00  0.00    -0.208 NA
ATOM     19  C   UNL d   1     -41.406-123.456 -54.730  0.00  0.00     0.280 C 
ATOM     20  O   UNL d   1     -41.124-123.817 -55.410  0.00  0.00    -0.265 OA
BRANCH  19  21
ATOM     21  C   UNL d   1     -41.797-122.730 -54.780  0.00  0.00     0.069 A 
ATOM     22  C   UNL d   1     -42.540-122.684 -55.126  0.00  0.00     0.063 A 
ATOM     23  C   UNL d   1     -42.928-121.965 -55.175  0.00  0.00     0.023 A 
ATOM     24 CL   UNL d   1     -42.901-123.354 -55.426  0.00  0.00    -0.082 Cl
ATOM     25  C   UNL d   1     -42.584-121.270 -54.879  0.00  0.00     0.059 A 
ATOM     26  C   UNL d   1     -41.821-121.325 -54.525  0.00  0.00     0.012 A 
ATOM     27 CL   UNL d   1     -42.975-120.543 -54.929  0.00  0.00    -0.082 Cl
ATOM     28  C   UNL d   1     -41.434-122.044 -54.476  0.00  0.00     0.006 A 
ENDBRANCH  19  21
ENDBRANCH   4  18
TORSDOF 6
ENDMDL
MODEL 2
REMARK VINA RESULT:       2.9      1.494      1.971
REMARK  6 active torsions:
REMARK  status: ('A' for Active; 'I' for Inactive)
REMARK    1  A    between atoms: N_3  and  S_1 
REMARK    2  A    between atoms: C_11  and  S_1 
REMARK    3  A    between atoms: C_2  and  N_3 
REMARK    4  A    between atoms: C_5  and  C_7 
REMARK       I    between atoms: C_7  and  N_12 
REMARK    5  A    between atoms: C_27  and  C_9 
REMARK    6  A    between atoms: N_12  and  C_20 
ROOT
ATOM      1  C   UNL d   1     -41.893-122.528 -51.088  0.00  0.00     0.105 A 
ATOM      2  C   UNL d   1     -42.589-122.206 -51.391  0.00  0.00     0.015 A 
ATOM      3  C   UNL d   1     -41.164-122.215 -51.293  0.00  0.00     0.015 A 
ATOM      4  C   UNL d   1     -41.812-121.247 -52.113  0.00  0.00     0.085 A 
ATOM      5  C   UNL d   1     -42.540-121.560 -51.907  0.00  0.00     0.020 A 
ATOM      6  C   UNL d   1     -41.123-121.576 -51.805  0.00  0.00     0.020 A 
ENDROOT
BRANCH   1   7
ATOM      7  S   UNL d   1     -41.936-123.183 -50.564  0.00  0.00     0.287 S 
ATOM      8  O   UNL d   1     -41.784-123.694 -51.196  0.00  0.00    -0.198 OA
ATOM      9  O   UNL d   1     -41.981-123.817 -50.037  0.00  0.00    -0.198 OA
BRANCH   7  10
ATOM     10  N   UNL d   1     -42.088-122.660 -49.935  0.00  0.00    -0.130 NA
BRANCH  10  11
ATOM     11  C   UNL d   1     -42.140-122.944 -49.158  0.00  0.00     0.227 A 
ATOM     12  S   UNL d   1     -42.057-122.494 -48.497  0.00  0.00    -0.025 SA
ATOM     13  C   UNL d   1     -42.152-123.004 -47.826  0.00  0.00     0.135 A 
ATOM     14  N   UNL d   1     -42.295-123.774 -48.113  0.00  0.00    -0.139 NA
ATOM     15  N   UNL d   1     -42.284-123.715 -48.951  0.00  0.00    -0.120 NA
BRANCH  13  16
ATOM     16  C   UNL d   1     -42.129-122.882 -47.015  0.00  0.00     0.028 C 
ATOM     17  C   UNL d   1     -41.452-122.528 -46.681  0.00  0.00     0.002 C 
ENDBRANCH  13  16
ENDBRANCH  10  11
ENDBRANCH   7  10
ENDBRANCH   1   7
BRANCH   4  18
ATOM     18  N   UNL d   1     -41.757-120.593 -52.635  0.00  0.00    -0.208 NA
ATOM     19  C   UNL d   1     -41.756-120.722 -53.457  0.00  0.00     0.280 C 
ATOM     20  O   UNL d   1     -41.703-120.090 -53.977  0.00  0.00    -0.265 OA
BRANCH  19  21
ATOM     21  C   UNL d   1     -41.810-121.493 -53.748  0.00  0.00     0.069 A 
ATOM     22  C   UNL d   1     -42.517-121.767 -54.065  0.00  0.00     0.063 A 
ATOM     23  C   UNL d   1     -42.570-122.532 -54.354  0.00  0.00     0.023 A 
ATOM     24 CL   UNL d   1     -43.173-121.281 -54.096  0.00  0.00    -0.082 Cl
ATOM     25  C   UNL d   1     -41.918-123.045 -54.334  0.00  0.00     0.059 A 
ATOM     26  C   UNL d   1     -41.197-122.758 -54.007  0.00  0.00     0.012 A 
ATOM     27 CL   UNL d   1     -41.971-123.817 -54.625  0.00  0.00    -0.082 Cl
ATOM     28  C   UNL d   1     -41.143-121.993 -53.719  0.00  0.00     0.006 A 
ENDBRANCH  19  21
ENDBRANCH   4  18
TORSDOF 6
ENDMDL
