MODEL 1
REMARK VINA RESULT:      40.1      0.000      0.000
REMARK  6 active torsions:
REMARK  status: ('A' for Active; 'I' for Inactive)
REMARK    1  A    between atoms: S_9  and  C_3 
REMARK    2  A    between atoms: C_4  and  C_17 
REMARK       I    between atoms: N_8  and  C_4 
REMARK    3  A    between atoms: C_5  and  C_16 
REMARK    4  A    between atoms: C_14  and  C_6 
REMARK    5  A    between atoms: C_16  and  N_8 
REMARK    6  A    between atoms: C_17  and  S_9 
ROOT
ATOM      1  N   UNL d   1     -55.514-101.542 -43.880  0.00  0.00    -0.148 NA
ATOM      2  N   UNL d   1     -55.406-102.215 -43.415  0.00  0.00    -0.141 NA
ATOM      3  C   UNL d   1     -55.043-102.160 -42.679  0.00  0.00     0.133 A 
ATOM      4  C   UNL d   1     -55.252-100.808 -43.595  0.00  0.00     0.103 A 
ATOM      5  C   UNL d   1     -54.892-100.748 -42.866  0.00  0.00     0.023 A 
ATOM      6  C   UNL d   1     -54.782-101.416 -42.401  0.00  0.00     0.029 A 
ENDROOT
BRANCH   3   7
ATOM      7  S   UNL d   1     -54.939-102.834 -42.222  0.00  0.00    -0.061 SA
BRANCH   7   8
ATOM      8  C   UNL d   1     -54.740-102.764 -41.427  0.00  0.00     0.099 C 
BRANCH   8   9
ATOM      9  C   UNL d   1     -55.330-102.683 -40.855  0.00  0.00     0.286 C 
ATOM     10  N   UNL d   1     -55.138-102.702 -40.059  0.00  0.00    -0.204 NA
ATOM     11  O   UNL d   1     -56.112-102.584 -41.087  0.00  0.00    -0.265 OA
BRANCH  10  12
ATOM     12  C   UNL d   1     -55.718-102.623 -39.492  0.00  0.00     0.127 C 
BRANCH  12  13
ATOM     13  C   UNL d   1     -55.513-102.499 -38.707  0.00  0.00     0.119 A 
ATOM     14  O   UNL d   1     -56.026-102.481 -38.066  0.00  0.00    -0.304 OA
ATOM     15  C   UNL d   1     -55.588-102.343 -37.388  0.00  0.00     0.123 A 
ATOM     16  C   UNL d   1     -54.801-102.275 -37.608  0.00  0.00     0.029 A 
ATOM     17  C   UNL d   1     -54.745-102.370 -38.420  0.00  0.00     0.028 A 
ENDBRANCH  12  13
ENDBRANCH  10  12
ENDBRANCH   8   9
ENDBRANCH   7   8
ENDBRANCH   3   7
BRANCH   4  18
ATOM     18  C   UNL d   1     -55.359-100.130 -44.059  0.00  0.00     0.019 A 
ATOM     19  C   UNL d   1     -56.090 -99.984 -44.440  0.00  0.00     0.002 A 
ATOM     20  C   UNL d   1     -56.187 -99.307 -44.900  0.00  0.00     0.000 A 
ATOM     21  C   UNL d   1     -55.574 -98.773 -44.987  0.00  0.00     0.000 A 
ATOM     22  C   UNL d   1     -54.845 -98.907 -44.613  0.00  0.00     0.000 A 
ATOM     23  C   UNL d   1     -54.742 -99.584 -44.152  0.00  0.00     0.002 A 
ENDBRANCH   4  18
TORSDOF 6
ENDMDL
MODEL 2
REMARK VINA RESULT:      41.8      1.375      5.822
REMARK  6 active torsions:
REMARK  status: ('A' for Active; 'I' for Inactive)
REMARK    1  A    between atoms: S_9  and  C_3 
REMARK    2  A    between atoms: C_4  and  C_17 
REMARK       I    between atoms: N_8  and  C_4 
REMARK    3  A    between atoms: C_5  and  C_16 
REMARK    4  A    between atoms: C_14  and  C_6 
REMARK    5  A    between atoms: C_16  and  N_8 
REMARK    6  A    between atoms: C_17  and  S_9 
ROOT
ATOM      1  N   UNL d   1     -56.280-102.784 -38.868  0.00  0.00    -0.148 NA
ATOM      2  N   UNL d   1     -56.117-102.780 -39.677  0.00  0.00    -0.141 NA
ATOM      3  C   UNL d   1     -55.340-102.816 -39.946  0.00  0.00     0.133 A 
ATOM      4  C   UNL d   1     -55.650-102.826 -38.329  0.00  0.00     0.103 A 
ATOM      5  C   UNL d   1     -54.879-102.862 -38.591  0.00  0.00     0.023 A 
ATOM      6  C   UNL d   1     -54.713-102.858 -39.395  0.00  0.00     0.029 A 
ENDROOT
BRANCH   3   7
ATOM      7  S   UNL d   1     -55.186-102.812 -40.752  0.00  0.00    -0.061 SA
BRANCH   7   8
ATOM      8  C   UNL d   1     -55.542-102.249 -41.235  0.00  0.00     0.099 C 
BRANCH   8   9
ATOM      9  C   UNL d   1     -55.176-102.007 -41.934  0.00  0.00     0.286 C 
ATOM     10  N   UNL d   1     -55.220-102.475 -42.605  0.00  0.00    -0.204 NA
ATOM     11  O   UNL d   1     -54.768-101.295 -41.956  0.00  0.00    -0.265 OA
BRANCH  10  12
ATOM     12  C   UNL d   1     -54.859-102.239 -43.297  0.00  0.00     0.127 C 
BRANCH  12  13
ATOM     13  C   UNL d   1     -55.047-101.513 -43.632  0.00  0.00     0.119 A 
ATOM     14  O   UNL d   1     -55.589-101.380 -44.234  0.00  0.00    -0.304 OA
ATOM     15  C   UNL d   1     -55.602-100.577 -44.397  0.00  0.00     0.123 A 
ATOM     16  C   UNL d   1     -55.067-100.211 -43.896  0.00  0.00     0.029 A 
ATOM     17  C   UNL d   1     -54.719-100.781 -43.420  0.00  0.00     0.028 A 
ENDBRANCH  12  13
ENDBRANCH  10  12
ENDBRANCH   8   9
ENDBRANCH   7   8
ENDBRANCH   3   7
BRANCH   4  18
ATOM     18  C   UNL d   1     -55.810-102.830 -37.516  0.00  0.00     0.019 A 
ATOM     19  C   UNL d   1     -56.598-102.869 -37.236  0.00  0.00     0.002 A 
ATOM     20  C   UNL d   1     -56.748-102.874 -36.425  0.00  0.00     0.000 A 
ATOM     21  C   UNL d   1     -56.131-102.839 -35.889  0.00  0.00     0.000 A 
ATOM     22  C   UNL d   1     -55.345-102.800 -36.156  0.00  0.00     0.000 A 
ATOM     23  C   UNL d   1     -55.190-102.796 -36.966  0.00  0.00     0.002 A 
ENDBRANCH   4  18
TORSDOF 6
ENDMDL
