MODEL 1
REMARK VINA RESULT:      18.6      0.000      0.000
REMARK  3 active torsions:
REMARK  status: ('A' for Active; 'I' for Inactive)
REMARK    1  A    between atoms: C_5  and  N_1 
REMARK    2  A    between atoms: C_13  and  C_6 
REMARK    3  A    between atoms: O_24  and  C_19 
ROOT
ATOM      1  N   UNL d   1     -42.369-123.055 -49.680  0.00  0.00    -0.256 N 
ATOM      2  C   UNL d   1     -42.505-122.643 -50.950  0.00  0.00     0.083 A 
ATOM      3  C   UNL d   1     -41.820-123.096 -50.898  0.00  0.00     0.161 A 
ATOM      4  C   UNL d   1     -41.730-123.353 -50.114  0.00  0.00     0.289 A 
ATOM      5  C   UNL d   1     -42.848-122.616 -50.197  0.00  0.00     0.075 A 
ATOM      6  C   UNL d   1     -42.734-122.312 -51.669  0.00  0.00     0.201 A 
ATOM      7  O   UNL d   1     -41.356-123.219 -51.578  0.00  0.00    -0.302 OA
ATOM      8  C   UNL d   1     -42.272-122.437 -52.340  0.00  0.00     0.063 A 
ATOM      9  C   UNL d   1     -41.586-122.889 -52.293  0.00  0.00     0.103 A 
ATOM     10  O   UNL d   1     -41.123-123.817 -49.821  0.00  0.00    -0.264 OA
ATOM     11  O   UNL d   1     -43.419-121.860 -51.721  0.00  0.00    -0.286 OA
ATOM     12  C   UNL d   1     -42.500-122.106 -53.064  0.00  0.00     0.017 A 
ATOM     13  C   UNL d   1     -41.123-123.010 -52.977  0.00  0.00     0.026 A 
ATOM     14  C   UNL d   1     -42.045-122.226 -53.735  0.00  0.00     0.058 A 
ATOM     15  C   UNL d   1     -41.354-122.680 -53.691  0.00  0.00     0.013 A 
ATOM     16 CL   UNL d   1     -42.270-121.898 -54.451  0.00  0.00    -0.082 Cl
ENDROOT
BRANCH   5  17
ATOM     17  C   UNL d   1     -43.534-122.164 -50.245  0.00  0.00     0.039 A 
ATOM     18  C   UNL d   1     -44.277-122.526 -50.233  0.00  0.00     0.096 A 
ATOM     19  C   UNL d   1     -44.961-122.071 -50.281  0.00  0.00     0.024 A 
ATOM     20  C   UNL d   1     -44.908-121.244 -50.341  0.00  0.00     0.002 A 
ATOM     21  C   UNL d   1     -44.165-120.880 -50.353  0.00  0.00     0.000 A 
ATOM     22  C   UNL d   1     -43.477-121.344 -50.304  0.00  0.00     0.003 A 
BRANCH  18  23
ATOM     23  O   UNL d   1     -44.324-123.347 -50.173  0.00  0.00    -0.328 OA
ATOM     24  C   UNL d   1     -45.061-123.714 -50.160  0.00  0.00     0.181 C 
ENDBRANCH  18  23
ENDBRANCH   5  17
BRANCH   1  25
ATOM     25  C   UNL d   1     -42.506-123.173 -48.877  0.00  0.00     0.179 A 
ATOM     26  N   UNL d   1     -42.918-123.796 -48.543  0.00  0.00    -0.108 NA
ATOM     27  O   UNL d   1     -42.922-123.695 -47.725  0.00  0.00    -0.210 OA
ATOM     28  C   UNL d   1     -42.510-123.004 -47.555  0.00  0.00     0.128 A 
ATOM     29  C   UNL d   1     -42.250-122.677 -48.265  0.00  0.00     0.067 A 
ATOM     30  C   UNL d   1     -42.377-122.689 -46.804  0.00  0.00     0.029 C 
ENDBRANCH   1  25
TORSDOF 3
ENDMDL
