MODEL 1
REMARK VINA RESULT:      -3.8      0.000      0.000
REMARK  2 active torsions:
REMARK  status: ('A' for Active; 'I' for Inactive)
REMARK    1  A    between atoms: C_12  and  C_4 
REMARK    2  A    between atoms: O_14  and  C_10 
ROOT
ATOM      1  C   UNL d   1     -41.511-122.157 -51.391  0.00  0.00     0.101 A 
ATOM      2  C   UNL d   1     -41.320-121.606 -51.979  0.00  0.00     0.203 A 
ATOM      3  C   UNL d   1     -41.326-121.841 -52.772  0.00  0.00     0.067 A 
ATOM      4  C   UNL d   1     -41.518-122.609 -52.973  0.00  0.00     0.103 A 
ATOM      5  C   UNL d   1     -41.703-122.925 -51.593  0.00  0.00     0.108 A 
ATOM      6  O   UNL d   1     -41.708-123.158 -52.387  0.00  0.00    -0.307 OA
ATOM      7  C   UNL d   1     -41.504-121.922 -50.603  0.00  0.00     0.203 A 
ATOM      8  C   UNL d   1     -41.892-123.473 -51.011  0.00  0.00     0.049 A 
ATOM      9  C   UNL d   1     -41.697-122.476 -50.000  0.00  0.00     0.066 A 
ATOM     10  C   UNL d   1     -41.889-123.244 -50.201  0.00  0.00     0.099 A 
ATOM     11  O   UNL d   1     -41.122-120.817 -51.772  0.00  0.00    -0.286 OA
ATOM     12  O   UNL d   1     -41.307-121.132 -50.396  0.00  0.00    -0.286 OA
ENDROOT
BRANCH   4  13
ATOM     13  C   UNL d   1     -41.524-122.844 -53.756  0.00  0.00     0.023 A 
ATOM     14  C   UNL d   1     -41.867-122.350 -54.322  0.00  0.00     0.002 A 
ATOM     15  C   UNL d   1     -41.874-122.584 -55.110  0.00  0.00     0.000 A 
ATOM     16  C   UNL d   1     -41.543-123.307 -55.335  0.00  0.00     0.000 A 
ATOM     17  C   UNL d   1     -41.200-123.803 -54.774  0.00  0.00     0.000 A 
ATOM     18  C   UNL d   1     -41.193-123.567 -53.981  0.00  0.00     0.002 A 
ENDBRANCH   4  13
BRANCH  10  19
ATOM     19  O   UNL d   1     -42.087-123.817 -49.607  0.00  0.00    -0.328 OA
ATOM     20  C   UNL d   1     -42.827-123.814 -49.260  0.00  0.00     0.181 C 
ENDBRANCH  10  19
TORSDOF 2
ENDMDL
MODEL 2
REMARK VINA RESULT:      -1.2      1.564      4.218
REMARK  2 active torsions:
REMARK  status: ('A' for Active; 'I' for Inactive)
REMARK    1  A    between atoms: C_12  and  C_4 
REMARK    2  A    between atoms: O_14  and  C_10 
ROOT
ATOM      1  C   UNL d   1     -41.483-122.454 -51.481  0.00  0.00     0.101 A 
ATOM      2  C   UNL d   1     -41.602-123.258 -51.326  0.00  0.00     0.203 A 
ATOM      3  C   UNL d   1     -41.743-123.506 -50.551  0.00  0.00     0.067 A 
ATOM      4  C   UNL d   1     -41.765-122.962 -49.942  0.00  0.00     0.103 A 
ATOM      5  C   UNL d   1     -41.505-121.910 -50.871  0.00  0.00     0.108 A 
ATOM      6  O   UNL d   1     -41.647-122.160 -50.095  0.00  0.00    -0.307 OA
ATOM      7  C   UNL d   1     -41.343-122.209 -52.253  0.00  0.00     0.203 A 
ATOM      8  C   UNL d   1     -41.387-121.111 -51.022  0.00  0.00     0.049 A 
ATOM      9  C   UNL d   1     -41.221-121.393 -52.418  0.00  0.00     0.066 A 
ATOM     10  C   UNL d   1     -41.243-120.849 -51.808  0.00  0.00     0.099 A 
ATOM     11  O   UNL d   1     -41.579-123.817 -51.953  0.00  0.00    -0.286 OA
ATOM     12  O   UNL d   1     -41.320-122.768 -52.880  0.00  0.00    -0.286 OA
ENDROOT
BRANCH   4  13
ATOM     13  C   UNL d   1     -41.905-123.204 -49.173  0.00  0.00     0.023 A 
ATOM     14  C   UNL d   1     -42.672-123.162 -48.871  0.00  0.00     0.002 A 
ATOM     15  C   UNL d   1     -42.815-123.405 -48.099  0.00  0.00     0.000 A 
ATOM     16  C   UNL d   1     -42.196-123.689 -47.628  0.00  0.00     0.000 A 
ATOM     17  C   UNL d   1     -41.430-123.733 -47.926  0.00  0.00     0.000 A 
ATOM     18  C   UNL d   1     -41.287-123.488 -48.703  0.00  0.00     0.002 A 
ENDBRANCH   4  13
BRANCH  10  19
ATOM     19  O   UNL d   1     -41.123-120.021 -51.954  0.00  0.00    -0.328 OA
ATOM     20  C   UNL d   1     -41.125-119.488 -51.334  0.00  0.00     0.181 C 
ENDBRANCH  10  19
TORSDOF 2
ENDMDL
