MODEL 1
REMARK VINA RESULT:      -2.0      0.000      0.000
REMARK  5 active torsions:
REMARK  status: ('A' for Active; 'I' for Inactive)
REMARK    1  A    between atoms: C_9  and  N_1 
REMARK    2  A    between atoms: S_8  and  C_2 
REMARK    3  A    between atoms: C_6  and  C_10 
REMARK       I    between atoms: N_7  and  C_6 
REMARK    4  A    between atoms: C_10  and  S_8 
REMARK    5  A    between atoms: C_13  and  C_9 
ROOT
ATOM      1  N   UNL d   1      31.334  17.431 -24.580  0.00  0.00    -0.303 N 
ATOM      2  C   UNL d   1      32.313  17.740 -23.727  0.00  0.00     0.049 A 
ATOM      3  C   UNL d   1      31.575  17.981 -24.036  0.00  0.00     0.087 A 
ATOM      4  C   UNL d   1      32.507  17.030 -24.102  0.00  0.00     0.024 A 
ATOM      5  C   UNL d   1      31.902  16.839 -24.630  0.00  0.00     0.065 A 
ATOM      6  C   UNL d   1      33.159  16.537 -24.026  0.00  0.00     0.002 A 
ATOM      7  C   UNL d   1      31.949  16.155 -25.081  0.00  0.00     0.018 A 
ATOM      8  C   UNL d   1      33.208  15.848 -24.480  0.00  0.00     0.000 A 
ATOM      9  C   UNL d   1      32.603  15.657 -25.007  0.00  0.00     0.002 A 
ENDROOT
BRANCH   2  10
ATOM     10  S   UNL d   1      32.763  18.130 -23.160  0.00  0.00    -0.080 SA
BRANCH  10  11
ATOM     11  C   UNL d   1      32.796  18.960 -23.150  0.00  0.00     0.097 C 
BRANCH  11  12
ATOM     12  C   UNL d   1      32.948  19.370 -22.454  0.00  0.00     0.272 C 
ATOM     13  N   UNL d   1      33.016  20.193 -22.449  0.00  0.00    -0.267 N 
ATOM     14  C   UNL d   1      32.929  20.608 -23.160  0.00  0.00     0.110 A 
ATOM     15  C   UNL d   1      33.167  20.594 -21.746  0.00  0.00     0.110 A 
ATOM     16  C   UNL d   1      32.995  21.424 -23.168  0.00  0.00     0.142 A 
ATOM     17  O   UNL d   1      33.149  21.837 -22.454  0.00  0.00    -0.300 OA
ATOM     18  C   UNL d   1      33.235  21.421 -21.747  0.00  0.00     0.142 A 
ATOM     19  O   UNL d   1      33.031  18.952 -21.756  0.00  0.00    -0.266 OA
ENDBRANCH  11  12
ENDBRANCH  10  11
ENDBRANCH   2  10
BRANCH   1  20
ATOM     20  C   UNL d   1      30.621  17.463 -25.021  0.00  0.00     0.080 C 
BRANCH  20  21
ATOM     21  C   UNL d   1      29.895  17.418 -24.640  0.00  0.00     0.018 A 
ATOM     22  C   UNL d   1      29.515  16.692 -24.540  0.00  0.00     0.002 A 
ATOM     23  C   UNL d   1      28.787  16.652 -24.156  0.00  0.00     0.000 A 
ATOM     24  C   UNL d   1      28.432  17.331 -23.871  0.00  0.00     0.000 A 
ATOM     25  C   UNL d   1      28.810  18.072 -23.968  0.00  0.00     0.000 A 
ATOM     26  C   UNL d   1      29.542  18.106 -24.354  0.00  0.00     0.002 A 
ENDBRANCH  20  21
ENDBRANCH   1  20
TORSDOF 5
ENDMDL
MODEL 2
REMARK VINA RESULT:      -1.5      2.241      5.355
REMARK  5 active torsions:
REMARK  status: ('A' for Active; 'I' for Inactive)
REMARK    1  A    between atoms: C_9  and  N_1 
REMARK    2  A    between atoms: S_8  and  C_2 
REMARK    3  A    between atoms: C_6  and  C_10 
REMARK       I    between atoms: N_7  and  C_6 
REMARK    4  A    between atoms: C_10  and  S_8 
REMARK    5  A    between atoms: C_13  and  C_9 
ROOT
ATOM      1  N   UNL d   1      33.215  22.279 -22.763  0.00  0.00    -0.303 N 
ATOM      2  C   UNL d   1      33.220  21.349 -23.720  0.00  0.00     0.049 A 
ATOM      3  C   UNL d   1      33.240  21.481 -22.895  0.00  0.00     0.087 A 
ATOM      4  C   UNL d   1      33.181  22.093 -24.078  0.00  0.00     0.024 A 
ATOM      5  C   UNL d   1      33.178  22.668 -23.486  0.00  0.00     0.065 A 
ATOM      6  C   UNL d   1      33.149  22.314 -24.868  0.00  0.00     0.002 A 
ATOM      7  C   UNL d   1      33.143  23.464 -23.685  0.00  0.00     0.018 A 
ATOM      8  C   UNL d   1      33.113  23.114 -25.070  0.00  0.00     0.000 A 
ATOM      9  C   UNL d   1      33.110  23.689 -24.478  0.00  0.00     0.002 A 
ENDROOT
BRANCH   2  10
ATOM     10  S   UNL d   1      33.235  20.623 -24.106  0.00  0.00    -0.080 SA
BRANCH  10  11
ATOM     11  C   UNL d   1      33.128  19.919 -23.678  0.00  0.00     0.097 C 
BRANCH  11  12
ATOM     12  C   UNL d   1      32.845  19.240 -24.044  0.00  0.00     0.272 C 
ATOM     13  N   UNL d   1      32.863  18.509 -23.660  0.00  0.00    -0.267 N 
ATOM     14  C   UNL d   1      33.172  18.465 -22.893  0.00  0.00     0.110 A 
ATOM     15  C   UNL d   1      32.577  17.834 -24.036  0.00  0.00     0.110 A 
ATOM     16  C   UNL d   1      33.195  17.746 -22.502  0.00  0.00     0.142 A 
ATOM     17  O   UNL d   1      32.905  17.055 -22.881  0.00  0.00    -0.300 OA
ATOM     18  C   UNL d   1      32.598  17.102 -23.645  0.00  0.00     0.142 A 
ATOM     19  O   UNL d   1      32.542  19.293 -24.802  0.00  0.00    -0.266 OA
ENDBRANCH  11  12
ENDBRANCH  10  11
ENDBRANCH   2  10
BRANCH   1  20
ATOM     20  C   UNL d   1      33.224  22.648 -22.009  0.00  0.00     0.080 C 
BRANCH  20  21
ATOM     21  C   UNL d   1      32.852  22.294 -21.369  0.00  0.00     0.018 A 
ATOM     22  C   UNL d   1      33.128  21.580 -21.062  0.00  0.00     0.002 A 
ATOM     23  C   UNL d   1      32.751  21.228 -20.420  0.00  0.00     0.000 A 
ATOM     24  C   UNL d   1      32.098  21.583 -20.079  0.00  0.00     0.000 A 
ATOM     25  C   UNL d   1      31.810  22.308 -20.384  0.00  0.00     0.000 A 
ATOM     26  C   UNL d   1      32.194  22.657 -21.030  0.00  0.00     0.002 A 
ENDBRANCH  20  21
ENDBRANCH   1  20
TORSDOF 5
ENDMDL
MODEL 3
REMARK VINA RESULT:      -0.8      1.955      4.495
REMARK  5 active torsions:
REMARK  status: ('A' for Active; 'I' for Inactive)
REMARK    1  A    between atoms: C_9  and  N_1 
REMARK    2  A    between atoms: S_8  and  C_2 
REMARK    3  A    between atoms: C_6  and  C_10 
REMARK       I    between atoms: N_7  and  C_6 
REMARK    4  A    between atoms: C_10  and  S_8 
REMARK    5  A    between atoms: C_13  and  C_9 
ROOT
ATOM      1  N   UNL d   1      32.529  18.001 -24.321  0.00  0.00    -0.303 N 
ATOM      2  C   UNL d   1      31.276  17.594 -24.527  0.00  0.00     0.049 A 
ATOM      3  C   UNL d   1      31.755  18.235 -24.289  0.00  0.00     0.087 A 
ATOM      4  C   UNL d   1      31.787  16.968 -24.703  0.00  0.00     0.024 A 
ATOM      5  C   UNL d   1      32.562  17.220 -24.576  0.00  0.00     0.065 A 
ATOM      6  C   UNL d   1      31.638  16.203 -24.963  0.00  0.00     0.002 A 
ATOM      7  C   UNL d   1      33.189  16.707 -24.709  0.00  0.00     0.018 A 
ATOM      8  C   UNL d   1      32.267  15.686 -25.097  0.00  0.00     0.000 A 
ATOM      9  C   UNL d   1      33.043  15.937 -24.970  0.00  0.00     0.002 A 
ENDROOT
BRANCH   2  10
ATOM     10  S   UNL d   1      30.455  17.581 -24.578  0.00  0.00    -0.080 SA
BRANCH  10  11
ATOM     11  C   UNL d   1      30.003  17.225 -23.979  0.00  0.00     0.097 C 
BRANCH  11  12
ATOM     12  C   UNL d   1      29.183  17.192 -24.030  0.00  0.00     0.272 C 
ATOM     13  N   UNL d   1      28.753  16.620 -23.618  0.00  0.00    -0.267 N 
ATOM     14  C   UNL d   1      29.159  16.073 -23.147  0.00  0.00     0.110 A 
ATOM     15  C   UNL d   1      27.932  16.596 -23.675  0.00  0.00     0.110 A 
ATOM     16  C   UNL d   1      28.744  15.502 -22.733  0.00  0.00     0.142 A 
ATOM     17  O   UNL d   1      27.906  15.472 -22.788  0.00  0.00    -0.300 OA
ATOM     18  C   UNL d   1      27.505  16.018 -23.258  0.00  0.00     0.142 A 
ATOM     19  O   UNL d   1      28.791  17.736 -24.497  0.00  0.00    -0.266 OA
ENDBRANCH  11  12
ENDBRANCH  10  11
ENDBRANCH   2  10
BRANCH   1  20
ATOM     20  C   UNL d   1      33.191  18.479 -24.126  0.00  0.00     0.080 C 
BRANCH  20  21
ATOM     21  C   UNL d   1      33.161  18.984 -23.480  0.00  0.00     0.018 A 
ATOM     22  C   UNL d   1      33.235  18.692 -22.712  0.00  0.00     0.002 A 
ATOM     23  C   UNL d   1      33.204  19.203 -22.066  0.00  0.00     0.000 A 
ATOM     24  C   UNL d   1      33.101  20.006 -22.179  0.00  0.00     0.000 A 
ATOM     25  C   UNL d   1      33.026  20.312 -22.955  0.00  0.00     0.000 A 
ATOM     26  C   UNL d   1      33.057  19.793 -23.600  0.00  0.00     0.002 A 
ENDBRANCH  20  21
ENDBRANCH   1  20
TORSDOF 5
ENDMDL
