MODEL 1
REMARK VINA RESULT:      75.0      0.000      0.000
REMARK  5 active torsions:
REMARK  status: ('A' for Active; 'I' for Inactive)
REMARK    1  A    between atoms: O_8  and  C_2 
REMARK    2  A    between atoms: C_11  and  C_5 
REMARK    3  A    between atoms: C_15  and  O_8 
REMARK    4  A    between atoms: N_14  and  C_11 
REMARK    5  A    between atoms: O_23  and  C_16 
ROOT
ATOM      1  C   UNL d   1     -54.716-100.984 -40.928  0.00  0.00     0.108 A 
ATOM      2  C   UNL d   1     -54.721-100.651 -42.556  0.00  0.00     0.161 A 
ATOM      3  C   UNL d   1     -54.719-100.190 -41.194  0.00  0.00     0.064 A 
ATOM      4  C   UNL d   1     -54.721-100.024 -41.999  0.00  0.00     0.222 A 
ATOM      5  C   UNL d   1     -54.714-101.150 -40.114  0.00  0.00     0.079 A 
ATOM      6  O   UNL d   1     -54.717-101.610 -41.471  0.00  0.00    -0.305 OA
ATOM      7  C   UNL d   1     -54.719-101.437 -42.293  0.00  0.00     0.126 A 
ATOM      8  C   UNL d   1     -54.718 -99.575 -40.633  0.00  0.00     0.009 A 
ATOM      9  C   UNL d   1     -54.714-100.528 -39.569  0.00  0.00     0.199 A 
ATOM     10  O   UNL d   1     -54.723 -99.243 -42.264  0.00  0.00    -0.284 OA
ATOM     11  C   UNL d   1     -54.716 -99.744 -39.827  0.00  0.00     0.042 A 
ATOM     12  O   UNL d   1     -54.711-100.705 -38.761  0.00  0.00    -0.286 OA
ATOM     13  C   UNL d   1     -54.719-102.052 -42.840  0.00  0.00     0.029 C 
ENDROOT
BRANCH   2  14
ATOM     14  O   UNL d   1     -54.724-100.482 -43.361  0.00  0.00    -0.302 OA
BRANCH  14  15
ATOM     15  C   UNL d   1     -55.346-100.055 -43.689  0.00  0.00     0.100 A 
ATOM     16  C   UNL d   1     -55.985-100.455 -44.025  0.00  0.00     0.027 A 
ATOM     17  C   UNL d   1     -56.605-100.035 -44.351  0.00  0.00     0.026 A 
ATOM     18  C   UNL d   1     -56.592 -99.201 -44.346  0.00  0.00     0.094 A 
ATOM     19  C   UNL d   1     -55.952 -98.805 -44.009  0.00  0.00     0.026 A 
ATOM     20  C   UNL d   1     -55.329 -99.232 -43.681  0.00  0.00     0.027 A 
BRANCH  18  21
ATOM     21  O   UNL d   1     -57.215 -98.775 -44.674  0.00  0.00    -0.328 OA
ATOM     22  C   UNL d   1     -57.972 -98.841 -44.352  0.00  0.00     0.181 C 
ENDBRANCH  18  21
ENDBRANCH  14  15
ENDBRANCH   2  14
BRANCH   5  23
ATOM     23  C   UNL d   1     -54.712-101.934 -39.856  0.00  0.00     0.086 C 
BRANCH  23  24
ATOM     24  N   UNL d   1     -55.189-102.154 -39.229  0.00  0.00    -0.300 N 
ATOM     25  C   UNL d   1     -55.918-101.784 -39.116  0.00  0.00     0.100 C 
ATOM     26  C   UNL d   1     -54.947-102.747 -38.705  0.00  0.00     0.100 C 
ENDBRANCH  23  24
ENDBRANCH   5  23
TORSDOF 5
ENDMDL
MODEL 2
REMARK VINA RESULT:      76.3      1.038      1.683
REMARK  5 active torsions:
REMARK  status: ('A' for Active; 'I' for Inactive)
REMARK    1  A    between atoms: O_8  and  C_2 
REMARK    2  A    between atoms: C_11  and  C_5 
REMARK    3  A    between atoms: C_15  and  O_8 
REMARK    4  A    between atoms: N_14  and  C_11 
REMARK    5  A    between atoms: O_23  and  C_16 
ROOT
ATOM      1  C   UNL d   1     -55.068-101.221 -41.593  0.00  0.00     0.108 A 
ATOM      2  C   UNL d   1     -54.843-100.395 -43.016  0.00  0.00     0.161 A 
ATOM      3  C   UNL d   1     -55.003-101.640 -42.315  0.00  0.00     0.064 A 
ATOM      4  C   UNL d   1     -54.892-101.231 -43.019  0.00  0.00     0.222 A 
ATOM      5  C   UNL d   1     -55.181-101.635 -40.881  0.00  0.00     0.079 A 
ATOM      6  O   UNL d   1     -55.021-100.394 -41.579  0.00  0.00    -0.305 OA
ATOM      7  C   UNL d   1     -54.907 -99.980 -42.301  0.00  0.00     0.126 A 
ATOM      8  C   UNL d   1     -55.053-102.471 -42.308  0.00  0.00     0.009 A 
ATOM      9  C   UNL d   1     -55.228-102.460 -40.891  0.00  0.00     0.199 A 
ATOM     10  O   UNL d   1     -54.828-101.640 -43.733  0.00  0.00    -0.284 OA
ATOM     11  C   UNL d   1     -55.165-102.876 -41.600  0.00  0.00     0.042 A 
ATOM     12  O   UNL d   1     -55.340-102.863 -40.176  0.00  0.00    -0.286 OA
ATOM     13  C   UNL d   1     -54.859 -99.159 -42.298  0.00  0.00     0.029 C 
ENDROOT
BRANCH   2  14
ATOM     14  O   UNL d   1     -54.732 -99.989 -43.723  0.00  0.00    -0.302 OA
BRANCH  14  15
ATOM     15  C   UNL d   1     -55.381 -99.687 -44.130  0.00  0.00     0.100 A 
ATOM     16  C   UNL d   1     -55.575 -99.990 -44.872  0.00  0.00     0.027 A 
ATOM     17  C   UNL d   1     -56.218 -99.694 -45.280  0.00  0.00     0.026 A 
ATOM     18  C   UNL d   1     -56.678 -99.084 -44.945  0.00  0.00     0.094 A 
ATOM     19  C   UNL d   1     -56.481 -98.784 -44.202  0.00  0.00     0.026 A 
ATOM     20  C   UNL d   1     -55.832 -99.085 -43.795  0.00  0.00     0.027 A 
BRANCH  18  21
ATOM     21  O   UNL d   1     -57.327 -98.783 -45.353  0.00  0.00    -0.328 OA
ATOM     22  C   UNL d   1     -58.091 -98.982 -45.113  0.00  0.00     0.181 C 
ENDBRANCH  18  21
ENDBRANCH  14  15
ENDBRANCH   2  14
BRANCH   5  23
ATOM     23  C   UNL d   1     -55.244-101.219 -40.171  0.00  0.00     0.086 C 
BRANCH  23  24
ATOM     24  N   UNL d   1     -55.276-101.630 -39.464  0.00  0.00    -0.300 N 
ATOM     25  C   UNL d   1     -55.872-102.186 -39.337  0.00  0.00     0.100 C 
ATOM     26  C   UNL d   1     -54.714-101.492 -38.872  0.00  0.00     0.100 C 
ENDBRANCH  23  24
ENDBRANCH   5  23
TORSDOF 5
ENDMDL
