MODEL 1
REMARK VINA RESULT:      82.1      0.000      0.000
REMARK  5 active torsions:
REMARK  status: ('A' for Active; 'I' for Inactive)
REMARK    1  A    between atoms: C_4  and  C_1 
REMARK    2  A    between atoms: C_9  and  C_4 
REMARK    3  A    between atoms: N_5  and  C_9 
REMARK    4  A    between atoms: C_19  and  N_6 
REMARK    5  A    between atoms: C_18  and  C_19 
ROOT
ATOM      1  N   UNL d   1      61.237  47.660  50.661  0.00  0.00    -0.297 N 
ATOM      2  N   UNL d   1      60.296  49.022  50.752  0.00  0.00    -0.300 N 
ATOM      3  C   UNL d   1      61.443  48.338  50.248  0.00  0.00     0.100 A 
ATOM      4  C   UNL d   1      60.548  47.658  51.130  0.00  0.00     0.100 A 
ATOM      5  C   UNL d   1      60.084  48.345  51.169  0.00  0.00     0.100 A 
ATOM      6  C   UNL d   1      60.978  49.025  50.288  0.00  0.00     0.100 A 
ENDROOT
BRANCH   1   7
ATOM      7  C   UNL d   1      61.700  46.982  50.619  0.00  0.00     0.123 C 
BRANCH   7   8
ATOM      8  C   UNL d   1      61.570  46.424  50.027  0.00  0.00     0.216 C 
ATOM      9  O   UNL d   1      61.611  46.646  49.233  0.00  0.00    -0.285 OA
BRANCH   8  10
ATOM     10  C   UNL d   1      61.399  45.636  50.227  0.00  0.00     0.080 A 
ATOM     11  C   UNL d   1      61.246  45.090  49.646  0.00  0.00     0.202 A 
ATOM     12  C   UNL d   1      61.076  44.312  49.841  0.00  0.00     0.078 A 
ATOM     13  O   UNL d   1      61.261  45.321  48.854  0.00  0.00    -0.286 OA
ATOM     14  C   UNL d   1      60.921  43.761  49.246  0.00  0.00     0.007 C 
ATOM     15  C   UNL d   1      61.060  44.074  50.639  0.00  0.00     0.199 A 
ATOM     16  C   UNL d   1      61.217  44.634  51.231  0.00  0.00     0.042 A 
ATOM     17  O   UNL d   1      60.890  43.297  50.833  0.00  0.00    -0.286 OA
ATOM     18  C   UNL d   1      61.386  45.414  51.030  0.00  0.00     0.010 A 
ENDBRANCH   8  10
ENDBRANCH   7   8
ENDBRANCH   1   7
BRANCH   2  19
ATOM     19  C   UNL d   1      59.829  49.705  50.794  0.00  0.00     0.080 C 
BRANCH  19  20
ATOM     20  C   UNL d   1      59.064  49.699  50.485  0.00  0.00     0.020 A 
ATOM     21  C   UNL d   1      58.413  49.705  50.993  0.00  0.00     0.028 A 
ATOM     22  C   UNL d   1      57.654  49.698  50.682  0.00  0.00     0.119 A 
ATOM     23  O   UNL d   1      56.916  49.702  51.047  0.00  0.00    -0.300 OA
ATOM     24  C   UNL d   1      57.543  49.685  49.866  0.00  0.00     0.119 A 
ATOM     25  C   UNL d   1      56.337  49.692  50.462  0.00  0.00     0.304 A 
ATOM     26  O   UNL d   1      56.728  49.681  49.730  0.00  0.00    -0.300 OA
ATOM     27  C   UNL d   1      58.191  49.679  49.357  0.00  0.00     0.026 A 
ATOM     28  C   UNL d   1      58.956  49.686  49.676  0.00  0.00     0.004 A 
ENDBRANCH  19  20
ENDBRANCH   2  19
TORSDOF 5
ENDMDL
MODEL 2
REMARK VINA RESULT:      83.3      1.583      2.426
REMARK  5 active torsions:
REMARK  status: ('A' for Active; 'I' for Inactive)
REMARK    1  A    between atoms: C_4  and  C_1 
REMARK    2  A    between atoms: C_9  and  C_4 
REMARK    3  A    between atoms: N_5  and  C_9 
REMARK    4  A    between atoms: C_19  and  N_6 
REMARK    5  A    between atoms: C_18  and  C_19 
ROOT
ATOM      1  N   UNL d   1      60.105  49.583  51.374  0.00  0.00    -0.297 N 
ATOM      2  N   UNL d   1      58.452  49.637  51.256  0.00  0.00    -0.300 N 
ATOM      3  C   UNL d   1      59.741  49.672  50.644  0.00  0.00     0.100 A 
ATOM      4  C   UNL d   1      59.638  49.518  52.060  0.00  0.00     0.100 A 
ATOM      5  C   UNL d   1      58.811  49.547  51.991  0.00  0.00     0.100 A 
ATOM      6  C   UNL d   1      58.914  49.700  50.575  0.00  0.00     0.100 A 
ENDROOT
BRANCH   1   7
ATOM      7  C   UNL d   1      60.924  49.555  51.437  0.00  0.00     0.123 C 
BRANCH   7   8
ATOM      8  C   UNL d   1      61.371  49.122  50.896  0.00  0.00     0.216 C 
ATOM      9  O   UNL d   1      61.842  49.511  50.343  0.00  0.00    -0.285 OA
BRANCH   8  10
ATOM     10  C   UNL d   1      61.347  48.291  50.907  0.00  0.00     0.080 A 
ATOM     11  C   UNL d   1      61.404  47.871  50.215  0.00  0.00     0.202 A 
ATOM     12  C   UNL d   1      61.381  47.052  50.223  0.00  0.00     0.078 A 
ATOM     13  O   UNL d   1      61.486  48.273  49.499  0.00  0.00    -0.286 OA
ATOM     14  C   UNL d   1      61.440  46.630  49.516  0.00  0.00     0.007 C 
ATOM     15  C   UNL d   1      61.298  46.642  50.944  0.00  0.00     0.199 A 
ATOM     16  C   UNL d   1      61.240  47.074  51.650  0.00  0.00     0.042 A 
ATOM     17  O   UNL d   1      61.275  45.824  50.951  0.00  0.00    -0.286 OA
ATOM     18  C   UNL d   1      61.264  47.897  51.636  0.00  0.00     0.010 A 
ENDBRANCH   8  10
ENDBRANCH   7   8
ENDBRANCH   1   7
BRANCH   2  19
ATOM     19  C   UNL d   1      57.626  49.664  51.192  0.00  0.00     0.080 C 
BRANCH  19  20
ATOM     20  C   UNL d   1      57.249  49.263  50.578  0.00  0.00     0.020 A 
ATOM     21  C   UNL d   1      57.075  48.459  50.655  0.00  0.00     0.028 A 
ATOM     22  C   UNL d   1      56.700  48.064  50.042  0.00  0.00     0.119 A 
ATOM     23  O   UNL d   1      56.462  47.279  49.965  0.00  0.00    -0.300 OA
ATOM     24  C   UNL d   1      56.498  48.467  49.353  0.00  0.00     0.119 A 
ATOM     25  C   UNL d   1      56.109  47.185  49.228  0.00  0.00     0.304 A 
ATOM     26  O   UNL d   1      56.133  47.924  48.849  0.00  0.00    -0.300 OA
ATOM     27  C   UNL d   1      56.671  49.269  49.273  0.00  0.00     0.026 A 
ATOM     28  C   UNL d   1      57.050  49.665  49.895  0.00  0.00     0.004 A 
ENDBRANCH  19  20
ENDBRANCH   2  19
TORSDOF 5
ENDMDL
MODEL 3
REMARK VINA RESULT:      83.6      0.921      1.275
REMARK  5 active torsions:
REMARK  status: ('A' for Active; 'I' for Inactive)
REMARK    1  A    between atoms: C_4  and  C_1 
REMARK    2  A    between atoms: C_9  and  C_4 
REMARK    3  A    between atoms: N_5  and  C_9 
REMARK    4  A    between atoms: C_19  and  N_6 
REMARK    5  A    between atoms: C_18  and  C_19 
ROOT
ATOM      1  N   UNL d   1      61.308  47.647  50.423  0.00  0.00    -0.297 N 
ATOM      2  N   UNL d   1      60.455  49.019  50.795  0.00  0.00    -0.300 N 
ATOM      3  C   UNL d   1      61.128  48.196  49.841  0.00  0.00     0.100 A 
ATOM      4  C   UNL d   1      61.059  47.781  51.207  0.00  0.00     0.100 A 
ATOM      5  C   UNL d   1      60.633  48.471  51.383  0.00  0.00     0.100 A 
ATOM      6  C   UNL d   1      60.701  48.886  50.018  0.00  0.00     0.100 A 
ENDROOT
BRANCH   1   7
ATOM      7  C   UNL d   1      61.731  46.964  50.244  0.00  0.00     0.123 C 
BRANCH   7   8
ATOM      8  C   UNL d   1      61.406  46.390  49.751  0.00  0.00     0.216 C 
ATOM      9  O   UNL d   1      60.709  46.545  49.338  0.00  0.00    -0.285 OA
BRANCH   8  10
ATOM     10  C   UNL d   1      61.778  45.652  49.669  0.00  0.00     0.080 A 
ATOM     11  C   UNL d   1      61.509  45.008  50.085  0.00  0.00     0.202 A 
ATOM     12  C   UNL d   1      61.875  44.279  50.005  0.00  0.00     0.078 A 
ATOM     13  O   UNL d   1      60.862  45.090  50.590  0.00  0.00    -0.286 OA
ATOM     14  C   UNL d   1      61.597  43.628  50.430  0.00  0.00     0.007 C 
ATOM     15  C   UNL d   1      62.529  44.191  49.496  0.00  0.00     0.199 A 
ATOM     16  C   UNL d   1      62.802  44.851  49.072  0.00  0.00     0.042 A 
ATOM     17  O   UNL d   1      62.894  43.463  49.417  0.00  0.00    -0.286 OA
ATOM     18  C   UNL d   1      62.431  45.581  49.156  0.00  0.00     0.010 A 
ENDBRANCH   8  10
ENDBRANCH   7   8
ENDBRANCH   1   7
BRANCH   2  19
ATOM     19  C   UNL d   1      60.029  49.706  50.976  0.00  0.00     0.080 C 
BRANCH  19  20
ATOM     20  C   UNL d   1      59.206  49.704  50.921  0.00  0.00     0.020 A 
ATOM     21  C   UNL d   1      58.840  49.708  50.181  0.00  0.00     0.028 A 
ATOM     22  C   UNL d   1      58.022  49.706  50.131  0.00  0.00     0.119 A 
ATOM     23  O   UNL d   1      57.515  49.708  49.482  0.00  0.00    -0.300 OA
ATOM     24  C   UNL d   1      57.567  49.701  50.818  0.00  0.00     0.119 A 
ATOM     25  C   UNL d   1      56.740  49.704  49.757  0.00  0.00     0.304 A 
ATOM     26  O   UNL d   1      56.774  49.700  50.586  0.00  0.00    -0.300 OA
ATOM     27  C   UNL d   1      57.929  49.697  51.558  0.00  0.00     0.026 A 
ATOM     28  C   UNL d   1      58.757  49.699  51.603  0.00  0.00     0.004 A 
ENDBRANCH  19  20
ENDBRANCH   2  19
TORSDOF 5
ENDMDL
