MODEL 1
REMARK VINA RESULT:      -2.9      0.000      0.000
REMARK  4 active torsions:
REMARK  status: ('A' for Active; 'I' for Inactive)
REMARK    1  A    between atoms: C_18  and  C_5 
REMARK    2  A    between atoms: C_7  and  C_8 
REMARK       I    between atoms: C_8  and  N_17 
REMARK    3  A    between atoms: N_17  and  C_19 
REMARK    4  A    between atoms: C_19  and  C_18 
ROOT
ATOM      1  C   UNL d   1      29.302  16.831 -24.020  0.00  0.00     0.148 A 
ATOM      2  N   UNL d   1      29.647  16.084 -23.938  0.00  0.00    -0.288 N 
ATOM      3  N   UNL d   1      29.830  17.311 -24.418  0.00  0.00    -0.227 NA
ATOM      4  C   UNL d   1      30.396  16.116 -24.293  0.00  0.00     0.101 A 
ATOM      5  C   UNL d   1      30.503  16.878 -24.588  0.00  0.00     0.102 A 
ATOM      6  C   UNL d   1      28.547  16.960 -23.714  0.00  0.00     0.035 A 
ATOM      7  C   UNL d   1      29.245  15.476 -23.556  0.00  0.00     0.082 A 
ATOM      8  C   UNL d   1      28.496  15.611 -23.255  0.00  0.00     0.019 A 
ATOM      9  C   UNL d   1      28.139  16.359 -23.332  0.00  0.00     0.004 A 
ATOM     10  C   UNL d   1      28.188  17.711 -23.791  0.00  0.00     0.003 C 
ENDROOT
BRANCH   5  11
ATOM     11  C   UNL d   1      31.173  17.161 -24.988  0.00  0.00     0.042 C 
BRANCH  11  12
ATOM     12  C   UNL d   1      31.705  17.664 -24.600  0.00  0.00     0.104 C 
BRANCH  12  13
ATOM     13  N   UNL d   1      32.153  18.199 -25.031  0.00  0.00    -0.205 NA
ATOM     14  C   UNL d   1      32.755  18.629 -24.661  0.00  0.00     0.302 C 
ATOM     15  O   UNL d   1      33.196  19.158 -25.093  0.00  0.00    -0.263 OA
BRANCH  14  16
ATOM     16  C   UNL d   1      32.900  18.516 -23.855  0.00  0.00     0.158 A 
ATOM     17  O   UNL d   1      32.689  19.095 -23.315  0.00  0.00    -0.300 OA
ATOM     18  C   UNL d   1      32.899  18.832 -22.560  0.00  0.00     0.123 A 
ATOM     19  C   UNL d   1      33.238  18.096 -22.633  0.00  0.00     0.029 A 
ATOM     20  C   UNL d   1      33.241  17.893 -23.442  0.00  0.00     0.032 A 
ENDBRANCH  14  16
ENDBRANCH  12  13
ENDBRANCH  11  12
ENDBRANCH   5  11
TORSDOF 4
ENDMDL
MODEL 2
REMARK VINA RESULT:      -2.6      2.060      4.623
REMARK  4 active torsions:
REMARK  status: ('A' for Active; 'I' for Inactive)
REMARK    1  A    between atoms: C_18  and  C_5 
REMARK    2  A    between atoms: C_7  and  C_8 
REMARK       I    between atoms: C_8  and  N_17 
REMARK    3  A    between atoms: N_17  and  C_19 
REMARK    4  A    between atoms: C_19  and  C_18 
ROOT
ATOM      1  C   UNL d   1      33.006  20.050 -22.153  0.00  0.00     0.148 A 
ATOM      2  N   UNL d   1      33.170  20.261 -22.935  0.00  0.00    -0.288 N 
ATOM      3  N   UNL d   1      32.976  19.235 -22.112  0.00  0.00    -0.227 NA
ATOM      4  C   UNL d   1      33.240  19.560 -23.372  0.00  0.00     0.101 A 
ATOM      5  C   UNL d   1      33.120  18.929 -22.857  0.00  0.00     0.102 A 
ATOM      6  C   UNL d   1      32.906  20.644 -21.589  0.00  0.00     0.035 A 
ATOM      7  C   UNL d   1      33.234  21.053 -23.151  0.00  0.00     0.082 A 
ATOM      8  C   UNL d   1      33.135  21.637 -22.587  0.00  0.00     0.019 A 
ATOM      9  C   UNL d   1      32.969  21.436 -21.797  0.00  0.00     0.004 A 
ATOM     10  C   UNL d   1      32.740  20.442 -20.795  0.00  0.00     0.003 C 
ENDROOT
BRANCH   5  11
ATOM     11  C   UNL d   1      33.139  18.122 -23.055  0.00  0.00     0.042 C 
BRANCH  11  12
ATOM     12  C   UNL d   1      32.456  17.750 -23.341  0.00  0.00     0.104 C 
BRANCH  12  13
ATOM     13  N   UNL d   1      32.379  16.936 -23.285  0.00  0.00    -0.205 NA
ATOM     14  C   UNL d   1      31.778  16.546 -23.700  0.00  0.00     0.302 C 
ATOM     15  O   UNL d   1      31.706  15.738 -23.640  0.00  0.00    -0.263 OA
BRANCH  14  16
ATOM     16  C   UNL d   1      31.258  16.984 -24.170  0.00  0.00     0.158 A 
ATOM     17  O   UNL d   1      30.486  17.107 -23.924  0.00  0.00    -0.300 OA
ATOM     18  C   UNL d   1      30.100  17.558 -24.498  0.00  0.00     0.123 A 
ATOM     19  C   UNL d   1      30.630  17.713 -25.097  0.00  0.00     0.029 A 
ATOM     20  C   UNL d   1      31.357  17.356 -24.896  0.00  0.00     0.032 A 
ENDBRANCH  14  16
ENDBRANCH  12  13
ENDBRANCH  11  12
ENDBRANCH   5  11
TORSDOF 4
ENDMDL
MODEL 3
REMARK VINA RESULT:      -2.2      2.725      5.130
REMARK  4 active torsions:
REMARK  status: ('A' for Active; 'I' for Inactive)
REMARK    1  A    between atoms: C_18  and  C_5 
REMARK    2  A    between atoms: C_7  and  C_8 
REMARK       I    between atoms: C_8  and  N_17 
REMARK    3  A    between atoms: N_17  and  C_19 
REMARK    4  A    between atoms: C_19  and  C_18 
ROOT
ATOM      1  C   UNL d   1      32.622  21.471 -21.475  0.00  0.00     0.148 A 
ATOM      2  N   UNL d   1      33.025  21.519 -22.195  0.00  0.00    -0.288 N 
ATOM      3  N   UNL d   1      32.590  20.685 -21.254  0.00  0.00    -0.227 NA
ATOM      4  C   UNL d   1      33.239  20.748 -22.412  0.00  0.00     0.101 A 
ATOM      5  C   UNL d   1      32.967  20.237 -21.826  0.00  0.00     0.102 A 
ATOM      6  C   UNL d   1      32.342  22.164 -21.125  0.00  0.00     0.035 A 
ATOM      7  C   UNL d   1      33.146  22.246 -22.560  0.00  0.00     0.082 A 
ATOM      8  C   UNL d   1      32.865  22.930 -22.208  0.00  0.00     0.019 A 
ATOM      9  C   UNL d   1      32.458  22.893 -21.483  0.00  0.00     0.004 A 
ATOM     10  C   UNL d   1      31.933  22.127 -20.397  0.00  0.00     0.003 C 
ENDROOT
BRANCH   5  11
ATOM     11  C   UNL d   1      33.057  19.411 -21.812  0.00  0.00     0.042 C 
BRANCH  11  12
ATOM     12  C   UNL d   1      32.920  18.968 -22.499  0.00  0.00     0.104 C 
BRANCH  12  13
ATOM     13  N   UNL d   1      33.167  18.188 -22.540  0.00  0.00    -0.205 NA
ATOM     14  C   UNL d   1      32.993  17.733 -23.210  0.00  0.00     0.302 C 
ATOM     15  O   UNL d   1      33.241  16.959 -23.245  0.00  0.00    -0.263 OA
BRANCH  14  16
ATOM     16  C   UNL d   1      32.570  18.071 -23.834  0.00  0.00     0.158 A 
ATOM     17  O   UNL d   1      31.767  17.930 -23.908  0.00  0.00    -0.300 OA
ATOM     18  C   UNL d   1      31.495  18.335 -24.576  0.00  0.00     0.123 A 
ATOM     19  C   UNL d   1      32.126  18.723 -24.911  0.00  0.00     0.029 A 
ATOM     20  C   UNL d   1      32.802  18.561 -24.451  0.00  0.00     0.032 A 
ENDBRANCH  14  16
ENDBRANCH  12  13
ENDBRANCH  11  12
ENDBRANCH   5  11
TORSDOF 4
ENDMDL
MODEL 4
REMARK VINA RESULT:      -1.8      1.194      1.677
REMARK  4 active torsions:
REMARK  status: ('A' for Active; 'I' for Inactive)
REMARK    1  A    between atoms: C_18  and  C_5 
REMARK    2  A    between atoms: C_7  and  C_8 
REMARK       I    between atoms: C_8  and  N_17 
REMARK    3  A    between atoms: N_17  and  C_19 
REMARK    4  A    between atoms: C_19  and  C_18 
ROOT
ATOM      1  C   UNL d   1      29.423  15.807 -23.718  0.00  0.00     0.148 A 
ATOM      2  N   UNL d   1      29.674  15.663 -24.492  0.00  0.00    -0.288 N 
ATOM      3  N   UNL d   1      30.086  15.913 -23.252  0.00  0.00    -0.227 NA
ATOM      4  C   UNL d   1      30.503  15.682 -24.492  0.00  0.00     0.101 A 
ATOM      5  C   UNL d   1      30.752  15.837 -23.723  0.00  0.00     0.102 A 
ATOM      6  C   UNL d   1      28.615  15.820 -23.554  0.00  0.00     0.035 A 
ATOM      7  C   UNL d   1      29.127  15.533 -25.093  0.00  0.00     0.082 A 
ATOM      8  C   UNL d   1      28.326  15.547 -24.924  0.00  0.00     0.019 A 
ATOM      9  C   UNL d   1      28.063  15.692 -24.148  0.00  0.00     0.004 A 
ATOM     10  C   UNL d   1      28.349  15.965 -22.775  0.00  0.00     0.003 C 
ENDROOT
BRANCH   5  11
ATOM     11  C   UNL d   1      31.538  15.906 -23.464  0.00  0.00     0.042 C 
BRANCH  11  12
ATOM     12  C   UNL d   1      31.948  16.618 -23.570  0.00  0.00     0.104 C 
BRANCH  12  13
ATOM     13  N   UNL d   1      32.369  16.946 -22.948  0.00  0.00    -0.205 NA
ATOM     14  C   UNL d   1      32.823  17.628 -23.067  0.00  0.00     0.302 C 
ATOM     15  O   UNL d   1      33.239  17.948 -22.446  0.00  0.00    -0.263 OA
BRANCH  14  16
ATOM     16  C   UNL d   1      32.848  17.974 -23.817  0.00  0.00     0.158 A 
ATOM     17  O   UNL d   1      32.491  18.701 -23.945  0.00  0.00    -0.300 OA
ATOM     18  C   UNL d   1      32.603  18.907 -24.737  0.00  0.00     0.123 A 
ATOM     19  C   UNL d   1      33.026  18.312 -25.097  0.00  0.00     0.029 A 
ATOM     20  C   UNL d   1      33.182  17.725 -24.525  0.00  0.00     0.032 A 
ENDBRANCH  14  16
ENDBRANCH  12  13
ENDBRANCH  11  12
ENDBRANCH   5  11
TORSDOF 4
ENDMDL
MODEL 5
REMARK VINA RESULT:      -0.8      1.335      1.849
REMARK  4 active torsions:
REMARK  status: ('A' for Active; 'I' for Inactive)
REMARK    1  A    between atoms: C_18  and  C_5 
REMARK    2  A    between atoms: C_7  and  C_8 
REMARK       I    between atoms: C_8  and  N_17 
REMARK    3  A    between atoms: N_17  and  C_19 
REMARK    4  A    between atoms: C_19  and  C_18 
ROOT
ATOM      1  C   UNL d   1      28.682  16.422 -23.780  0.00  0.00     0.148 A 
ATOM      2  N   UNL d   1      28.902  17.212 -23.880  0.00  0.00    -0.288 N 
ATOM      3  N   UNL d   1      29.287  15.953 -24.065  0.00  0.00    -0.227 NA
ATOM      4  C   UNL d   1      29.653  17.219 -24.232  0.00  0.00     0.101 A 
ATOM      5  C   UNL d   1      29.886  16.437 -24.344  0.00  0.00     0.102 A 
ATOM      6  C   UNL d   1      27.952  16.248 -23.438  0.00  0.00     0.035 A 
ATOM      7  C   UNL d   1      28.401  17.820 -23.642  0.00  0.00     0.082 A 
ATOM      8  C   UNL d   1      27.677  17.641 -23.303  0.00  0.00     0.019 A 
ATOM      9  C   UNL d   1      27.446  16.849 -23.198  0.00  0.00     0.004 A 
ATOM     10  C   UNL d   1      27.719  15.453 -23.332  0.00  0.00     0.003 C 
ENDROOT
BRANCH   5  11
ATOM     11  C   UNL d   1      30.600  16.179 -24.680  0.00  0.00     0.042 C 
BRANCH  11  12
ATOM     12  C   UNL d   1      31.321  16.375 -24.322  0.00  0.00     0.104 C 
BRANCH  12  13
ATOM     13  N   UNL d   1      31.903  15.805 -24.232  0.00  0.00    -0.205 NA
ATOM     14  C   UNL d   1      32.667  16.024 -24.004  0.00  0.00     0.302 C 
ATOM     15  O   UNL d   1      33.241  15.454 -23.917  0.00  0.00    -0.263 OA
BRANCH  14  16
ATOM     16  C   UNL d   1      32.838  16.821 -23.867  0.00  0.00     0.158 A 
ATOM     17  O   UNL d   1      32.923  17.096 -23.100  0.00  0.00    -0.300 OA
ATOM     18  C   UNL d   1      33.091  17.905 -23.133  0.00  0.00     0.123 A 
ATOM     19  C   UNL d   1      33.109  18.128 -23.915  0.00  0.00     0.029 A 
ATOM     20  C   UNL d   1      32.952  17.453 -24.379  0.00  0.00     0.032 A 
ENDBRANCH  14  16
ENDBRANCH  12  13
ENDBRANCH  11  12
ENDBRANCH   5  11
TORSDOF 4
ENDMDL
