MODEL 1
REMARK VINA RESULT:     109.6      0.000      0.000
REMARK  8 active torsions:
REMARK  status: ('A' for Active; 'I' for Inactive)
REMARK    1  A    between atoms: N_7  and  N_1 
REMARK    2  A    between atoms: S_9  and  C_2 
REMARK       I    between atoms: C_8  and  N_7 
REMARK    3  A    between atoms: C_19  and  C_8 
REMARK    4  A    between atoms: C_18  and  S_9 
REMARK    5  A    between atoms: C_10  and  C_18 
REMARK       I    between atoms: N_13  and  C_10 
REMARK    6  A    between atoms: C_12  and  C_14 
REMARK    7  A    between atoms: C_14  and  N_13 
REMARK    8  A    between atoms: C_22  and  C_19 
ROOT
ATOM      1  N   UNL d   1      59.927  48.700  51.066  0.00  0.00    -0.168 N 
ATOM      2  C   UNL d   1      60.648  48.429  50.821  0.00  0.00     0.199 A 
ATOM      3  C   UNL d   1      59.854  49.092  51.792  0.00  0.00     0.283 A 
ATOM      4  N   UNL d   1      61.333  48.539  51.296  0.00  0.00    -0.221 NA
ATOM      5  C   UNL d   1      60.534  49.205  52.269  0.00  0.00     0.076 A 
ATOM      6  C   UNL d   1      61.270  48.928  52.020  0.00  0.00     0.088 A 
ATOM      7  O   UNL d   1      59.121  49.371  52.047  0.00  0.00    -0.265 OA
ATOM      8  C   UNL d   1      60.455  49.598  52.995  0.00  0.00     0.006 A 
ATOM      9  C   UNL d   1      61.928  49.043  52.492  0.00  0.00     0.019 A 
ATOM     10  C   UNL d   1      61.128  49.708  53.463  0.00  0.00     0.000 A 
ATOM     11  C   UNL d   1      61.864  49.431  53.213  0.00  0.00     0.002 A 
ENDROOT
BRANCH   2  12
ATOM     12  S   UNL d   1      60.720  48.043  50.108  0.00  0.00    -0.043 SA
BRANCH  12  13
ATOM     13  C   UNL d   1      60.751  47.220  50.083  0.00  0.00     0.101 C 
BRANCH  13  14
ATOM     14  C   UNL d   1      61.258  46.845  49.563  0.00  0.00     0.286 C 
ATOM     15  N   UNL d   1      61.232  46.029  49.478  0.00  0.00    -0.206 NA
ATOM     16  O   UNL d   1      61.798  47.287  49.122  0.00  0.00    -0.265 OA
BRANCH  15  17
ATOM     17  C   UNL d   1      61.739  45.653  48.957  0.00  0.00     0.103 C 
BRANCH  17  18
ATOM     18  C   UNL d   1      62.004  44.893  49.116  0.00  0.00     0.030 A 
ATOM     19  C   UNL d   1      61.490  44.251  49.053  0.00  0.00     0.059 A 
ATOM     20 CL   UNL d   1      60.706  44.375  48.829  0.00  0.00    -0.082 Cl
ATOM     21  C   UNL d   1      61.754  43.491  49.212  0.00  0.00     0.011 A 
ATOM     22  C   UNL d   1      62.537  43.367  49.437  0.00  0.00     0.001 A 
ATOM     23  C   UNL d   1      63.051  44.011  49.500  0.00  0.00     0.000 A 
ATOM     24  C   UNL d   1      62.787  44.769  49.341  0.00  0.00     0.002 A 
ENDBRANCH  17  18
ENDBRANCH  15  17
ENDBRANCH  13  14
ENDBRANCH  12  13
ENDBRANCH   2  12
BRANCH   1  25
ATOM     25  N   UNL d   1      59.264  48.591  50.602  0.00  0.00    -0.119 NA
ATOM     26  C   UNL d   1      59.124  49.090  49.972  0.00  0.00     0.296 C 
ATOM     27  O   UNL d   1      59.645  49.706  49.797  0.00  0.00    -0.264 OA
BRANCH  26  28
ATOM     28  C   UNL d   1      58.452  48.977  49.503  0.00  0.00     0.064 C 
BRANCH  28  29
ATOM     29  C   UNL d   1      57.717  48.980  49.846  0.00  0.00     0.005 A 
ATOM     30  C   UNL d   1      57.351  49.701  50.011  0.00  0.00     0.000 A 
ATOM     31  C   UNL d   1      56.604  49.705  50.361  0.00  0.00     0.000 A 
ATOM     32  C   UNL d   1      56.232  49.005  50.542  0.00  0.00     0.000 A 
ATOM     33  C   UNL d   1      56.609  48.285  50.373  0.00  0.00     0.000 A 
ATOM     34  C   UNL d   1      57.346  48.281  50.027  0.00  0.00     0.000 A 
ENDBRANCH  28  29
ENDBRANCH  26  28
ENDBRANCH   1  25
TORSDOF 8
ENDMDL
