MODEL 1
REMARK VINA RESULT:      -6.4      0.000      0.000
REMARK  3 active torsions:
REMARK  status: ('A' for Active; 'I' for Inactive)
REMARK    1  A    between atoms: C_6  and  C_1 
REMARK    2  A    between atoms: C_8  and  C_4 
REMARK    3  A    between atoms: O_17  and  C_14 
ROOT
ATOM      1  C   UNL d   1     -41.864-122.168 -54.745  0.00  0.00     0.122 A 
ATOM      2  C   UNL d   1     -42.368-121.875 -54.150  0.00  0.00     0.285 A 
ATOM      3  N   UNL d   1     -42.245-122.087 -53.363  0.00  0.00    -0.208 NA
ATOM      4  C   UNL d   1     -41.622-122.588 -53.167  0.00  0.00     0.085 A 
ATOM      5  C   UNL d   1     -41.241-122.670 -54.548  0.00  0.00     0.013 A 
ATOM      6  C   UNL d   1     -41.123-122.879 -53.756  0.00  0.00     0.020 A 
ATOM      7  O   UNL d   1     -42.995-121.369 -54.352  0.00  0.00    -0.265 OA
ENDROOT
BRANCH   4   8
ATOM      8  C   UNL d   1     -41.497-122.802 -52.377  0.00  0.00     0.018 A 
ATOM      9  C   UNL d   1     -41.486-123.603 -52.168  0.00  0.00     0.004 A 
ATOM     10  C   UNL d   1     -41.361-123.814 -51.383  0.00  0.00     0.024 A 
ATOM     11  C   UNL d   1     -41.248-123.230 -50.811  0.00  0.00     0.094 A 
ATOM     12  C   UNL d   1     -41.261-122.431 -51.029  0.00  0.00     0.024 A 
ATOM     13  C   UNL d   1     -41.386-122.221 -51.815  0.00  0.00     0.004 A 
BRANCH  11  14
ATOM     14  O   UNL d   1     -41.123-123.446 -50.019  0.00  0.00    -0.328 OA
ATOM     15  C   UNL d   1     -41.600-123.146 -49.425  0.00  0.00     0.181 C 
ENDBRANCH  11  14
ENDBRANCH   4   8
BRANCH   1  16
ATOM     16  C   UNL d   1     -41.987-121.957 -55.531  0.00  0.00     0.216 C 
ATOM     17  O   UNL d   1     -42.654-122.230 -55.933  0.00  0.00    -0.644 OA
ATOM     18  O   UNL d   1     -41.444-121.471 -55.924  0.00  0.00    -0.644 OA
ENDBRANCH   1  16
TORSDOF 3
ENDMDL
MODEL 2
REMARK VINA RESULT:      -5.1      1.340      4.488
REMARK  3 active torsions:
REMARK  status: ('A' for Active; 'I' for Inactive)
REMARK    1  A    between atoms: C_6  and  C_1 
REMARK    2  A    between atoms: C_8  and  C_4 
REMARK    3  A    between atoms: O_17  and  C_14 
ROOT
ATOM      1  C   UNL d   1     -41.932-123.041 -49.397  0.00  0.00     0.122 A 
ATOM      2  C   UNL d   1     -42.485-123.351 -49.938  0.00  0.00     0.285 A 
ATOM      3  N   UNL d   1     -42.351-123.286 -50.748  0.00  0.00    -0.208 NA
ATOM      4  C   UNL d   1     -41.670-122.914 -51.022  0.00  0.00     0.085 A 
ATOM      5  C   UNL d   1     -41.250-122.669 -49.672  0.00  0.00     0.013 A 
ATOM      6  C   UNL d   1     -41.123-122.607 -50.487  0.00  0.00     0.020 A 
ATOM      7  O   UNL d   1     -43.171-123.726 -49.657  0.00  0.00    -0.265 OA
ENDROOT
BRANCH   4   8
ATOM      8  C   UNL d   1     -41.534-122.848 -51.835  0.00  0.00     0.018 A 
ATOM      9  C   UNL d   1     -41.303-123.516 -52.266  0.00  0.00     0.004 A 
ATOM     10  C   UNL d   1     -41.168-123.449 -53.074  0.00  0.00     0.024 A 
ATOM     11  C   UNL d   1     -41.263-122.720 -53.450  0.00  0.00     0.094 A 
ATOM     12  C   UNL d   1     -41.495-122.057 -53.012  0.00  0.00     0.024 A 
ATOM     13  C   UNL d   1     -41.629-122.126 -52.203  0.00  0.00     0.004 A 
BRANCH  11  14
ATOM     14  O   UNL d   1     -41.126-122.656 -54.267  0.00  0.00    -0.328 OA
ATOM     15  C   UNL d   1     -41.753-122.615 -54.792  0.00  0.00     0.181 C 
ENDBRANCH  11  14
ENDBRANCH   4   8
BRANCH   1  16
ATOM     16  C   UNL d   1     -42.065-123.105 -48.587  0.00  0.00     0.216 C 
ATOM     17  O   UNL d   1     -41.675-123.685 -48.149  0.00  0.00    -0.644 OA
ATOM     18  O   UNL d   1     -42.591-122.590 -48.207  0.00  0.00    -0.644 OA
ENDBRANCH   1  16
TORSDOF 3
ENDMDL
MODEL 3
REMARK VINA RESULT:      -4.5      1.821      2.863
REMARK  3 active torsions:
REMARK  status: ('A' for Active; 'I' for Inactive)
REMARK    1  A    between atoms: C_6  and  C_1 
REMARK    2  A    between atoms: C_8  and  C_4 
REMARK    3  A    between atoms: O_17  and  C_14 
ROOT
ATOM      1  C   UNL d   1     -41.455-122.837 -52.062  0.00  0.00     0.122 A 
ATOM      2  C   UNL d   1     -41.925-122.283 -51.655  0.00  0.00     0.285 A 
ATOM      3  N   UNL d   1     -42.059-122.370 -50.846  0.00  0.00    -0.208 NA
ATOM      4  C   UNL d   1     -41.726-123.006 -50.443  0.00  0.00     0.085 A 
ATOM      5  C   UNL d   1     -41.123-123.474 -51.658  0.00  0.00     0.013 A 
ATOM      6  C   UNL d   1     -41.261-123.555 -50.846  0.00  0.00     0.020 A 
ATOM      7  O   UNL d   1     -42.259-121.643 -52.066  0.00  0.00    -0.265 OA
ENDROOT
BRANCH   4   8
ATOM      8  C   UNL d   1     -41.859-123.095 -49.631  0.00  0.00     0.018 A 
ATOM      9  C   UNL d   1     -42.632-123.052 -49.337  0.00  0.00     0.004 A 
ATOM     10  C   UNL d   1     -42.763-123.141 -48.530  0.00  0.00     0.024 A 
ATOM     11  C   UNL d   1     -42.127-123.271 -48.020  0.00  0.00     0.094 A 
ATOM     12  C   UNL d   1     -41.358-123.312 -48.322  0.00  0.00     0.024 A 
ATOM     13  C   UNL d   1     -41.228-123.223 -49.130  0.00  0.00     0.004 A 
BRANCH  11  14
ATOM     14  O   UNL d   1     -42.263-123.360 -47.205  0.00  0.00    -0.328 OA
ATOM     15  C   UNL d   1     -41.638-123.346 -46.676  0.00  0.00     0.181 C 
ENDBRANCH  11  14
ENDBRANCH   4   8
BRANCH   1  16
ATOM     16  C   UNL d   1     -41.321-122.751 -52.870  0.00  0.00     0.216 C 
ATOM     17  O   UNL d   1     -41.376-123.404 -53.371  0.00  0.00    -0.644 OA
ATOM     18  O   UNL d   1     -41.132-122.009 -53.186  0.00  0.00    -0.644 OA
ENDBRANCH   1  16
TORSDOF 3
ENDMDL
