MODEL 1
REMARK VINA RESULT:      -4.9      0.000      0.000
REMARK  6 active torsions:
REMARK  status: ('A' for Active; 'I' for Inactive)
REMARK    1  A    between atoms: C_6  and  N_3 
REMARK    2  A    between atoms: C_14  and  C_6 
REMARK    3  A    between atoms: C_7  and  O_8 
REMARK    4  A    between atoms: O_8  and  C_11 
REMARK    5  A    between atoms: C_11  and  C_15 
REMARK    6  A    between atoms: C_15  and  C_14 
ROOT
ATOM      1  C   UNL d   1      58.617  -0.643  29.363  0.00  0.00     0.082 C 
ENDROOT
BRANCH   1   2
ATOM      2  N   UNL d   1      59.282  -1.098  29.173  0.00  0.00    -0.287 N 
ATOM      3  C   UNL d   1      60.003  -0.663  29.155  0.00  0.00     0.183 A 
ATOM      4  N   UNL d   1      60.626  -1.202  28.954  0.00  0.00    -0.224 NA
ATOM      5  C   UNL d   1      60.288  -1.962  28.851  0.00  0.00     0.099 A 
ATOM      6  C   UNL d   1      59.456  -1.894  28.988  0.00  0.00     0.083 A 
ATOM      7  C   UNL d   1      60.620  -2.692  28.656  0.00  0.00     0.021 A 
ATOM      8  C   UNL d   1      58.979  -2.575  28.921  0.00  0.00     0.019 A 
ATOM      9  C   UNL d   1      59.318  -3.306  28.724  0.00  0.00     0.002 A 
ATOM     10  C   UNL d   1      60.142  -3.359  28.592  0.00  0.00     0.002 A 
ENDBRANCH   1   2
BRANCH   1  11
ATOM     11  C   UNL d   1      58.541  -0.317  30.114  0.00  0.00     0.021 C 
BRANCH  11  12
ATOM     12  C   UNL d   1      57.841   0.025  30.343  0.00  0.00     0.028 C 
BRANCH  12  13
ATOM     13  C   UNL d   1      57.526  -0.118  31.103  0.00  0.00     0.123 C 
BRANCH  13  14
ATOM     14  O   UNL d   1      56.748   0.086  31.270  0.00  0.00    -0.305 OA
BRANCH  14  15
ATOM     15  C   UNL d   1      56.416  -0.122  31.996  0.00  0.00     0.100 A 
ATOM     16  C   UNL d   1      56.137   0.469  32.503  0.00  0.00     0.025 A 
ATOM     17  C   UNL d   1      55.811   0.257  33.218  0.00  0.00     0.002 A 
ATOM     18  C   UNL d   1      55.754  -0.527  33.441  0.00  0.00     0.000 A 
ATOM     19  C   UNL d   1      56.034  -1.120  32.931  0.00  0.00     0.002 A 
ATOM     20  C   UNL d   1      56.366  -0.916  32.207  0.00  0.00     0.025 A 
ENDBRANCH  14  15
ENDBRANCH  13  14
ENDBRANCH  12  13
ENDBRANCH  11  12
ENDBRANCH   1  11
TORSDOF 6
ENDMDL
MODEL 2
REMARK VINA RESULT:      -4.3      1.574      5.175
REMARK  6 active torsions:
REMARK  status: ('A' for Active; 'I' for Inactive)
REMARK    1  A    between atoms: C_6  and  N_3 
REMARK    2  A    between atoms: C_14  and  C_6 
REMARK    3  A    between atoms: C_7  and  O_8 
REMARK    4  A    between atoms: O_8  and  C_11 
REMARK    5  A    between atoms: C_11  and  C_15 
REMARK    6  A    between atoms: C_15  and  C_14 
ROOT
ATOM      1  C   UNL d   1      57.460  -0.851  30.772  0.00  0.00     0.082 C 
ENDROOT
BRANCH   1   2
ATOM      2  N   UNL d   1      57.195  -0.441  31.440  0.00  0.00    -0.287 N 
ATOM      3  C   UNL d   1      57.510   0.337  31.513  0.00  0.00     0.183 A 
ATOM      4  N   UNL d   1      57.190   0.682  32.218  0.00  0.00    -0.224 NA
ATOM      5  C   UNL d   1      56.682   0.119  32.574  0.00  0.00     0.099 A 
ATOM      6  C   UNL d   1      56.687  -0.575  32.089  0.00  0.00     0.083 A 
ATOM      7  C   UNL d   1      56.224   0.144  33.260  0.00  0.00     0.021 A 
ATOM      8  C   UNL d   1      56.224  -1.230  32.316  0.00  0.00     0.019 A 
ATOM      9  C   UNL d   1      55.765  -1.199  33.007  0.00  0.00     0.002 A 
ATOM     10  C   UNL d   1      55.769  -0.507  33.477  0.00  0.00     0.002 A 
ENDBRANCH   1   2
BRANCH   1  11
ATOM     11  C   UNL d   1      58.145  -0.612  30.385  0.00  0.00     0.021 C 
BRANCH  11  12
ATOM     12  C   UNL d   1      58.341  -0.930  29.663  0.00  0.00     0.028 C 
BRANCH  12  13
ATOM     13  C   UNL d   1      58.992  -1.447  29.589  0.00  0.00     0.123 C 
BRANCH  13  14
ATOM     14  O   UNL d   1      59.169  -1.783  28.861  0.00  0.00    -0.305 OA
BRANCH  14  15
ATOM     15  C   UNL d   1      59.746  -2.369  28.808  0.00  0.00     0.100 A 
ATOM     16  C   UNL d   1      59.520  -3.164  28.775  0.00  0.00     0.025 A 
ATOM     17  C   UNL d   1      60.095  -3.738  28.723  0.00  0.00     0.002 A 
ATOM     18  C   UNL d   1      60.887  -3.542  28.703  0.00  0.00     0.000 A 
ATOM     19  C   UNL d   1      61.113  -2.743  28.735  0.00  0.00     0.002 A 
ATOM     20  C   UNL d   1      60.540  -2.157  28.788  0.00  0.00     0.025 A 
ENDBRANCH  14  15
ENDBRANCH  13  14
ENDBRANCH  12  13
ENDBRANCH  11  12
ENDBRANCH   1  11
TORSDOF 6
ENDMDL
MODEL 3
REMARK VINA RESULT:      -4.2      1.910      5.539
REMARK  6 active torsions:
REMARK  status: ('A' for Active; 'I' for Inactive)
REMARK    1  A    between atoms: C_6  and  N_3 
REMARK    2  A    between atoms: C_14  and  C_6 
REMARK    3  A    between atoms: C_7  and  O_8 
REMARK    4  A    between atoms: O_8  and  C_11 
REMARK    5  A    between atoms: C_11  and  C_15 
REMARK    6  A    between atoms: C_15  and  C_14 
ROOT
ATOM      1  C   UNL d   1      56.630   0.068  31.892  0.00  0.00     0.082 C 
ENDROOT
BRANCH   1   2
ATOM      2  N   UNL d   1      56.610   0.271  32.694  0.00  0.00    -0.287 N 
ATOM      3  C   UNL d   1      57.359   0.490  33.013  0.00  0.00     0.183 A 
ATOM      4  N   UNL d   1      57.247   0.680  33.831  0.00  0.00    -0.224 NA
ATOM      5  C   UNL d   1      56.436   0.579  34.012  0.00  0.00     0.099 A 
ATOM      6  C   UNL d   1      56.044   0.326  33.306  0.00  0.00     0.083 A 
ATOM      7  C   UNL d   1      56.009   0.682  34.711  0.00  0.00     0.021 A 
ATOM      8  C   UNL d   1      55.223   0.182  33.329  0.00  0.00     0.019 A 
ATOM      9  C   UNL d   1      54.799   0.287  34.035  0.00  0.00     0.002 A 
ATOM     10  C   UNL d   1      55.198   0.538  34.726  0.00  0.00     0.002 A 
ENDBRANCH   1   2
BRANCH   1  11
ATOM     11  C   UNL d   1      57.346  -0.107  31.528  0.00  0.00     0.021 C 
BRANCH  11  12
ATOM     12  C   UNL d   1      57.382  -0.215  30.724  0.00  0.00     0.028 C 
BRANCH  12  13
ATOM     13  C   UNL d   1      58.118  -0.296  30.338  0.00  0.00     0.123 C 
BRANCH  13  14
ATOM     14  O   UNL d   1      58.144  -0.438  29.530  0.00  0.00    -0.305 OA
BRANCH  14  15
ATOM     15  C   UNL d   1      58.829  -0.743  29.188  0.00  0.00     0.100 A 
ATOM     16  C   UNL d   1      58.941  -1.562  29.154  0.00  0.00     0.025 A 
ATOM     17  C   UNL d   1      59.620  -1.856  28.815  0.00  0.00     0.002 A 
ATOM     18  C   UNL d   1      60.191  -1.357  28.511  0.00  0.00     0.000 A 
ATOM     19  C   UNL d   1      60.078  -0.535  28.545  0.00  0.00     0.002 A 
ATOM     20  C   UNL d   1      59.396  -0.229  28.885  0.00  0.00     0.025 A 
ENDBRANCH  14  15
ENDBRANCH  13  14
ENDBRANCH  12  13
ENDBRANCH  11  12
ENDBRANCH   1  11
TORSDOF 6
ENDMDL
MODEL 4
REMARK VINA RESULT:      -3.1      8.537      9.596
REMARK  6 active torsions:
REMARK  status: ('A' for Active; 'I' for Inactive)
REMARK    1  A    between atoms: C_6  and  N_3 
REMARK    2  A    between atoms: C_14  and  C_6 
REMARK    3  A    between atoms: C_7  and  O_8 
REMARK    4  A    between atoms: O_8  and  C_11 
REMARK    5  A    between atoms: C_11  and  C_15 
REMARK    6  A    between atoms: C_15  and  C_14 
ROOT
ATOM      1  C   UNL d   1      58.916  -9.320  33.944  0.00  0.00     0.082 C 
ENDROOT
BRANCH   1   2
ATOM      2  N   UNL d   1      59.547  -9.035  34.397  0.00  0.00    -0.287 N 
ATOM      3  C   UNL d   1      60.278  -9.432  34.259  0.00  0.00     0.183 A 
ATOM      4  N   UNL d   1      60.862  -9.079  34.761  0.00  0.00    -0.224 NA
ATOM      5  C   UNL d   1      60.493  -8.472  35.203  0.00  0.00     0.099 A 
ATOM      6  C   UNL d   1      59.678  -8.447  34.975  0.00  0.00     0.083 A 
ATOM      7  C   UNL d   1      60.783  -7.948  35.771  0.00  0.00     0.021 A 
ATOM      8  C   UNL d   1      59.176  -7.886  35.334  0.00  0.00     0.019 A 
ATOM      9  C   UNL d   1      59.472  -7.362  35.904  0.00  0.00     0.002 A 
ATOM     10  C   UNL d   1      60.280  -7.397  36.120  0.00  0.00     0.002 A 
ENDBRANCH   1   2
BRANCH   1  11
ATOM     11  C   UNL d   1      58.994  -9.394  33.128  0.00  0.00     0.021 C 
BRANCH  11  12
ATOM     12  C   UNL d   1      58.439  -9.801  32.697  0.00  0.00     0.028 C 
BRANCH  12  13
ATOM     13  C   UNL d   1      58.471  -9.812  31.864  0.00  0.00     0.123 C 
BRANCH  13  14
ATOM     14  O   UNL d   1      57.784  -9.719  31.425  0.00  0.00    -0.305 OA
BRANCH  14  15
ATOM     15  C   UNL d   1      57.814  -9.750  30.601  0.00  0.00     0.100 A 
ATOM     16  C   UNL d   1      58.548  -9.786  30.220  0.00  0.00     0.025 A 
ATOM     17  C   UNL d   1      58.571  -9.817  29.407  0.00  0.00     0.002 A 
ATOM     18  C   UNL d   1      57.885  -9.813  28.964  0.00  0.00     0.000 A 
ATOM     19  C   UNL d   1      57.149  -9.777  29.347  0.00  0.00     0.002 A 
ATOM     20  C   UNL d   1      57.115  -9.746  30.168  0.00  0.00     0.025 A 
ENDBRANCH  14  15
ENDBRANCH  13  14
ENDBRANCH  12  13
ENDBRANCH  11  12
ENDBRANCH   1  11
TORSDOF 6
ENDMDL
MODEL 5
REMARK VINA RESULT:      -2.4      8.491      9.954
REMARK  6 active torsions:
REMARK  status: ('A' for Active; 'I' for Inactive)
REMARK    1  A    between atoms: C_6  and  N_3 
REMARK    2  A    between atoms: C_14  and  C_6 
REMARK    3  A    between atoms: C_7  and  O_8 
REMARK    4  A    between atoms: O_8  and  C_11 
REMARK    5  A    between atoms: C_11  and  C_15 
REMARK    6  A    between atoms: C_15  and  C_14 
ROOT
ATOM      1  C   UNL d   1      60.193  -9.770  33.646  0.00  0.00     0.082 C 
ENDROOT
BRANCH   1   2
ATOM      2  N   UNL d   1      59.822  -9.415  34.295  0.00  0.00    -0.287 N 
ATOM      3  C   UNL d   1      59.076  -9.754  34.494  0.00  0.00     0.183 A 
ATOM      4  N   UNL d   1      58.770  -9.334  35.162  0.00  0.00    -0.224 NA
ATOM      5  C   UNL d   1      59.323  -8.741  35.372  0.00  0.00     0.099 A 
ATOM      6  C   UNL d   1      59.973  -8.794  34.833  0.00  0.00     0.083 A 
ATOM      7  C   UNL d   1      59.323  -8.172  35.969  0.00  0.00     0.021 A 
ATOM      8  C   UNL d   1      60.611  -8.263  34.916  0.00  0.00     0.019 A 
ATOM      9  C   UNL d   1      60.605  -7.692  35.518  0.00  0.00     0.002 A 
ATOM     10  C   UNL d   1      59.956  -7.651  36.045  0.00  0.00     0.002 A 
ENDBRANCH   1   2
BRANCH   1  11
ATOM     11  C   UNL d   1      60.005  -9.533  32.882  0.00  0.00     0.021 C 
BRANCH  11  12
ATOM     12  C   UNL d   1      60.482  -9.741  32.258  0.00  0.00     0.028 C 
BRANCH  12  13
ATOM     13  C   UNL d   1      60.271  -9.541  31.476  0.00  0.00     0.123 C 
BRANCH  13  14
ATOM     14  O   UNL d   1      60.832  -9.577  30.877  0.00  0.00    -0.305 OA
BRANCH  14  15
ATOM     15  C   UNL d   1      60.601  -9.485  30.092  0.00  0.00     0.100 A 
ATOM     16  C   UNL d   1      59.890  -9.818  29.831  0.00  0.00     0.025 A 
ATOM     17  C   UNL d   1      59.667  -9.723  29.054  0.00  0.00     0.002 A 
ATOM     18  C   UNL d   1      60.134  -9.305  28.529  0.00  0.00     0.000 A 
ATOM     19  C   UNL d   1      60.848  -8.971  28.791  0.00  0.00     0.002 A 
ATOM     20  C   UNL d   1      61.081  -9.062  29.574  0.00  0.00     0.025 A 
ENDBRANCH  14  15
ENDBRANCH  13  14
ENDBRANCH  12  13
ENDBRANCH  11  12
ENDBRANCH   1  11
TORSDOF 6
ENDMDL
MODEL 6
REMARK VINA RESULT:      -2.3      1.073      1.846
REMARK  6 active torsions:
REMARK  status: ('A' for Active; 'I' for Inactive)
REMARK    1  A    between atoms: C_6  and  N_3 
REMARK    2  A    between atoms: C_14  and  C_6 
REMARK    3  A    between atoms: C_7  and  O_8 
REMARK    4  A    between atoms: O_8  and  C_11 
REMARK    5  A    between atoms: C_11  and  C_15 
REMARK    6  A    between atoms: C_15  and  C_14 
ROOT
ATOM      1  C   UNL d   1      58.075  -0.957  30.010  0.00  0.00     0.082 C 
ENDROOT
BRANCH   1   2
ATOM      2  N   UNL d   1      58.834  -0.992  29.682  0.00  0.00    -0.287 N 
ATOM      3  C   UNL d   1      59.035  -1.743  29.357  0.00  0.00     0.183 A 
ATOM      4  N   UNL d   1      59.821  -1.689  29.046  0.00  0.00    -0.224 NA
ATOM      5  C   UNL d   1      60.101  -0.911  29.180  0.00  0.00     0.099 A 
ATOM      6  C   UNL d   1      59.486  -0.482  29.574  0.00  0.00     0.083 A 
ATOM      7  C   UNL d   1      60.816  -0.542  29.000  0.00  0.00     0.021 A 
ATOM      8  C   UNL d   1      59.618   0.317  29.777  0.00  0.00     0.019 A 
ATOM      9  C   UNL d   1      60.340   0.682  29.593  0.00  0.00     0.002 A 
ATOM     10  C   UNL d   1      60.938   0.246  29.203  0.00  0.00     0.002 A 
ENDBRANCH   1   2
BRANCH   1  11
ATOM     11  C   UNL d   1      57.954  -0.584  30.733  0.00  0.00     0.021 C 
BRANCH  11  12
ATOM     12  C   UNL d   1      57.216  -0.577  31.072  0.00  0.00     0.028 C 
BRANCH  12  13
ATOM     13  C   UNL d   1      57.072  -0.138  31.768  0.00  0.00     0.123 C 
BRANCH  13  14
ATOM     14  O   UNL d   1      56.919  -0.528  32.474  0.00  0.00    -0.305 OA
BRANCH  14  15
ATOM     15  C   UNL d   1      56.429  -0.179  33.038  0.00  0.00     0.100 A 
ATOM     16  C   UNL d   1      56.750   0.340  33.596  0.00  0.00     0.025 A 
ATOM     17  C   UNL d   1      56.261   0.681  34.150  0.00  0.00     0.002 A 
ATOM     18  C   UNL d   1      55.460   0.520  34.163  0.00  0.00     0.000 A 
ATOM     19  C   UNL d   1      55.138  -0.002  33.602  0.00  0.00     0.002 A 
ATOM     20  C   UNL d   1      55.624  -0.351  33.039  0.00  0.00     0.025 A 
ENDBRANCH  14  15
ENDBRANCH  13  14
ENDBRANCH  12  13
ENDBRANCH  11  12
ENDBRANCH   1  11
TORSDOF 6
ENDMDL
