MODEL 1
REMARK VINA RESULT:      29.6      0.000      0.000
REMARK  7 active torsions:
REMARK  status: ('A' for Active; 'I' for Inactive)
REMARK    1  A    between atoms: C_14  and  N_1 
REMARK    2  A    between atoms: C_2  and  C_5 
REMARK    3  A    between atoms: C_6  and  C_2 
REMARK    4  A    between atoms: C_7  and  C_3 
REMARK    5  A    between atoms: C_5  and  C_7 
REMARK    6  A    between atoms: O_15  and  C_6 
REMARK    7  A    between atoms: C_18  and  O_15 
ROOT
ATOM      1  C   UNL d   1      46.292 -18.926  42.539  0.00  0.00     0.132 C 
ATOM      2  C   UNL d   1      46.009 -19.474  43.076  0.00  0.00     0.106 C 
ATOM      3  N   UNL d   1      45.734 -20.005  43.606  0.00  0.00    -0.191 NA
ENDROOT
BRANCH   1   4
ATOM      4  C   UNL d   1      46.563 -18.186  42.784  0.00  0.00     0.017 C 
BRANCH   4   5
ATOM      5  C   UNL d   1      46.268 -17.859  43.442  0.00  0.00     0.018 C 
BRANCH   5   6
ATOM      6  C   UNL d   1      46.137 -17.050  43.469  0.00  0.00     0.064 A 
ATOM      7  N   UNL d   1      45.926 -16.678  44.194  0.00  0.00    -0.305 N 
ATOM      8  C   UNL d   1      45.795 -15.855  44.209  0.00  0.00     0.064 A 
ATOM      9  C   UNL d   1      45.869 -15.405  43.524  0.00  0.00     0.016 A 
ATOM     10  C   UNL d   1      45.588 -15.498  44.927  0.00  0.00     0.018 A 
ATOM     11  C   UNL d   1      46.078 -15.774  42.803  0.00  0.00     0.003 A 
ATOM     12  C   UNL d   1      45.737 -14.595  43.552  0.00  0.00     0.001 A 
ATOM     13  C   UNL d   1      46.210 -16.584  42.776  0.00  0.00     0.018 A 
ATOM     14  C   UNL d   1      45.529 -14.224  44.265  0.00  0.00     0.000 A 
ATOM     15  C   UNL d   1      45.456 -14.689  44.954  0.00  0.00     0.002 A 
BRANCH   7  16
ATOM     16  C   UNL d   1      45.849 -17.123  44.887  0.00  0.00     0.080 C 
ATOM     17  C   UNL d   1      46.047 -17.932  44.875  0.00  0.00     0.021 C 
ENDBRANCH   7  16
ENDBRANCH   5   6
ENDBRANCH   4   5
ENDBRANCH   1   4
BRANCH   1  18
ATOM     18  C   UNL d   1      46.297 -19.131  41.765  0.00  0.00     0.310 C 
ATOM     19  O   UNL d   1      46.213 -19.898  41.563  0.00  0.00    -0.258 OA
BRANCH  18  20
ATOM     20  O   UNL d   1      46.375 -18.639  41.242  0.00  0.00    -0.271 OA
BRANCH  20  21
ATOM     21  C   UNL d   1      46.645 -18.866  40.438  0.00  0.00     0.126 C 
ATOM     22  C   UNL d   1      46.608 -18.337  39.794  0.00  0.00     0.029 C 
ENDBRANCH  20  21
ENDBRANCH  18  20
ENDBRANCH   1  18
TORSDOF 7
ENDMDL
MODEL 2
REMARK VINA RESULT:      32.1      6.795      7.699
REMARK  7 active torsions:
REMARK  status: ('A' for Active; 'I' for Inactive)
REMARK    1  A    between atoms: C_14  and  N_1 
REMARK    2  A    between atoms: C_2  and  C_5 
REMARK    3  A    between atoms: C_6  and  C_2 
REMARK    4  A    between atoms: C_7  and  C_3 
REMARK    5  A    between atoms: C_5  and  C_7 
REMARK    6  A    between atoms: O_15  and  C_6 
REMARK    7  A    between atoms: C_18  and  O_15 
ROOT
ATOM      1  C   UNL d   1      41.720 -15.811  36.601  0.00  0.00     0.132 C 
ATOM      2  C   UNL d   1      41.384 -15.077  36.465  0.00  0.00     0.106 C 
ATOM      3  N   UNL d   1      41.062 -14.359  36.331  0.00  0.00    -0.191 NA
ENDROOT
BRANCH   1   4
ATOM      4  C   UNL d   1      42.528 -15.938  36.496  0.00  0.00     0.017 C 
BRANCH   4   5
ATOM      5  C   UNL d   1      43.025 -15.819  37.099  0.00  0.00     0.018 C 
BRANCH   5   6
ATOM      6  C   UNL d   1      43.823 -15.701  36.951  0.00  0.00     0.064 A 
ATOM      7  N   UNL d   1      44.220 -15.029  37.267  0.00  0.00    -0.305 N 
ATOM      8  C   UNL d   1      45.031 -14.920  37.110  0.00  0.00     0.064 A 
ATOM      9  C   UNL d   1      45.445 -15.462  36.650  0.00  0.00     0.016 A 
ATOM     10  C   UNL d   1      45.412 -14.257  37.425  0.00  0.00     0.018 A 
ATOM     11  C   UNL d   1      45.053 -16.131  36.335  0.00  0.00     0.003 A 
ATOM     12  C   UNL d   1      46.244 -15.345  36.501  0.00  0.00     0.001 A 
ATOM     13  C   UNL d   1      44.254 -16.248  36.483  0.00  0.00     0.018 A 
ATOM     14  C   UNL d   1      46.640 -14.683  36.811  0.00  0.00     0.000 A 
ATOM     15  C   UNL d   1      46.211 -14.140  37.276  0.00  0.00     0.002 A 
BRANCH   7  16
ATOM     16  C   UNL d   1      43.810 -14.480  37.731  0.00  0.00     0.080 C 
ATOM     17  C   UNL d   1      44.187 -13.770  37.949  0.00  0.00     0.021 C 
ENDBRANCH   7  16
ENDBRANCH   5   6
ENDBRANCH   4   5
ENDBRANCH   1   4
BRANCH   1  18
ATOM     18  C   UNL d   1      41.236 -16.402  36.840  0.00  0.00     0.310 C 
ATOM     19  O   UNL d   1      40.915 -16.376  37.569  0.00  0.00    -0.258 OA
BRANCH  18  20
ATOM     20  O   UNL d   1      41.082 -16.963  36.411  0.00  0.00    -0.271 OA
BRANCH  20  21
ATOM     21  C   UNL d   1      40.386 -17.476  36.563  0.00  0.00     0.126 C 
ATOM     22  C   UNL d   1      39.616 -17.256  36.332  0.00  0.00     0.029 C 
ENDBRANCH  20  21
ENDBRANCH  18  20
ENDBRANCH   1  18
TORSDOF 7
ENDMDL
