MODEL 1
REMARK VINA RESULT:      49.1      0.000      0.000
REMARK  3 active torsions:
REMARK  status: ('A' for Active; 'I' for Inactive)
REMARK       I    between atoms: C_4  and  N_1 
REMARK    1  A    between atoms: C_7  and  C_3 
REMARK    2  A    between atoms: C_9  and  C_4 
REMARK    3  A    between atoms: C_8  and  C_5 
ROOT
ATOM      1  N   UNL d   1     -57.977 -99.022 -44.283  0.00  0.00    -0.191 N 
ATOM      2  N   UNL d   1     -57.982 -99.024 -45.100  0.00  0.00    -0.163 NA
ATOM      3  C   UNL d   1     -58.776 -98.897 -44.041  0.00  0.00     0.110 A 
ATOM      4  C   UNL d   1     -57.339 -99.119 -43.794  0.00  0.00     0.303 C 
ATOM      5  C   UNL d   1     -58.752 -98.906 -45.371  0.00  0.00     0.103 A 
ATOM      6  C   UNL d   1     -59.234 -98.829 -44.726  0.00  0.00     0.042 A 
ATOM      7  O   UNL d   1     -57.462 -99.096 -42.934  0.00  0.00    -0.263 OA
ENDROOT
BRANCH   3   8
ATOM      8  C   UNL d   1     -59.044 -98.852 -43.262  0.00  0.00     0.118 A 
ATOM      9  O   UNL d   1     -58.569 -98.814 -42.604  0.00  0.00    -0.304 OA
ATOM     10  C   UNL d   1     -59.064 -98.775 -41.930  0.00  0.00     0.123 A 
ATOM     11  C   UNL d   1     -59.845 -98.791 -42.198  0.00  0.00     0.029 A 
ATOM     12  C   UNL d   1     -59.820 -98.839 -43.032  0.00  0.00     0.028 A 
ENDBRANCH   3   8
BRANCH   4  13
ATOM     13  C   UNL d   1     -56.583 -99.237 -44.079  0.00  0.00     0.158 A 
ATOM     14  O   UNL d   1     -56.334 -99.838 -44.581  0.00  0.00    -0.300 OA
ATOM     15  C   UNL d   1     -55.533 -99.751 -44.728  0.00  0.00     0.123 A 
ATOM     16  C   UNL d   1     -55.275 -99.089 -44.315  0.00  0.00     0.029 A 
ATOM     17  C   UNL d   1     -55.922 -98.765 -43.910  0.00  0.00     0.032 A 
ENDBRANCH   4  13
BRANCH   5  18
ATOM     18  C   UNL d   1     -58.966 -98.876 -46.176  0.00  0.00     0.019 A 
ATOM     19  C   UNL d   1     -58.384 -98.939 -46.723  0.00  0.00     0.002 A 
ATOM     20  C   UNL d   1     -58.560 -98.914 -47.528  0.00  0.00     0.007 A 
ATOM     21  C   UNL d   1     -59.336 -98.823 -47.764  0.00  0.00     0.035 A 
ATOM     22  C   UNL d   1     -59.954 -98.756 -47.210  0.00  0.00     0.007 A 
ATOM     23 BR   UNL d   1     -59.506 -98.799 -48.571  0.00  0.00    -0.049 Br
ATOM     24  C   UNL d   1     -59.753 -98.785 -46.387  0.00  0.00     0.002 A 
ENDBRANCH   5  18
TORSDOF 3
ENDMDL
