MODEL 1
REMARK VINA RESULT:      27.2      0.000      0.000
REMARK  4 active torsions:
REMARK  status: ('A' for Active; 'I' for Inactive)
REMARK    1  A    between atoms: C_9  and  N_2 
REMARK    2  A    between atoms: C_6  and  C_3 
REMARK    3  A    between atoms: C_8  and  C_4 
REMARK    4  A    between atoms: O_18  and  C_15 
ROOT
ATOM      1  N   UNL d   1      45.733 -17.244  44.306  0.00  0.00    -0.165 NA
ATOM      2  N   UNL d   1      45.882 -18.016  43.978  0.00  0.00    -0.230 N 
ATOM      3  C   UNL d   1      45.768 -16.692  43.697  0.00  0.00     0.109 A 
ATOM      4  C   UNL d   1      46.004 -17.890  43.154  0.00  0.00     0.084 A 
ATOM      5  C   UNL d   1      45.934 -17.086  42.988  0.00  0.00     0.041 A 
ENDROOT
BRANCH   4   6
ATOM      6  C   UNL d   1      46.168 -18.471  42.596  0.00  0.00     0.018 A 
ATOM      7  C   UNL d   1      46.037 -18.280  41.804  0.00  0.00     0.004 A 
ATOM      8  C   UNL d   1      46.192 -18.840  41.231  0.00  0.00     0.024 A 
ATOM      9  C   UNL d   1      46.474 -19.580  41.438  0.00  0.00     0.094 A 
ATOM     10  C   UNL d   1      46.605 -19.770  42.230  0.00  0.00     0.024 A 
ATOM     11  C   UNL d   1      46.449 -19.207  42.809  0.00  0.00     0.004 A 
BRANCH   9  12
ATOM     12  O   UNL d   1      46.645 -20.185  40.859  0.00  0.00    -0.328 OA
ATOM     13  C   UNL d   1      46.319 -20.109  40.067  0.00  0.00     0.181 C 
ENDBRANCH   9  12
ENDBRANCH   4   6
BRANCH   2  14
ATOM     14  C   UNL d   1      45.920 -18.770  44.297  0.00  0.00     0.083 A 
ATOM     15  C   UNL d   1      46.636 -19.101  44.576  0.00  0.00     0.019 A 
ATOM     16  C   UNL d   1      46.646 -19.868  44.895  0.00  0.00     0.002 A 
ATOM     17  C   UNL d   1      45.968 -20.306  44.943  0.00  0.00     0.000 A 
ATOM     18  C   UNL d   1      45.252 -19.979  44.666  0.00  0.00     0.002 A 
ATOM     19  C   UNL d   1      45.229 -19.210  44.343  0.00  0.00     0.019 A 
ENDBRANCH   2  14
BRANCH   3  20
ATOM     20  C   UNL d   1      45.613 -15.993  44.117  0.00  0.00     0.049 A 
ATOM     21  S   UNL d   1      45.111 -15.626  44.652  0.00  0.00    -0.085 SA
ATOM     22  C   UNL d   1      45.386 -14.865  44.778  0.00  0.00     0.035 A 
ATOM     23  C   UNL d   1      46.047 -14.753  44.332  0.00  0.00     0.007 A 
ATOM     24  C   UNL d   1      46.213 -15.437  43.910  0.00  0.00     0.009 A 
ENDBRANCH   3  20
TORSDOF 4
ENDMDL
