MODEL 1
REMARK VINA RESULT:      66.2      0.000      0.000
REMARK  6 active torsions:
REMARK  status: ('A' for Active; 'I' for Inactive)
REMARK    1  A    between atoms: C_9  and  N_1 
REMARK    2  A    between atoms: S_10  and  C_6 
REMARK    3  A    between atoms: C_16  and  S_10 
REMARK    4  A    between atoms: C_12  and  C_16 
REMARK    5  A    between atoms: O_20  and  C_12 
REMARK    6  A    between atoms: C_22  and  O_20 
ROOT
ATOM      1  N   UNL d   1      57.753  49.666  52.818  0.00  0.00    -0.212 N 
ATOM      2  C   UNL d   1      58.521  49.673  52.527  0.00  0.00     0.169 A 
ATOM      3  N   UNL d   1      57.236  49.655  52.195  0.00  0.00    -0.162 NA
ATOM      4  C   UNL d   1      58.475  49.666  51.703  0.00  0.00     0.081 A 
ATOM      5  C   UNL d   1      57.680  49.655  51.495  0.00  0.00     0.126 A 
ATOM      6  C   UNL d   1      59.162  49.671  51.253  0.00  0.00     0.117 A 
ATOM      7  N   UNL d   1      59.254  49.685  52.900  0.00  0.00    -0.205 NA
ATOM      8  N   UNL d   1      59.899  49.683  51.625  0.00  0.00    -0.217 NA
ATOM      9  C   UNL d   1      59.945  49.690  52.448  0.00  0.00     0.201 A 
ENDROOT
BRANCH   1  10
ATOM     10  C   UNL d   1      57.619  49.671  53.638  0.00  0.00     0.085 A 
ATOM     11  C   UNL d   1      56.854  49.697  53.925  0.00  0.00     0.020 A 
ATOM     12  C   UNL d   1      56.717  49.702  54.728  0.00  0.00     0.013 A 
ATOM     13  C   UNL d   1      57.356  49.681  55.265  0.00  0.00     0.058 A 
ATOM     14  C   UNL d   1      58.126  49.654  54.965  0.00  0.00     0.013 A 
ATOM     15 CL   UNL d   1      57.221  49.686  56.084  0.00  0.00    -0.082 Cl
ATOM     16  C   UNL d   1      58.255  49.650  54.158  0.00  0.00     0.020 A 
ENDBRANCH   1  10
BRANCH   6  17
ATOM     17  S   UNL d   1      59.117  49.664  50.429  0.00  0.00    -0.062 SA
BRANCH  17  18
ATOM     18  C   UNL d   1      58.391  49.707  50.060  0.00  0.00     0.105 C 
BRANCH  18  19
ATOM     19  C   UNL d   1      58.121  49.074  49.605  0.00  0.00     0.307 C 
ATOM     20  O   UNL d   1      58.607  48.747  49.023  0.00  0.00    -0.258 OA
BRANCH  19  21
ATOM     21  O   UNL d   1      57.365  48.768  49.730  0.00  0.00    -0.271 OA
BRANCH  21  22
ATOM     22  C   UNL d   1      56.964  48.392  49.114  0.00  0.00     0.126 C 
ATOM     23  C   UNL d   1      56.182  48.147  49.219  0.00  0.00     0.029 C 
ENDBRANCH  21  22
ENDBRANCH  19  21
ENDBRANCH  18  19
ENDBRANCH  17  18
ENDBRANCH   6  17
TORSDOF 6
ENDMDL
MODEL 2
REMARK VINA RESULT:      68.3      4.597      5.915
REMARK  6 active torsions:
REMARK  status: ('A' for Active; 'I' for Inactive)
REMARK    1  A    between atoms: C_9  and  N_1 
REMARK    2  A    between atoms: S_10  and  C_6 
REMARK    3  A    between atoms: C_16  and  S_10 
REMARK    4  A    between atoms: C_12  and  C_16 
REMARK    5  A    between atoms: O_20  and  C_12 
REMARK    6  A    between atoms: C_22  and  O_20 
ROOT
ATOM      1  N   UNL d   1      61.825  46.069  49.587  0.00  0.00    -0.212 N 
ATOM      2  C   UNL d   1      61.386  46.364  50.214  0.00  0.00     0.169 A 
ATOM      3  N   UNL d   1      62.159  46.687  49.184  0.00  0.00    -0.162 NA
ATOM      4  C   UNL d   1      61.451  47.187  50.198  0.00  0.00     0.081 A 
ATOM      5  C   UNL d   1      61.929  47.389  49.561  0.00  0.00     0.126 A 
ATOM      6  C   UNL d   1      61.067  47.641  50.765  0.00  0.00     0.117 A 
ATOM      7  N   UNL d   1      60.937  45.997  50.797  0.00  0.00    -0.205 NA
ATOM      8  N   UNL d   1      60.615  47.275  51.350  0.00  0.00    -0.217 NA
ATOM      9  C   UNL d   1      60.550  46.453  51.366  0.00  0.00     0.201 A 
ENDROOT
BRANCH   1  10
ATOM     10  C   UNL d   1      61.866  45.249  49.458  0.00  0.00     0.085 A 
ATOM     11  C   UNL d   1      61.328  44.888  48.959  0.00  0.00     0.020 A 
ATOM     12  C   UNL d   1      61.364  44.085  48.829  0.00  0.00     0.013 A 
ATOM     13  C   UNL d   1      61.950  43.623  49.204  0.00  0.00     0.058 A 
ATOM     14  C   UNL d   1      62.490  43.997  49.707  0.00  0.00     0.013 A 
ATOM     15 CL   UNL d   1      61.990  42.803  49.074  0.00  0.00    -0.082 Cl
ATOM     16  C   UNL d   1      62.447  44.804  49.832  0.00  0.00     0.020 A 
ENDBRANCH   1  10
BRANCH   6  17
ATOM     17  S   UNL d   1      61.131  48.464  50.749  0.00  0.00    -0.062 SA
BRANCH  17  18
ATOM     18  C   UNL d   1      60.609  48.923  51.174  0.00  0.00     0.105 C 
BRANCH  18  19
ATOM     19  C   UNL d   1      60.041  49.374  50.781  0.00  0.00     0.307 C 
ATOM     20  O   UNL d   1      60.214  49.707  50.046  0.00  0.00    -0.258 OA
BRANCH  19  21
ATOM     21  O   UNL d   1      59.299  49.492  51.124  0.00  0.00    -0.271 OA
BRANCH  21  22
ATOM     22  C   UNL d   1      58.656  49.706  50.651  0.00  0.00     0.126 C 
ATOM     23  C   UNL d   1      57.892  49.696  50.965  0.00  0.00     0.029 C 
ENDBRANCH  21  22
ENDBRANCH  19  21
ENDBRANCH  18  19
ENDBRANCH  17  18
ENDBRANCH   6  17
TORSDOF 6
ENDMDL
