MODEL 1
REMARK VINA RESULT:      -7.6      0.000      0.000
REMARK  4 active torsions:
REMARK  status: ('A' for Active; 'I' for Inactive)
REMARK    1  A    between atoms: C_4  and  C_1 
REMARK    2  A    between atoms: C_7  and  C_4 
REMARK    3  A    between atoms: N_10  and  C_7 
REMARK    4  A    between atoms: C_11  and  N_10 
ROOT
ATOM      1  C   UNL d   1      53.583  32.501  53.534  0.00  0.00     0.122 C 
ATOM      2  C   UNL d   1      54.355  32.756  53.416  0.00  0.00     0.106 C 
ATOM      3  N   UNL d   1      55.128  33.011  53.298  0.00  0.00    -0.191 NA
ENDROOT
BRANCH   1   4
ATOM      4  C   UNL d   1      52.951  32.988  53.329  0.00  0.00     0.159 A 
ATOM      5  N   UNL d   1      52.548  32.986  52.609  0.00  0.00    -0.226 NA
ATOM      6  C   UNL d   1      51.963  33.557  52.644  0.00  0.00     0.099 A 
ATOM      7  C   UNL d   1      51.392  33.804  52.095  0.00  0.00     0.021 A 
ATOM      8  C   UNL d   1      51.999  33.917  53.385  0.00  0.00     0.083 A 
ATOM      9  C   UNL d   1      50.865  34.408  52.295  0.00  0.00     0.002 A 
ATOM     10  C   UNL d   1      50.902  34.767  53.035  0.00  0.00     0.002 A 
ATOM     11  C   UNL d   1      51.466  34.526  53.583  0.00  0.00     0.019 A 
ATOM     12  N   UNL d   1      52.608  33.569  53.810  0.00  0.00    -0.287 N 
ATOM     13  C   UNL d   1      52.844  33.756  54.582  0.00  0.00     0.101 C 
ENDBRANCH   1   4
BRANCH   1  14
ATOM     14  C   UNL d   1      53.442  31.758  53.858  0.00  0.00     0.114 C 
BRANCH  14  15
ATOM     15  N   UNL d   1      53.743  31.084  53.491  0.00  0.00    -0.225 NA
BRANCH  15  16
ATOM     16  C   UNL d   1      53.469  30.337  53.714  0.00  0.00     0.163 A 
ATOM     17  N   UNL d   1      53.688  30.011  54.439  0.00  0.00    -0.225 NA
ATOM     18  C   UNL d   1      53.413  29.265  54.658  0.00  0.00     0.101 A 
ATOM     19  C   UNL d   1      52.917  28.845  54.147  0.00  0.00     0.021 A 
ATOM     20  C   UNL d   1      52.694  29.173  53.411  0.00  0.00     0.005 A 
ATOM     21  C   UNL d   1      52.974  29.922  53.201  0.00  0.00     0.039 A 
ENDBRANCH  15  16
ENDBRANCH  14  15
ENDBRANCH   1  14
TORSDOF 4
ENDMDL
MODEL 2
REMARK VINA RESULT:      -7.5      1.374      3.957
REMARK  4 active torsions:
REMARK  status: ('A' for Active; 'I' for Inactive)
REMARK    1  A    between atoms: C_4  and  C_1 
REMARK    2  A    between atoms: C_7  and  C_4 
REMARK    3  A    between atoms: N_10  and  C_7 
REMARK    4  A    between atoms: C_11  and  N_10 
ROOT
ATOM      1  C   UNL d   1      53.061  32.241  53.322  0.00  0.00     0.122 C 
ATOM      2  C   UNL d   1      53.035  31.423  53.252  0.00  0.00     0.106 C 
ATOM      3  N   UNL d   1      53.009  30.603  53.183  0.00  0.00    -0.191 NA
ENDROOT
BRANCH   1   4
ATOM      4  C   UNL d   1      53.591  32.594  53.844  0.00  0.00     0.159 A 
ATOM      5  N   UNL d   1      53.478  32.703  54.655  0.00  0.00    -0.226 NA
ATOM      6  C   UNL d   1      54.141  33.075  54.956  0.00  0.00     0.099 A 
ATOM      7  C   UNL d   1      54.341  33.321  55.723  0.00  0.00     0.021 A 
ATOM      8  C   UNL d   1      54.669  33.200  54.336  0.00  0.00     0.083 A 
ATOM      9  C   UNL d   1      55.068  33.690  55.858  0.00  0.00     0.002 A 
ATOM     10  C   UNL d   1      55.596  33.815  55.238  0.00  0.00     0.002 A 
ATOM     11  C   UNL d   1      55.401  33.572  54.476  0.00  0.00     0.019 A 
ATOM     12  N   UNL d   1      54.334  32.905  53.649  0.00  0.00    -0.287 N 
ATOM     13  C   UNL d   1      54.669  32.911  52.891  0.00  0.00     0.101 C 
ENDBRANCH   1   4
BRANCH   1  14
ATOM     14  C   UNL d   1      52.556  32.707  52.869  0.00  0.00     0.114 C 
BRANCH  14  15
ATOM     15  N   UNL d   1      51.742  32.677  52.996  0.00  0.00    -0.225 NA
BRANCH  15  16
ATOM     16  C   UNL d   1      51.260  33.291  52.725  0.00  0.00     0.163 A 
ATOM     17  N   UNL d   1      51.369  33.606  51.971  0.00  0.00    -0.225 NA
ATOM     18  C   UNL d   1      50.886  34.218  51.704  0.00  0.00     0.101 A 
ATOM     19  C   UNL d   1      50.293  34.515  52.196  0.00  0.00     0.021 A 
ATOM     20  C   UNL d   1      50.179  34.198  52.961  0.00  0.00     0.005 A 
ATOM     21  C   UNL d   1      50.669  33.584  53.220  0.00  0.00     0.039 A 
ENDBRANCH  15  16
ENDBRANCH  14  15
ENDBRANCH   1  14
TORSDOF 4
ENDMDL
MODEL 3
REMARK VINA RESULT:      -7.5      0.726      4.243
REMARK  4 active torsions:
REMARK  status: ('A' for Active; 'I' for Inactive)
REMARK    1  A    between atoms: C_4  and  C_1 
REMARK    2  A    between atoms: C_7  and  C_4 
REMARK    3  A    between atoms: N_10  and  C_7 
REMARK    4  A    between atoms: C_11  and  N_10 
ROOT
ATOM      1  C   UNL d   1      53.418  32.077  53.437  0.00  0.00     0.122 C 
ATOM      2  C   UNL d   1      54.130  32.487  53.465  0.00  0.00     0.106 C 
ATOM      3  N   UNL d   1      54.843  32.896  53.492  0.00  0.00    -0.191 NA
ENDROOT
BRANCH   1   4
ATOM      4  C   UNL d   1      53.377  31.302  53.715  0.00  0.00     0.159 A 
ATOM      5  N   UNL d   1      53.442  31.063  54.502  0.00  0.00    -0.226 NA
ATOM      6  C   UNL d   1      53.368  30.248  54.526  0.00  0.00     0.099 A 
ATOM      7  C   UNL d   1      53.387  29.706  55.154  0.00  0.00     0.021 A 
ATOM      8  C   UNL d   1      53.257  29.978  53.756  0.00  0.00     0.083 A 
ATOM      9  C   UNL d   1      53.295  28.899  55.002  0.00  0.00     0.002 A 
ATOM     10  C   UNL d   1      53.184  28.629  54.231  0.00  0.00     0.002 A 
ATOM     11  C   UNL d   1      53.164  29.163  53.606  0.00  0.00     0.019 A 
ATOM     12  N   UNL d   1      53.262  30.625  53.253  0.00  0.00    -0.287 N 
ATOM     13  C   UNL d   1      53.169  30.613  52.429  0.00  0.00     0.101 C 
ENDBRANCH   1   4
BRANCH   1  14
ATOM     14  C   UNL d   1      52.747  32.442  53.132  0.00  0.00     0.114 C 
BRANCH  14  15
ATOM     15  N   UNL d   1      52.593  33.233  53.305  0.00  0.00    -0.225 NA
BRANCH  15  16
ATOM     16  C   UNL d   1      51.883  33.577  53.060  0.00  0.00     0.163 A 
ATOM     17  N   UNL d   1      51.193  33.470  53.499  0.00  0.00    -0.225 NA
ATOM     18  C   UNL d   1      50.487  33.815  53.252  0.00  0.00     0.101 A 
ATOM     19  C   UNL d   1      50.472  34.268  52.562  0.00  0.00     0.021 A 
ATOM     20  C   UNL d   1      51.169  34.379  52.114  0.00  0.00     0.005 A 
ATOM     21  C   UNL d   1      51.873  34.029  52.371  0.00  0.00     0.039 A 
ENDBRANCH  15  16
ENDBRANCH  14  15
ENDBRANCH   1  14
TORSDOF 4
ENDMDL
MODEL 4
REMARK VINA RESULT:      -7.2      0.727      4.042
REMARK  4 active torsions:
REMARK  status: ('A' for Active; 'I' for Inactive)
REMARK    1  A    between atoms: C_4  and  C_1 
REMARK    2  A    between atoms: C_7  and  C_4 
REMARK    3  A    between atoms: N_10  and  C_7 
REMARK    4  A    between atoms: C_11  and  N_10 
ROOT
ATOM      1  C   UNL d   1      53.268  32.683  53.366  0.00  0.00     0.122 C 
ATOM      2  C   UNL d   1      53.988  33.057  53.240  0.00  0.00     0.106 C 
ATOM      3  N   UNL d   1      54.710  33.431  53.114  0.00  0.00    -0.191 NA
ENDROOT
BRANCH   1   4
ATOM      4  C   UNL d   1      53.237  31.864  53.452  0.00  0.00     0.159 A 
ATOM      5  N   UNL d   1      53.031  31.321  52.866  0.00  0.00    -0.226 NA
ATOM      6  C   UNL d   1      53.073  30.570  53.190  0.00  0.00     0.099 A 
ATOM      7  C   UNL d   1      52.930  29.818  52.871  0.00  0.00     0.021 A 
ATOM      8  C   UNL d   1      53.305  30.644  53.977  0.00  0.00     0.083 A 
ATOM      9  C   UNL d   1      53.021  29.148  53.347  0.00  0.00     0.002 A 
ATOM     10  C   UNL d   1      53.253  29.221  54.134  0.00  0.00     0.002 A 
ATOM     11  C   UNL d   1      53.395  29.966  54.454  0.00  0.00     0.019 A 
ATOM     12  N   UNL d   1      53.406  31.440  54.143  0.00  0.00    -0.287 N 
ATOM     13  C   UNL d   1      53.637  31.770  54.867  0.00  0.00     0.101 C 
ENDBRANCH   1   4
BRANCH   1  14
ATOM     14  C   UNL d   1      52.577  33.128  53.407  0.00  0.00     0.114 C 
BRANCH  14  15
ATOM     15  N   UNL d   1      52.415  33.692  52.828  0.00  0.00    -0.225 NA
BRANCH  15  16
ATOM     16  C   UNL d   1      51.645  33.975  52.734  0.00  0.00     0.163 A 
ATOM     17  N   UNL d   1      51.189  34.174  53.391  0.00  0.00    -0.225 NA
ATOM     18  C   UNL d   1      50.421  34.456  53.293  0.00  0.00     0.101 A 
ATOM     19  C   UNL d   1      50.109  34.540  52.532  0.00  0.00     0.021 A 
ATOM     20  C   UNL d   1      50.569  34.340  51.863  0.00  0.00     0.005 A 
ATOM     21  C   UNL d   1      51.338  34.057  51.972  0.00  0.00     0.039 A 
ENDBRANCH  15  16
ENDBRANCH  14  15
ENDBRANCH   1  14
TORSDOF 4
ENDMDL
MODEL 5
REMARK VINA RESULT:      -7.2      1.340      2.297
REMARK  4 active torsions:
REMARK  status: ('A' for Active; 'I' for Inactive)
REMARK    1  A    between atoms: C_4  and  C_1 
REMARK    2  A    between atoms: C_7  and  C_4 
REMARK    3  A    between atoms: N_10  and  C_7 
REMARK    4  A    between atoms: C_11  and  N_10 
ROOT
ATOM      1  C   UNL d   1      51.914  33.873  52.884  0.00  0.00     0.122 C 
ATOM      2  C   UNL d   1      52.455  34.465  53.063  0.00  0.00     0.106 C 
ATOM      3  N   UNL d   1      52.997  35.057  53.242  0.00  0.00    -0.191 NA
ENDROOT
BRANCH   1   4
ATOM      4  C   UNL d   1      51.201  34.063  52.517  0.00  0.00     0.159 A 
ATOM      5  N   UNL d   1      51.060  34.075  51.704  0.00  0.00    -0.226 NA
ATOM      6  C   UNL d   1      50.280  34.292  51.584  0.00  0.00     0.099 A 
ATOM      7  C   UNL d   1      49.831  34.396  50.895  0.00  0.00     0.021 A 
ATOM      8  C   UNL d   1      49.933  34.416  52.321  0.00  0.00     0.083 A 
ATOM      9  C   UNL d   1      49.038  34.623  50.953  0.00  0.00     0.002 A 
ATOM     10  C   UNL d   1      48.691  34.747  51.690  0.00  0.00     0.002 A 
ATOM     11  C   UNL d   1      49.134  34.646  52.376  0.00  0.00     0.019 A 
ATOM     12  N   UNL d   1      50.498  34.276  52.899  0.00  0.00    -0.287 N 
ATOM     13  C   UNL d   1      50.393  34.334  53.719  0.00  0.00     0.101 C 
ENDBRANCH   1   4
BRANCH   1  14
ATOM     14  C   UNL d   1      52.084  33.091  53.073  0.00  0.00     0.114 C 
BRANCH  14  15
ATOM     15  N   UNL d   1      52.826  32.777  52.898  0.00  0.00    -0.225 NA
BRANCH  15  16
ATOM     16  C   UNL d   1      52.990  31.986  53.072  0.00  0.00     0.163 A 
ATOM     17  N   UNL d   1      52.604  31.380  52.670  0.00  0.00    -0.225 NA
ATOM     18  C   UNL d   1      52.770  30.593  52.847  0.00  0.00     0.101 A 
ATOM     19  C   UNL d   1      53.326  30.413  53.430  0.00  0.00     0.021 A 
ATOM     20  C   UNL d   1      53.720  31.025  53.841  0.00  0.00     0.005 A 
ATOM     21  C   UNL d   1      53.546  31.812  53.656  0.00  0.00     0.039 A 
ENDBRANCH  15  16
ENDBRANCH  14  15
ENDBRANCH   1  14
TORSDOF 4
ENDMDL
MODEL 6
REMARK VINA RESULT:      -7.0      1.656      2.727
REMARK  4 active torsions:
REMARK  status: ('A' for Active; 'I' for Inactive)
REMARK    1  A    between atoms: C_4  and  C_1 
REMARK    2  A    between atoms: C_7  and  C_4 
REMARK    3  A    between atoms: N_10  and  C_7 
REMARK    4  A    between atoms: C_11  and  N_10 
ROOT
ATOM      1  C   UNL d   1      52.536  32.615  53.184  0.00  0.00     0.122 C 
ATOM      2  C   UNL d   1      52.651  31.852  52.901  0.00  0.00     0.106 C 
ATOM      3  N   UNL d   1      52.765  31.088  52.618  0.00  0.00    -0.191 NA
ENDROOT
BRANCH   1   4
ATOM      4  C   UNL d   1      51.940  33.087  52.867  0.00  0.00     0.159 A 
ATOM      5  N   UNL d   1      51.963  33.480  52.142  0.00  0.00    -0.226 NA
ATOM      6  C   UNL d   1      51.256  33.883  52.049  0.00  0.00     0.099 A 
ATOM      7  C   UNL d   1      50.967  34.366  51.439  0.00  0.00     0.021 A 
ATOM      8  C   UNL d   1      50.792  33.742  52.715  0.00  0.00     0.083 A 
ATOM      9  C   UNL d   1      50.215  34.703  51.506  0.00  0.00     0.002 A 
ATOM     10  C   UNL d   1      49.751  34.562  52.172  0.00  0.00     0.002 A 
ATOM     11  C   UNL d   1      50.034  34.084  52.778  0.00  0.00     0.019 A 
ATOM     12  N   UNL d   1      51.210  33.252  53.222  0.00  0.00    -0.287 N 
ATOM     13  C   UNL d   1      50.956  32.968  53.958  0.00  0.00     0.101 C 
ENDBRANCH   1   4
BRANCH   1  14
ATOM     14  C   UNL d   1      53.018  32.906  53.783  0.00  0.00     0.114 C 
BRANCH  14  15
ATOM     15  N   UNL d   1      53.809  32.679  53.824  0.00  0.00    -0.225 NA
BRANCH  15  16
ATOM     16  C   UNL d   1      54.317  33.049  54.361  0.00  0.00     0.163 A 
ATOM     17  N   UNL d   1      54.167  33.012  55.170  0.00  0.00    -0.225 NA
ATOM     18  C   UNL d   1      54.676  33.382  55.703  0.00  0.00     0.101 A 
ATOM     19  C   UNL d   1      55.337  33.790  55.422  0.00  0.00     0.021 A 
ATOM     20  C   UNL d   1      55.492  33.829  54.602  0.00  0.00     0.005 A 
ATOM     21  C   UNL d   1      54.976  33.455  54.075  0.00  0.00     0.039 A 
ENDBRANCH  15  16
ENDBRANCH  14  15
ENDBRANCH   1  14
TORSDOF 4
ENDMDL
