MODEL 1
REMARK VINA RESULT:      27.2      0.000      0.000
REMARK  1 active torsions:
REMARK  status: ('A' for Active; 'I' for Inactive)
REMARK    1  A    between atoms: C_13  and  N_3 
ROOT
ATOM      1  C   UNL d   1     -57.692 -98.822 -44.867  0.00  0.00     0.166 A 
ATOM      2  C   UNL d   1     -57.614 -98.832 -44.049  0.00  0.00     0.117 A 
ATOM      3  N   UNL d   1     -58.506 -98.803 -45.022  0.00  0.00    -0.289 N 
ATOM      4  C   UNL d   1     -58.349 -98.820 -43.710  0.00  0.00     0.038 A 
ATOM      5  N   UNL d   1     -57.028 -98.832 -45.366  0.00  0.00    -0.225 NA
ATOM      6  C   UNL d   1     -58.905 -98.802 -44.316  0.00  0.00     0.067 A 
ATOM      7  N   UNL d   1     -56.846 -98.852 -43.742  0.00  0.00    -0.241 NA
ATOM      8  C   UNL d   1     -56.286 -98.851 -45.048  0.00  0.00     0.101 A 
ATOM      9  C   UNL d   1     -56.201 -98.861 -44.223  0.00  0.00     0.099 A 
ATOM     10  C   UNL d   1     -59.713 -98.786 -44.136  0.00  0.00     0.018 A 
ATOM     11  C   UNL d   1     -58.601 -98.823 -42.924  0.00  0.00     0.015 A 
ATOM     12  C   UNL d   1     -59.405 -98.807 -42.741  0.00  0.00     0.058 A 
ATOM     13  C   UNL d   1     -59.961 -98.789 -43.347  0.00  0.00     0.013 A 
ATOM     14 CL   UNL d   1     -59.657 -98.810 -41.956  0.00  0.00    -0.082 Cl
ATOM     15  C   UNL d   1     -55.634 -98.860 -45.525  0.00  0.00     0.021 A 
ATOM     16  C   UNL d   1     -55.452 -98.881 -43.899  0.00  0.00     0.021 A 
ATOM     17  C   UNL d   1     -54.870 -98.880 -45.177  0.00  0.00     0.002 A 
ATOM     18  C   UNL d   1     -54.768 -98.891 -44.376  0.00  0.00     0.002 A 
ENDROOT
BRANCH   3  19
ATOM     19  C   UNL d   1     -58.840 -98.788 -45.758  0.00  0.00     0.082 C 
ATOM     20  C   UNL d   1     -59.683 -98.767 -45.813  0.00  0.00     0.021 C 
ENDBRANCH   3  19
TORSDOF 1
ENDMDL
