MODEL 1
REMARK VINA RESULT:      11.5      0.000      0.000
REMARK  3 active torsions:
REMARK  status: ('A' for Active; 'I' for Inactive)
REMARK    1  A    between atoms: C_6  and  C_2 
REMARK       I    between atoms: N_8  and  C_6 
REMARK    2  A    between atoms: C_14  and  N_8 
REMARK    3  A    between atoms: C_15  and  C_14 
ROOT
ATOM      1  N   UNL d   1     -52.123  23.909  33.362  0.00  0.00    -0.252 N 
ATOM      2  C   UNL d   1     -51.041  24.836  33.333  0.00  0.00     0.133 A 
ATOM      3  C   UNL d   1     -51.314  24.060  33.361  0.00  0.00     0.272 A 
ATOM      4  C   UNL d   1     -52.660  24.535  33.335  0.00  0.00     0.182 A 
ATOM      5  N   UNL d   1     -52.387  25.312  33.308  0.00  0.00    -0.220 NA
ATOM      6  C   UNL d   1     -51.577  25.462  33.307  0.00  0.00     0.111 A 
ATOM      7  S   UNL d   1     -53.427  24.220  33.342  0.00  0.00    -0.048 SA
ATOM      8  O   UNL d   1     -50.778  23.433  33.387  0.00  0.00    -0.266 OA
ATOM      9  C   UNL d   1     -52.559  23.207  33.385  0.00  0.00     0.092 A 
ATOM     10  C   UNL d   1     -53.359  23.405  33.373  0.00  0.00     0.057 A 
ENDROOT
BRANCH   2  11
ATOM     11  C   UNL d   1     -50.222  24.994  33.332  0.00  0.00     0.285 C 
ATOM     12  N   UNL d   1     -49.954  25.776  33.350  0.00  0.00    -0.208 NA
ATOM     13  O   UNL d   1     -49.685  24.368  33.313  0.00  0.00    -0.265 OA
BRANCH  12  14
ATOM     14  C   UNL d   1     -50.495  26.401  33.369  0.00  0.00     0.085 C 
ATOM     15  C   UNL d   1     -51.309  26.245  33.415  0.00  0.00     0.021 C 
BRANCH  14  16
ATOM     16  C   UNL d   1     -50.223  27.177  33.342  0.00  0.00     0.019 C 
ATOM     17  C   UNL d   1     -50.760  27.807  33.391  0.00  0.00     0.002 C 
ENDBRANCH  14  16
ENDBRANCH  12  14
ENDBRANCH   2  11
TORSDOF 3
ENDMDL
MODEL 2
REMARK VINA RESULT:      14.4      1.042      3.039
REMARK  3 active torsions:
REMARK  status: ('A' for Active; 'I' for Inactive)
REMARK    1  A    between atoms: C_6  and  C_2 
REMARK       I    between atoms: N_8  and  C_6 
REMARK    2  A    between atoms: C_14  and  N_8 
REMARK    3  A    between atoms: C_15  and  C_14 
ROOT
ATOM      1  N   UNL d   1     -50.546  25.881  33.539  0.00  0.00    -0.252 N 
ATOM      2  C   UNL d   1     -51.324  24.696  33.390  0.00  0.00     0.133 A 
ATOM      3  C   UNL d   1     -50.595  25.060  33.506  0.00  0.00     0.272 A 
ATOM      4  C   UNL d   1     -51.227  26.339  33.455  0.00  0.00     0.182 A 
ATOM      5  N   UNL d   1     -51.957  25.976  33.338  0.00  0.00    -0.220 NA
ATOM      6  C   UNL d   1     -52.005  25.154  33.306  0.00  0.00     0.111 A 
ATOM      7  S   UNL d   1     -51.010  27.137  33.511  0.00  0.00    -0.048 SA
ATOM      8  O   UNL d   1     -49.914  24.602  33.590  0.00  0.00    -0.266 OA
ATOM      9  C   UNL d   1     -49.909  26.397  33.646  0.00  0.00     0.092 A 
ATOM     10  C   UNL d   1     -50.201  27.167  33.628  0.00  0.00     0.057 A 
ENDROOT
BRANCH   2  11
ATOM     11  C   UNL d   1     -51.380  23.865  33.356  0.00  0.00     0.285 C 
ATOM     12  N   UNL d   1     -52.123  23.503  33.323  0.00  0.00    -0.208 NA
ATOM     13  O   UNL d   1     -50.692  23.410  33.355  0.00  0.00    -0.265 OA
BRANCH  12  14
ATOM     14  C   UNL d   1     -52.809  23.962  33.323  0.00  0.00     0.085 C 
ATOM     15  C   UNL d   1     -52.755  24.791  33.323  0.00  0.00     0.021 C 
BRANCH  14  16
ATOM     16  C   UNL d   1     -53.546  23.596  33.323  0.00  0.00     0.019 C 
ATOM     17  C   UNL d   1     -53.806  23.188  33.997  0.00  0.00     0.002 C 
ENDBRANCH  14  16
ENDBRANCH  12  14
ENDBRANCH   2  11
TORSDOF 3
ENDMDL
