MODEL 1
REMARK VINA RESULT:      -3.5      0.000      0.000
REMARK  6 active torsions:
REMARK  status: ('A' for Active; 'I' for Inactive)
REMARK    1  A    between atoms: C_2  and  C_1 
REMARK       I    between atoms: N_3  and  C_2 
REMARK    2  A    between atoms: C_24  and  N_3 
REMARK    3  A    between atoms: C_4  and  C_10 
REMARK    4  A    between atoms: C_9  and  C_4 
REMARK    5  A    between atoms: C_8  and  C_9 
REMARK    6  A    between atoms: C_10  and  C_15 
ROOT
ATOM      1  C   UNL d   1      57.624  -0.027  31.240  0.00  0.00     0.039 A 
ATOM      2  C   UNL d   1      59.013   0.444  30.465  0.00  0.00     0.084 A 
ATOM      3  C   UNL d   1      58.393  -0.275  31.541  0.00  0.00     0.005 A 
ATOM      4  C   UNL d   1      57.588   0.438  30.576  0.00  0.00     0.005 A 
ATOM      5  C   UNL d   1      59.060  -0.039  31.154  0.00  0.00     0.019 A 
ATOM      6  C   UNL d   1      58.259   0.672  30.193  0.00  0.00     0.019 A 
ENDROOT
BRANCH   2   7
ATOM      7  N   UNL d   1      59.679   0.680  30.078  0.00  0.00    -0.212 NA
ATOM      8  C   UNL d   1      59.942   0.295  29.416  0.00  0.00     0.259 C 
ATOM      9  O   UNL d   1      60.629   0.530  29.008  0.00  0.00    -0.270 OA
BRANCH   8  10
ATOM     10  C   UNL d   1      59.523  -0.355  29.126  0.00  0.00     0.092 A 
ATOM     11  C   UNL d   1      58.865  -0.644  28.723  0.00  0.00     0.017 A 
ATOM     12  C   UNL d   1      58.801  -1.422  28.631  0.00  0.00     0.023 A 
ATOM     13  C   UNL d   1      58.496  -0.691  28.505  0.00  0.00    -0.027 A 
ATOM     14  C   UNL d   1      59.379  -1.933  28.931  0.00  0.00     0.009 A 
ATOM     15  C   UNL d   1      59.155  -0.403  28.909  0.00  0.00    -0.012 A 
ATOM     16  C   UNL d   1      59.234   0.398  29.011  0.00  0.00    -0.018 A 
ATOM     17  C   UNL d   1      59.717  -0.934  29.198  0.00  0.00    -0.027 A 
ATOM     18  C   UNL d   1      59.972  -1.644  29.296  0.00  0.00     0.023 A 
ATOM     19  C   UNL d   1      60.085  -0.885  29.416  0.00  0.00     0.017 A 
ENDBRANCH   8  10
ENDBRANCH   2   7
BRANCH   1  20
ATOM     20  C   UNL d   1      56.942  -0.274  31.644  0.00  0.00     0.196 C 
ATOM     21  O   UNL d   1      56.479  -0.836  31.303  0.00  0.00    -0.287 OA
BRANCH  20  22
ATOM     22  C   UNL d   1      56.751   0.053  32.375  0.00  0.00     0.044 C 
BRANCH  22  23
ATOM     23  C   UNL d   1      56.235  -0.345  32.887  0.00  0.00     0.028 C 
BRANCH  23  24
ATOM     24  C   UNL d   1      55.901   0.056  33.528  0.00  0.00     0.100 A 
ATOM     25  O   UNL d   1      56.264   0.278  34.220  0.00  0.00    -0.305 OA
ATOM     26  C   UNL d   1      55.736   0.657  34.694  0.00  0.00     0.123 A 
ATOM     27  C   UNL d   1      55.013   0.682  34.298  0.00  0.00     0.029 A 
ATOM     28  C   UNL d   1      55.108   0.303  33.559  0.00  0.00     0.027 A 
ENDBRANCH  23  24
ENDBRANCH  22  23
ENDBRANCH  20  22
ENDBRANCH   1  20
TORSDOF 6
ENDMDL
MODEL 2
REMARK VINA RESULT:      -2.2      1.376      5.002
REMARK  6 active torsions:
REMARK  status: ('A' for Active; 'I' for Inactive)
REMARK    1  A    between atoms: C_2  and  C_1 
REMARK       I    between atoms: N_3  and  C_2 
REMARK    2  A    between atoms: C_24  and  N_3 
REMARK    3  A    between atoms: C_4  and  C_10 
REMARK    4  A    between atoms: C_9  and  C_4 
REMARK    5  A    between atoms: C_8  and  C_9 
REMARK    6  A    between atoms: C_10  and  C_15 
ROOT
ATOM      1  C   UNL d   1      57.596   0.099  31.011  0.00  0.00     0.039 A 
ATOM      2  C   UNL d   1      57.307   0.487  32.597  0.00  0.00     0.084 A 
ATOM      3  C   UNL d   1      58.171  -0.107  31.619  0.00  0.00     0.005 A 
ATOM      4  C   UNL d   1      56.913   0.483  31.223  0.00  0.00     0.005 A 
ATOM      5  C   UNL d   1      58.018   0.088  32.386  0.00  0.00     0.019 A 
ATOM      6  C   UNL d   1      56.765   0.676  31.992  0.00  0.00     0.019 A 
ENDROOT
BRANCH   2   7
ATOM      7  N   UNL d   1      57.153   0.682  33.363  0.00  0.00    -0.212 NA
ATOM      8  C   UNL d   1      56.610   0.273  33.802  0.00  0.00     0.259 C 
ATOM      9  O   UNL d   1      56.442   0.465  34.595  0.00  0.00    -0.270 OA
BRANCH   8  10
ATOM     10  C   UNL d   1      56.201  -0.360  33.463  0.00  0.00     0.092 A 
ATOM     11  C   UNL d   1      56.221  -1.120  33.146  0.00  0.00     0.017 A 
ATOM     12  C   UNL d   1      55.545  -1.433  32.894  0.00  0.00     0.023 A 
ATOM     13  C   UNL d   1      56.336  -1.511  33.001  0.00  0.00    -0.027 A 
ATOM     14  C   UNL d   1      54.836  -1.008  32.947  0.00  0.00     0.009 A 
ATOM     15  C   UNL d   1      56.315  -0.750  33.319  0.00  0.00    -0.012 A 
ATOM     16  C   UNL d   1      57.005  -0.415  33.583  0.00  0.00    -0.018 A 
ATOM     17  C   UNL d   1      55.595  -0.347  33.361  0.00  0.00    -0.027 A 
ATOM     18  C   UNL d   1      54.844  -0.314  33.241  0.00  0.00     0.023 A 
ATOM     19  C   UNL d   1      55.482   0.042  33.505  0.00  0.00     0.017 A 
ENDBRANCH   8  10
ENDBRANCH   2   7
BRANCH   1  20
ATOM     20  C   UNL d   1      57.761  -0.105  30.223  0.00  0.00     0.196 C 
ATOM     21  O   UNL d   1      57.412   0.321  29.637  0.00  0.00    -0.287 OA
BRANCH  20  22
ATOM     22  C   UNL d   1      58.270  -0.730  30.053  0.00  0.00     0.044 C 
BRANCH  22  23
ATOM     23  C   UNL d   1      58.480  -0.895  29.269  0.00  0.00     0.028 C 
BRANCH  23  24
ATOM     24  C   UNL d   1      58.851  -1.610  29.085  0.00  0.00     0.100 A 
ATOM     25  O   UNL d   1      59.563  -1.887  29.361  0.00  0.00    -0.305 OA
ATOM     26  C   UNL d   1      59.717  -2.609  29.040  0.00  0.00     0.123 A 
ATOM     27  C   UNL d   1      59.088  -2.803  28.543  0.00  0.00     0.029 A 
ATOM     28  C   UNL d   1      58.536  -2.176  28.565  0.00  0.00     0.027 A 
ENDBRANCH  23  24
ENDBRANCH  22  23
ENDBRANCH  20  22
ENDBRANCH   1  20
TORSDOF 6
ENDMDL
