MODEL 1
REMARK VINA RESULT:      -1.0      0.000      0.000
REMARK  1 active torsions:
REMARK  status: ('A' for Active; 'I' for Inactive)
REMARK    1  A    between atoms: C_9  and  C_3 
REMARK       I    between atoms: C_10  and  N_4 
ROOT
ATOM      1  N   UNL d   1      29.555  17.135 -24.337  0.00  0.00    -0.047 N 
ATOM      2  N   UNL d   1      30.262  16.858 -24.029  0.00  0.00    -0.188 N 
ATOM      3  C   UNL d   1      30.905  17.173 -24.439  0.00  0.00     0.194 A 
ATOM      4  N   UNL d   1      28.959  16.842 -23.957  0.00  0.00    -0.172 N 
ATOM      5  N   UNL d   1      30.607  17.677 -25.040  0.00  0.00    -0.083 NA
ATOM      6  C   UNL d   1      30.064  16.371 -23.429  0.00  0.00     0.104 A 
ATOM      7  O   UNL d   1      29.758  17.651 -24.973  0.00  0.00    -0.089 OA
ATOM      8  C   UNL d   1      29.241  16.357 -23.379  0.00  0.00     0.106 A 
ATOM      9  C   UNL d   1      28.147  17.014 -24.133  0.00  0.00     0.282 C 
ATOM     10  O   UNL d   1      27.956  17.521 -24.742  0.00  0.00    -0.265 OA
ATOM     11  C   UNL d   1      30.527  15.921 -22.900  0.00  0.00     0.021 A 
ATOM     12  C   UNL d   1      28.885  15.896 -22.804  0.00  0.00     0.021 A 
ATOM     13  C   UNL d   1      27.537  16.666 -23.685  0.00  0.00     0.068 C 
ATOM     14  C   UNL d   1      29.308  15.453 -22.281  0.00  0.00     0.002 A 
ATOM     15  C   UNL d   1      30.152  15.456 -22.319  0.00  0.00     0.002 A 
ENDROOT
BRANCH   3  16
ATOM     16  C   UNL d   1      31.669  16.979 -24.233  0.00  0.00     0.038 A 
ATOM     17  C   UNL d   1      32.026  16.336 -24.543  0.00  0.00     0.003 A 
ATOM     18  C   UNL d   1      32.820  16.154 -24.314  0.00  0.00     0.000 A 
ATOM     19  C   UNL d   1      31.646  15.839 -25.082  0.00  0.00     0.000 C 
ATOM     20  C   UNL d   1      33.216  15.496 -24.617  0.00  0.00     0.000 C 
ATOM     21  C   UNL d   1      33.189  16.624 -23.800  0.00  0.00     0.000 A 
ATOM     22  C   UNL d   1      32.832  17.267 -23.490  0.00  0.00     0.000 A 
ATOM     23  C   UNL d   1      32.068  17.461 -23.696  0.00  0.00     0.003 A 
ATOM     24  C   UNL d   1      33.241  17.777 -22.928  0.00  0.00     0.000 C 
ATOM     25  C   UNL d   1      31.698  18.126 -23.375  0.00  0.00     0.000 C 
ENDBRANCH   3  16
TORSDOF 1
ENDMDL
MODEL 2
REMARK VINA RESULT:      -0.3      1.179      1.779
REMARK  1 active torsions:
REMARK  status: ('A' for Active; 'I' for Inactive)
REMARK    1  A    between atoms: C_9  and  C_3 
REMARK       I    between atoms: C_10  and  N_4 
ROOT
ATOM      1  N   UNL d   1      29.536  16.137 -23.426  0.00  0.00    -0.047 N 
ATOM      2  N   UNL d   1      30.204  16.507 -23.721  0.00  0.00    -0.188 N 
ATOM      3  C   UNL d   1      30.889  16.149 -23.432  0.00  0.00     0.194 A 
ATOM      4  N   UNL d   1      28.900  16.469 -23.694  0.00  0.00    -0.172 N 
ATOM      5  N   UNL d   1      30.660  15.520 -22.927  0.00  0.00    -0.083 NA
ATOM      6  C   UNL d   1      29.941  17.093 -24.194  0.00  0.00     0.104 A 
ATOM      7  O   UNL d   1      29.808  15.515 -22.925  0.00  0.00    -0.089 OA
ATOM      8  C   UNL d   1      29.116  17.074 -24.180  0.00  0.00     0.106 A 
ATOM      9  C   UNL d   1      28.112  16.224 -23.499  0.00  0.00     0.282 C 
ATOM     10  O   UNL d   1      27.989  15.595 -22.994  0.00  0.00    -0.265 OA
ATOM     11  C   UNL d   1      30.343  17.664 -24.651  0.00  0.00     0.021 A 
ATOM     12  C   UNL d   1      28.699  17.622 -24.622  0.00  0.00     0.021 A 
ATOM     13  C   UNL d   1      27.456  16.623 -23.822  0.00  0.00     0.068 C 
ATOM     14  C   UNL d   1      29.062  18.183 -25.072  0.00  0.00     0.002 A 
ATOM     15  C   UNL d   1      29.906  18.216 -25.097  0.00  0.00     0.002 A 
ENDROOT
BRANCH   3  16
ATOM     16  C   UNL d   1      31.627  16.421 -23.649  0.00  0.00     0.038 A 
ATOM     17  C   UNL d   1      32.020  16.095 -24.262  0.00  0.00     0.003 A 
ATOM     18  C   UNL d   1      32.784  16.393 -24.468  0.00  0.00     0.000 A 
ATOM     19  C   UNL d   1      31.706  15.473 -24.705  0.00  0.00     0.000 C 
ATOM     20  C   UNL d   1      33.216  16.078 -25.096  0.00  0.00     0.000 C 
ATOM     21  C   UNL d   1      33.091  16.987 -24.049  0.00  0.00     0.000 A 
ATOM     22  C   UNL d   1      32.697  17.313 -23.436  0.00  0.00     0.000 A 
ATOM     23  C   UNL d   1      31.960  17.042 -23.219  0.00  0.00     0.003 A 
ATOM     24  C   UNL d   1      33.038  17.962 -22.982  0.00  0.00     0.000 C 
ATOM     25  C   UNL d   1      31.553  17.378 -22.586  0.00  0.00     0.000 C 
ENDBRANCH   3  16
TORSDOF 1
ENDMDL
MODEL 3
REMARK VINA RESULT:       1.5      2.012      3.743
REMARK  1 active torsions:
REMARK  status: ('A' for Active; 'I' for Inactive)
REMARK    1  A    between atoms: C_9  and  C_3 
REMARK       I    between atoms: C_10  and  N_4 
ROOT
ATOM      1  N   UNL d   1      32.407  19.570 -24.066  0.00  0.00    -0.047 N 
ATOM      2  N   UNL d   1      32.340  18.788 -23.833  0.00  0.00    -0.188 N 
ATOM      3  C   UNL d   1      32.022  18.327 -24.439  0.00  0.00     0.194 A 
ATOM      4  N   UNL d   1      32.703  19.997 -23.504  0.00  0.00    -0.172 N 
ATOM      5  N   UNL d   1      31.874  18.828 -25.095  0.00  0.00    -0.083 NA
ATOM      6  C   UNL d   1      32.615  18.756 -23.085  0.00  0.00     0.104 A 
ATOM      7  O   UNL d   1      32.118  19.609 -24.857  0.00  0.00    -0.089 OA
ATOM      8  C   UNL d   1      32.846  19.519 -22.871  0.00  0.00     0.106 A 
ATOM      9  C   UNL d   1      32.846  20.831 -23.560  0.00  0.00     0.282 C 
ATOM     10  O   UNL d   1      32.668  21.234 -24.246  0.00  0.00    -0.265 OA
ATOM     11  C   UNL d   1      32.694  18.125 -22.545  0.00  0.00     0.021 A 
ATOM     12  C   UNL d   1      33.152  19.647 -22.123  0.00  0.00     0.021 A 
ATOM     13  C   UNL d   1      33.170  21.246 -22.915  0.00  0.00     0.068 C 
ATOM     14  C   UNL d   1      33.238  19.056 -21.584  0.00  0.00     0.002 A 
ATOM     15  C   UNL d   1      33.007  18.268 -21.786  0.00  0.00     0.002 A 
ENDROOT
BRANCH   3  16
ATOM     16  C   UNL d   1      31.902  17.527 -24.338  0.00  0.00     0.038 A 
ATOM     17  C   UNL d   1      31.205  17.247 -24.069  0.00  0.00     0.003 A 
ATOM     18  C   UNL d   1      31.104  16.413 -23.973  0.00  0.00     0.000 A 
ATOM     19  C   UNL d   1      30.575  17.746 -23.881  0.00  0.00     0.000 C 
ATOM     20  C   UNL d   1      30.394  16.093 -23.697  0.00  0.00     0.000 C 
ATOM     21  C   UNL d   1      31.701  15.930 -24.151  0.00  0.00     0.000 A 
ATOM     22  C   UNL d   1      32.399  16.210 -24.420  0.00  0.00     0.000 A 
ATOM     23  C   UNL d   1      32.519  17.010 -24.520  0.00  0.00     0.003 A 
ATOM     24  C   UNL d   1      33.049  15.677 -24.612  0.00  0.00     0.000 C 
ATOM     25  C   UNL d   1      33.240  17.299 -24.798  0.00  0.00     0.000 C 
ENDBRANCH   3  16
TORSDOF 1
ENDMDL
MODEL 4
REMARK VINA RESULT:       1.9      2.174      3.311
REMARK  1 active torsions:
REMARK  status: ('A' for Active; 'I' for Inactive)
REMARK    1  A    between atoms: C_9  and  C_3 
REMARK       I    between atoms: C_10  and  N_4 
ROOT
ATOM      1  N   UNL d   1      32.135  17.141 -23.778  0.00  0.00    -0.047 N 
ATOM      2  N   UNL d   1      32.079  17.948 -23.907  0.00  0.00    -0.188 N 
ATOM      3  C   UNL d   1      32.735  18.341 -23.597  0.00  0.00     0.194 A 
ATOM      4  N   UNL d   1      31.527  16.776 -24.066  0.00  0.00    -0.172 N 
ATOM      5  N   UNL d   1      33.241  17.768 -23.251  0.00  0.00    -0.083 NA
ATOM      6  C   UNL d   1      31.392  18.061 -24.296  0.00  0.00     0.104 A 
ATOM      7  O   UNL d   1      32.861  17.014 -23.367  0.00  0.00    -0.089 OA
ATOM      8  C   UNL d   1      31.039  17.323 -24.399  0.00  0.00     0.106 A 
ATOM      9  C   UNL d   1      31.409  15.937 -24.029  0.00  0.00     0.282 C 
ATOM     10  O   UNL d   1      31.963  15.459 -23.669  0.00  0.00    -0.265 OA
ATOM     11  C   UNL d   1      31.021  18.751 -24.582  0.00  0.00     0.021 A 
ATOM     12  C   UNL d   1      30.319  17.278 -24.787  0.00  0.00     0.021 A 
ATOM     13  C   UNL d   1      30.726  15.593 -24.360  0.00  0.00     0.068 C 
ATOM     14  C   UNL d   1      29.940  17.928 -25.073  0.00  0.00     0.002 A 
ATOM     15  C   UNL d   1      30.288  18.692 -24.975  0.00  0.00     0.002 A 
ENDROOT
BRANCH   3  16
ATOM     16  C   UNL d   1      32.804  19.151 -23.657  0.00  0.00     0.038 A 
ATOM     17  C   UNL d   1      32.986  19.496 -24.353  0.00  0.00     0.003 A 
ATOM     18  C   UNL d   1      33.053  20.339 -24.390  0.00  0.00     0.000 A 
ATOM     19  C   UNL d   1      33.112  19.058 -25.041  0.00  0.00     0.000 C 
ATOM     20  C   UNL d   1      33.240  20.726 -25.095  0.00  0.00     0.000 C 
ATOM     21  C   UNL d   1      32.934  20.764 -23.737  0.00  0.00     0.000 A 
ATOM     22  C   UNL d   1      32.753  20.418 -23.041  0.00  0.00     0.000 A 
ATOM     23  C   UNL d   1      32.683  19.608 -22.981  0.00  0.00     0.003 A 
ATOM     24  C   UNL d   1      32.624  20.888 -22.329  0.00  0.00     0.000 C 
ATOM     25  C   UNL d   1      32.495  19.251 -22.261  0.00  0.00     0.000 C 
ENDBRANCH   3  16
TORSDOF 1
ENDMDL
