MODEL 1
REMARK VINA RESULT:       6.5      0.000      0.000
REMARK  5 active torsions:
REMARK  status: ('A' for Active; 'I' for Inactive)
REMARK       I    between atoms: C_2  and  N_1 
REMARK    1  A    between atoms: C_3  and  N_1 
REMARK    2  A    between atoms: C_9  and  C_2 
REMARK    3  A    between atoms: N_6  and  C_3 
REMARK    4  A    between atoms: C_4  and  C_13 
REMARK    5  A    between atoms: C_13  and  N_6 
ROOT
ATOM      1  N   UNL d   1      46.146 -17.630  43.545  0.00  0.00    -0.299 N 
ATOM      2  C   UNL d   1      46.377 -18.418  43.593  0.00  0.00     0.259 C 
ATOM      3  O   UNL d   1      46.529 -18.763  44.329  0.00  0.00    -0.267 OA
ATOM      4  H   UNL d   1      45.995 -17.285  42.809  0.00  0.00     0.171 HD
ENDROOT
BRANCH   1   5
ATOM      5  C   UNL d   1      46.066 -17.183  44.216  0.00  0.00     0.179 C 
ATOM      6  S   UNL d   1      46.075 -17.555  44.954  0.00  0.00    -0.040 SA
BRANCH   5   7
ATOM      7  N   UNL d   1      45.978 -16.386  44.156  0.00  0.00    -0.329 N 
ATOM      8  H   UNL d   1      46.348 -15.985  43.557  0.00  0.00     0.168 HD
BRANCH   7   9
ATOM      9  C   UNL d   1      45.524 -15.996  44.692  0.00  0.00     0.099 C 
BRANCH   9  10
ATOM     10  C   UNL d   1      45.470 -15.169  44.660  0.00  0.00     0.117 A 
ATOM     11  O   UNL d   1      44.743 -14.827  44.505  0.00  0.00    -0.304 OA
ATOM     12  C   UNL d   1      44.853 -14.017  44.507  0.00  0.00     0.123 A 
ATOM     13  C   UNL d   1      45.646 -13.872  44.663  0.00  0.00     0.029 A 
ATOM     14  C   UNL d   1      46.014 -14.595  44.755  0.00  0.00     0.028 A 
ENDBRANCH   9  10
ENDBRANCH   7   9
ENDBRANCH   5   7
ENDBRANCH   1   5
BRANCH   2  15
ATOM     15  C   UNL d   1      46.457 -18.868  42.902  0.00  0.00     0.056 A 
ATOM     16  C   UNL d   1      46.555 -18.491  42.173  0.00  0.00     0.005 A 
ATOM     17  C   UNL d   1      46.635 -18.945  41.480  0.00  0.00     0.000 A 
ATOM     18  C   UNL d   1      46.617 -19.767  41.520  0.00  0.00     0.000 A 
ATOM     19  C   UNL d   1      46.519 -20.145  42.249  0.00  0.00     0.000 A 
ATOM     20  C   UNL d   1      46.439 -19.700  42.937  0.00  0.00     0.005 A 
ENDBRANCH   2  15
TORSDOF 5
ENDMDL
MODEL 2
REMARK VINA RESULT:       7.4      0.749      4.761
REMARK  5 active torsions:
REMARK  status: ('A' for Active; 'I' for Inactive)
REMARK       I    between atoms: C_2  and  N_1 
REMARK    1  A    between atoms: C_3  and  N_1 
REMARK    2  A    between atoms: C_9  and  C_2 
REMARK    3  A    between atoms: N_6  and  C_3 
REMARK    4  A    between atoms: C_4  and  C_13 
REMARK    5  A    between atoms: C_13  and  N_6 
ROOT
ATOM      1  N   UNL d   1      45.881 -15.637  44.263  0.00  0.00    -0.299 N 
ATOM      2  C   UNL d   1      45.326 -15.070  44.483  0.00  0.00     0.259 C 
ATOM      3  O   UNL d   1      44.582 -15.303  44.759  0.00  0.00    -0.267 OA
ATOM      4  H   UNL d   1      46.624 -15.405  43.987  0.00  0.00     0.171 HD
ENDROOT
BRANCH   1   5
ATOM      5  C   UNL d   1      45.706 -16.426  44.315  0.00  0.00     0.179 C 
ATOM      6  S   UNL d   1      45.259 -16.700  44.955  0.00  0.00    -0.040 SA
BRANCH   5   7
ATOM      7  N   UNL d   1      45.968 -16.931  43.748  0.00  0.00    -0.329 N 
ATOM      8  H   UNL d   1      45.932 -16.713  42.969  0.00  0.00     0.168 HD
BRANCH   7   9
ATOM      9  C   UNL d   1      46.264 -17.648  43.961  0.00  0.00     0.099 C 
BRANCH   9  10
ATOM     10  C   UNL d   1      46.415 -18.218  43.378  0.00  0.00     0.117 A 
ATOM     11  O   UNL d   1      46.496 -19.001  43.605  0.00  0.00    -0.304 OA
ATOM     12  C   UNL d   1      46.641 -19.434  42.927  0.00  0.00     0.123 A 
ATOM     13  C   UNL d   1      46.647 -18.912  42.293  0.00  0.00     0.029 A 
ATOM     14  C   UNL d   1      46.506 -18.164  42.589  0.00  0.00     0.028 A 
ENDBRANCH   9  10
ENDBRANCH   7   9
ENDBRANCH   5   7
ENDBRANCH   1   5
BRANCH   2  15
ATOM     15  C   UNL d   1      45.512 -14.265  44.427  0.00  0.00     0.056 A 
ATOM     16  C   UNL d   1      46.053 -13.929  44.955  0.00  0.00     0.005 A 
ATOM     17  C   UNL d   1      46.239 -13.120  44.896  0.00  0.00     0.000 A 
ATOM     18  C   UNL d   1      45.887 -12.656  44.315  0.00  0.00     0.000 A 
ATOM     19  C   UNL d   1      45.346 -12.992  43.787  0.00  0.00     0.000 A 
ATOM     20  C   UNL d   1      45.159 -13.791  43.840  0.00  0.00     0.005 A 
ENDBRANCH   2  15
TORSDOF 5
ENDMDL
