MODEL 1
REMARK VINA RESULT:      24.8      0.000      0.000
REMARK  0 active torsions:
REMARK  status: ('A' for Active; 'I' for Inactive)
ROOT
ATOM      1  C   UNL d   1      58.702  49.704  50.285  0.00  0.00     0.094 A 
ATOM      2  C   UNL d   1      58.765  49.705  49.462  0.00  0.00     0.143 A 
ATOM      3  S   UNL d   1      58.085  49.705  48.996  0.00  0.00    -0.055 SA
ATOM      4  C   UNL d   1      57.958  49.704  50.641  0.00  0.00     0.013 A 
ATOM      5  C   UNL d   1      57.340  49.705  49.353  0.00  0.00     0.086 A 
ATOM      6  C   UNL d   1      57.277  49.705  50.175  0.00  0.00     0.017 A 
ATOM      7  C   UNL d   1      59.383  49.703  50.751  0.00  0.00     0.103 C 
ATOM      8  N   UNL d   1      60.058  49.703  51.215  0.00  0.00    -0.191 NA
ATOM      9  S   UNL d   1      56.654  49.706  48.885  0.00  0.00    -0.071 SA
ATOM     10  N   UNL d   1      59.504  49.705  49.105  0.00  0.00    -0.140 N 
ATOM     11  C   UNL d   1      57.895  49.704  51.462  0.00  0.00     0.001 A 
ATOM     12  C   UNL d   1      56.532  49.705  50.531  0.00  0.00     0.001 A 
ATOM     13  C   UNL d   1      57.150  49.704  51.819  0.00  0.00     0.000 A 
ATOM     14  C   UNL d   1      56.469  49.705  51.353  0.00  0.00     0.000 A 
ENDROOT
TORSDOF 0
ENDMDL
