MODEL 1
REMARK VINA RESULT:      -6.4      0.000      0.000
REMARK  3 active torsions:
REMARK  status: ('A' for Active; 'I' for Inactive)
REMARK       I    between atoms: N_3  and  C_1 
REMARK    1  A    between atoms: C_6  and  C_1 
REMARK    2  A    between atoms: N_2  and  C_4 
REMARK    3  A    between atoms: C_9  and  N_3 
ROOT
ATOM      1  C   UNL d   1     -41.537-122.693 -52.843  0.00  0.00     0.064 A 
ATOM      2  C   UNL d   1     -41.458-123.468 -52.554  0.00  0.00     0.019 A 
ATOM      3  C   UNL d   1     -41.544-122.045 -52.322  0.00  0.00     0.019 A 
ATOM      4  C   UNL d   1     -41.395-122.930 -51.219  0.00  0.00     0.085 A 
ATOM      5  C   UNL d   1     -41.388-123.578 -51.741  0.00  0.00     0.021 A 
ATOM      6  C   UNL d   1     -41.473-122.167 -51.508  0.00  0.00     0.021 A 
ENDROOT
BRANCH   4   7
ATOM      7  N   UNL d   1     -41.323-123.058 -50.398  0.00  0.00    -0.208 NA
ATOM      8  C   UNL d   1     -41.994-123.047 -49.916  0.00  0.00     0.279 C 
ATOM      9  O   UNL d   1     -42.744-122.908 -50.248  0.00  0.00    -0.265 OA
BRANCH   8  10
ATOM     10  C   UNL d   1     -41.920-123.175 -49.099  0.00  0.00     0.058 A 
ATOM     11  C   UNL d   1     -42.580-123.051 -48.607  0.00  0.00     0.005 A 
ATOM     12  C   UNL d   1     -42.502-123.179 -47.798  0.00  0.00     0.000 A 
ATOM     13  C   UNL d   1     -41.770-123.429 -47.479  0.00  0.00     0.000 A 
ATOM     14  C   UNL d   1     -41.131-123.547 -47.976  0.00  0.00     0.000 A 
ATOM     15  C   UNL d   1     -41.199-123.422 -48.786  0.00  0.00     0.005 A 
ENDBRANCH   8  10
ENDBRANCH   4   7
BRANCH   1  16
ATOM     16  N   UNL d   1     -41.608-122.573 -53.669  0.00  0.00    -0.304 N 
ATOM     17  C   UNL d   1     -41.123-122.984 -54.184  0.00  0.00     0.080 A 
ATOM     18  C   UNL d   1     -41.194-122.864 -55.010  0.00  0.00     0.019 A 
ATOM     19  C   UNL d   1     -41.757-122.329 -55.285  0.00  0.00     0.003 A 
ATOM     20  C   UNL d   1     -42.240-121.921 -54.764  0.00  0.00     0.019 A 
ATOM     21  C   UNL d   1     -42.170-122.039 -53.956  0.00  0.00     0.080 A 
ENDBRANCH   1  16
TORSDOF 3
ENDMDL
MODEL 2
REMARK VINA RESULT:      -4.2      0.865      5.080
REMARK  3 active torsions:
REMARK  status: ('A' for Active; 'I' for Inactive)
REMARK       I    between atoms: N_3  and  C_1 
REMARK    1  A    between atoms: C_6  and  C_1 
REMARK    2  A    between atoms: N_2  and  C_4 
REMARK    3  A    between atoms: C_9  and  N_3 
ROOT
ATOM      1  C   UNL d   1     -41.681-122.959 -50.175  0.00  0.00     0.064 A 
ATOM      2  C   UNL d   1     -42.127-122.310 -50.440  0.00  0.00     0.019 A 
ATOM      3  C   UNL d   1     -41.182-123.372 -50.697  0.00  0.00     0.019 A 
ATOM      4  C   UNL d   1     -41.565-122.500 -51.753  0.00  0.00     0.085 A 
ATOM      5  C   UNL d   1     -42.064-122.087 -51.231  0.00  0.00     0.021 A 
ATOM      6  C   UNL d   1     -41.127-123.139 -51.487  0.00  0.00     0.021 A 
ENDROOT
BRANCH   4   7
ATOM      7  N   UNL d   1     -41.512-122.262 -52.550  0.00  0.00    -0.208 NA
ATOM      8  C   UNL d   1     -41.822-122.741 -53.148  0.00  0.00     0.279 C 
ATOM      9  O   UNL d   1     -42.188-123.462 -52.956  0.00  0.00    -0.265 OA
BRANCH   8  10
ATOM     10  C   UNL d   1     -41.768-122.501 -53.941  0.00  0.00     0.058 A 
ATOM     11  C   UNL d   1     -41.173-122.828 -54.424  0.00  0.00     0.005 A 
ATOM     12  C   UNL d   1     -41.123-122.588 -55.209  0.00  0.00     0.000 A 
ATOM     13  C   UNL d   1     -41.662-122.025 -55.514  0.00  0.00     0.000 A 
ATOM     14  C   UNL d   1     -42.241-121.714 -55.026  0.00  0.00     0.000 A 
ATOM     15  C   UNL d   1     -42.299-121.948 -54.240  0.00  0.00     0.005 A 
ENDBRANCH   8  10
ENDBRANCH   4   7
BRANCH   1  16
ATOM     16  N   UNL d   1     -41.740-123.192 -49.372  0.00  0.00    -0.304 N 
ATOM     17  C   UNL d   1     -41.122-123.036 -48.857  0.00  0.00     0.080 A 
ATOM     18  C   UNL d   1     -41.181-123.270 -48.055  0.00  0.00     0.019 A 
ATOM     19  C   UNL d   1     -41.866-123.653 -47.802  0.00  0.00     0.003 A 
ATOM     20  C   UNL d   1     -42.479-123.805 -48.323  0.00  0.00     0.019 A 
ATOM     21  C   UNL d   1     -42.422-123.577 -49.108  0.00  0.00     0.080 A 
ENDBRANCH   1  16
TORSDOF 3
ENDMDL
MODEL 3
REMARK VINA RESULT:      -3.6      0.650      1.164
REMARK  3 active torsions:
REMARK  status: ('A' for Active; 'I' for Inactive)
REMARK       I    between atoms: N_3  and  C_1 
REMARK    1  A    between atoms: C_6  and  C_1 
REMARK    2  A    between atoms: N_2  and  C_4 
REMARK    3  A    between atoms: C_9  and  N_3 
ROOT
ATOM      1  C   UNL d   1     -41.600-122.184 -53.206  0.00  0.00     0.064 A 
ATOM      2  C   UNL d   1     -41.841-121.566 -52.707  0.00  0.00     0.019 A 
ATOM      3  C   UNL d   1     -41.292-122.889 -52.889  0.00  0.00     0.019 A 
ATOM      4  C   UNL d   1     -41.459-122.372 -51.575  0.00  0.00     0.085 A 
ATOM      5  C   UNL d   1     -41.768-121.667 -51.892  0.00  0.00     0.021 A 
ATOM      6  C   UNL d   1     -41.222-122.980 -52.071  0.00  0.00     0.021 A 
ENDROOT
BRANCH   4   7
ATOM      7  N   UNL d   1     -41.390-122.459 -50.749  0.00  0.00    -0.208 NA
ATOM      8  C   UNL d   1     -41.896-122.971 -50.342  0.00  0.00     0.279 C 
ATOM      9  O   UNL d   1     -42.475-123.401 -50.756  0.00  0.00    -0.265 OA
BRANCH   8  10
ATOM     10  C   UNL d   1     -41.826-123.056 -49.520  0.00  0.00     0.058 A 
ATOM     11  C   UNL d   1     -41.301-122.562 -49.103  0.00  0.00     0.005 A 
ATOM     12  C   UNL d   1     -41.234-122.650 -48.288  0.00  0.00     0.000 A 
ATOM     13  C   UNL d   1     -41.689-123.227 -47.888  0.00  0.00     0.000 A 
ATOM     14  C   UNL d   1     -42.200-123.705 -48.311  0.00  0.00     0.000 A 
ATOM     15  C   UNL d   1     -42.273-123.625 -49.126  0.00  0.00     0.005 A 
ENDBRANCH   8  10
ENDBRANCH   4   7
BRANCH   1  16
ATOM     16  N   UNL d   1     -41.672-122.089 -54.035  0.00  0.00    -0.304 N 
ATOM     17  C   UNL d   1     -41.817-121.346 -54.348  0.00  0.00     0.080 A 
ATOM     18  C   UNL d   1     -41.889-121.251 -55.177  0.00  0.00     0.019 A 
ATOM     19  C   UNL d   1     -41.811-121.913 -55.661  0.00  0.00     0.003 A 
ATOM     20  C   UNL d   1     -41.666-122.653 -55.341  0.00  0.00     0.019 A 
ATOM     21  C   UNL d   1     -41.596-122.747 -54.530  0.00  0.00     0.080 A 
ENDBRANCH   1  16
TORSDOF 3
ENDMDL
