MODEL 1
REMARK VINA RESULT:      -4.4      0.000      0.000
REMARK  2 active torsions:
REMARK  status: ('A' for Active; 'I' for Inactive)
REMARK    1  A    between atoms: C_6  and  C_1 
REMARK       I    between atoms: N_11  and  C_6 
REMARK    2  A    between atoms: C_13  and  N_11 
ROOT
ATOM      1  C   UNL d   1      57.625  -0.048  30.310  0.00  0.00     0.108 A 
ATOM      2  C   UNL d   1      56.974  -0.521  31.356  0.00  0.00     0.044 A 
ATOM      3  C   UNL d   1      56.922   0.301  31.387  0.00  0.00     0.112 A 
ATOM      4  S   UNL d   1      57.329   0.592  30.733  0.00  0.00    -0.061 SA
ATOM      5  C   UNL d   1      57.396  -0.728  30.710  0.00  0.00     0.116 A 
ATOM      6  N   UNL d   1      56.512   0.679  32.004  0.00  0.00    -0.239 NA
ATOM      7  C   UNL d   1      56.213  -0.613  32.551  0.00  0.00     0.057 A 
ATOM      8  C   UNL d   1      56.617  -0.982  31.943  0.00  0.00     0.008 A 
ATOM      9  C   UNL d   1      56.161   0.209  32.582  0.00  0.00     0.085 A 
ATOM     10  C   UNL d   1      55.856  -1.070  33.138  0.00  0.00     0.197 A 
ATOM     11  N   UNL d   1      57.538  -1.671  30.545  0.00  0.00    -0.147 N 
ATOM     12  O   UNL d   1      55.928  -2.074  33.087  0.00  0.00    -0.286 OA
ATOM     13  C   UNL d   1      55.752   0.572  33.199  0.00  0.00     0.019 A 
ATOM     14  C   UNL d   1      55.452  -0.705  33.747  0.00  0.00     0.042 A 
ATOM     15  C   UNL d   1      55.400   0.116  33.777  0.00  0.00     0.005 A 
ENDROOT
BRANCH   1  16
ATOM     16  C   UNL d   1      58.153  -0.046  29.485  0.00  0.00     0.287 C 
ATOM     17  N   UNL d   1      59.061  -0.041  29.130  0.00  0.00    -0.205 NA
ATOM     18  O   UNL d   1      57.598  -0.052  28.896  0.00  0.00    -0.265 OA
BRANCH  17  19
ATOM     19  C   UNL d   1      59.748  -0.034  29.663  0.00  0.00     0.112 A 
ATOM     20  C   UNL d   1      60.274  -0.723  29.694  0.00  0.00     0.158 A 
ATOM     21  F   UNL d   1      60.361  -1.725  29.216  0.00  0.00    -0.203 F 
ATOM     22  C   UNL d   1      60.977  -0.714  30.240  0.00  0.00     0.031 A 
ATOM     23  C   UNL d   1      61.133  -0.013  30.741  0.00  0.00     0.002 A 
ATOM     24  C   UNL d   1      60.595   0.678  30.702  0.00  0.00     0.002 A 
ATOM     25  C   UNL d   1      59.898   0.682  30.167  0.00  0.00     0.021 A 
ENDBRANCH  17  19
ENDBRANCH   1  16
TORSDOF 2
ENDMDL
MODEL 2
REMARK VINA RESULT:      -3.4      8.811     10.065
REMARK  2 active torsions:
REMARK  status: ('A' for Active; 'I' for Inactive)
REMARK    1  A    between atoms: C_6  and  C_1 
REMARK       I    between atoms: N_11  and  C_6 
REMARK    2  A    between atoms: C_13  and  N_11 
ROOT
ATOM      1  C   UNL d   1      59.356  -9.293  34.541  0.00  0.00     0.108 A 
ATOM      2  C   UNL d   1      59.307  -9.453  33.232  0.00  0.00     0.044 A 
ATOM      3  C   UNL d   1      60.102  -9.449  33.448  0.00  0.00     0.112 A 
ATOM      4  S   UNL d   1      60.129  -9.349  34.265  0.00  0.00    -0.061 SA
ATOM      5  C   UNL d   1      58.862  -9.359  33.888  0.00  0.00     0.116 A 
ATOM      6  N   UNL d   1      60.700  -9.537  32.876  0.00  0.00    -0.239 NA
ATOM      7  C   UNL d   1      59.677  -9.631  31.873  0.00  0.00     0.057 A 
ATOM      8  C   UNL d   1      59.092  -9.544  32.439  0.00  0.00     0.008 A 
ATOM      9  C   UNL d   1      60.472  -9.627  32.089  0.00  0.00     0.085 A 
ATOM     10  C   UNL d   1      59.467  -9.722  31.081  0.00  0.00     0.197 A 
ATOM     11  N   UNL d   1      57.899  -9.345  33.785  0.00  0.00    -0.147 N 
ATOM     12  O   UNL d   1      58.491  -9.725  30.831  0.00  0.00    -0.286 OA
ATOM     13  C   UNL d   1      61.056  -9.715  31.513  0.00  0.00     0.019 A 
ATOM     14  C   UNL d   1      60.048  -9.809  30.514  0.00  0.00     0.042 A 
ATOM     15  C   UNL d   1      60.843  -9.805  30.730  0.00  0.00     0.005 A 
ENDROOT
BRANCH   1  16
ATOM     16  C   UNL d   1      59.041  -9.171  35.461  0.00  0.00     0.287 C 
ATOM     17  N   UNL d   1      59.087  -8.584  36.238  0.00  0.00    -0.205 NA
ATOM     18  O   UNL d   1      58.569  -9.815  35.594  0.00  0.00    -0.265 OA
BRANCH  17  19
ATOM     19  C   UNL d   1      59.563  -7.857  36.221  0.00  0.00     0.112 A 
ATOM     20  C   UNL d   1      59.174  -7.091  36.100  0.00  0.00     0.158 A 
ATOM     21  F   UNL d   1      58.145  -6.698  35.943  0.00  0.00    -0.203 F 
ATOM     22  C   UNL d   1      59.664  -6.348  36.083  0.00  0.00     0.031 A 
ATOM     23  C   UNL d   1      60.532  -6.394  36.188  0.00  0.00     0.002 A 
ATOM     24  C   UNL d   1      60.915  -7.174  36.309  0.00  0.00     0.002 A 
ATOM     25  C   UNL d   1      60.443  -7.914  36.328  0.00  0.00     0.021 A 
ENDBRANCH  17  19
ENDBRANCH   1  16
TORSDOF 2
ENDMDL
MODEL 3
REMARK VINA RESULT:      -2.4      1.529      1.994
REMARK  2 active torsions:
REMARK  status: ('A' for Active; 'I' for Inactive)
REMARK    1  A    between atoms: C_6  and  C_1 
REMARK       I    between atoms: N_11  and  C_6 
REMARK    2  A    between atoms: C_13  and  N_11 
ROOT
ATOM      1  C   UNL d   1      58.221  -0.175  30.077  0.00  0.00     0.108 A 
ATOM      2  C   UNL d   1      57.849  -0.009  31.332  0.00  0.00     0.044 A 
ATOM      3  C   UNL d   1      57.265  -0.456  30.961  0.00  0.00     0.112 A 
ATOM      4  S   UNL d   1      57.500  -0.558  30.179  0.00  0.00    -0.061 SA
ATOM      5  C   UNL d   1      58.421   0.158  30.801  0.00  0.00     0.116 A 
ATOM      6  N   UNL d   1      56.594  -0.713  31.380  0.00  0.00    -0.239 NA
ATOM      7  C   UNL d   1      57.116  -0.062  32.548  0.00  0.00     0.057 A 
ATOM      8  C   UNL d   1      57.775   0.190  32.132  0.00  0.00     0.008 A 
ATOM      9  C   UNL d   1      56.532  -0.508  32.176  0.00  0.00     0.085 A 
ATOM     10  C   UNL d   1      57.039   0.135  33.345  0.00  0.00     0.197 A 
ATOM     11  N   UNL d   1      59.179   0.682  31.101  0.00  0.00    -0.147 N 
ATOM     12  O   UNL d   1      57.762   0.682  33.786  0.00  0.00    -0.286 OA
ATOM     13  C   UNL d   1      55.871  -0.757  32.602  0.00  0.00     0.019 A 
ATOM     14  C   UNL d   1      56.383  -0.114  33.763  0.00  0.00     0.042 A 
ATOM     15  C   UNL d   1      55.799  -0.560  33.391  0.00  0.00     0.005 A 
ENDROOT
BRANCH   1  16
ATOM     16  C   UNL d   1      58.770  -0.106  29.268  0.00  0.00     0.287 C 
ATOM     17  N   UNL d   1      59.325  -0.612  28.647  0.00  0.00    -0.205 NA
ATOM     18  O   UNL d   1      58.725   0.677  29.067  0.00  0.00    -0.265 OA
BRANCH  17  19
ATOM     19  C   UNL d   1      59.453  -1.465  28.755  0.00  0.00     0.112 A 
ATOM     20  C   UNL d   1      60.192  -1.747  29.112  0.00  0.00     0.158 A 
ATOM     21  F   UNL d   1      61.134  -1.318  29.522  0.00  0.00    -0.203 F 
ATOM     22  C   UNL d   1      60.320  -2.621  29.222  0.00  0.00     0.031 A 
ATOM     23  C   UNL d   1      59.703  -3.189  28.970  0.00  0.00     0.002 A 
ATOM     24  C   UNL d   1      58.960  -2.893  28.610  0.00  0.00     0.002 A 
ATOM     25  C   UNL d   1      58.821  -2.033  28.497  0.00  0.00     0.021 A 
ENDBRANCH  17  19
ENDBRANCH   1  16
TORSDOF 2
ENDMDL
