MODEL 1
REMARK VINA RESULT:      -9.1      0.000      0.000
REMARK  3 active torsions:
REMARK  status: ('A' for Active; 'I' for Inactive)
REMARK    1  A    between atoms: N_11  and  C_1 
REMARK    2  A    between atoms: N_5  and  C_4 
REMARK    3  A    between atoms: C_7  and  C_10 
REMARK       I    between atoms: C_10  and  N_12 
ROOT
ATOM      1  C   UNL d   1      53.089  33.120  53.241  0.00  0.00     0.288 C 
ATOM      2  N   UNL d   1      50.878  34.147  52.781  0.00  0.00    -0.281 N 
ATOM      3  N   UNL d   1      52.345  33.462  53.087  0.00  0.00    -0.267 N 
ATOM      4  C   UNL d   1      50.935  33.344  52.924  0.00  0.00     0.101 A 
ATOM      5  C   UNL d   1      51.561  34.614  52.790  0.00  0.00     0.101 A 
ATOM      6  C   UNL d   1      51.663  32.995  53.077  0.00  0.00     0.102 A 
ATOM      7  C   UNL d   1      52.300  34.278  52.943  0.00  0.00     0.102 A 
ATOM      8  O   UNL d   1      53.765  33.582  53.250  0.00  0.00    -0.264 OA
ENDROOT
BRANCH   2   9
ATOM      9  C   UNL d   1      50.151  34.495  52.628  0.00  0.00     0.179 A 
ATOM     10  N   UNL d   1      49.722  34.968  53.154  0.00  0.00    -0.222 NA
ATOM     11  C   UNL d   1      49.027  35.204  52.786  0.00  0.00     0.089 A 
ATOM     12  C   UNL d   1      48.406  35.667  53.035  0.00  0.00     0.018 A 
ATOM     13  C   UNL d   1      49.023  34.878  52.027  0.00  0.00     0.050 A 
ATOM     14  C   UNL d   1      47.772  35.812  52.537  0.00  0.00     0.002 A 
ATOM     15  C   UNL d   1      48.411  35.992  53.793  0.00  0.00     0.002 C 
ATOM     16  C   UNL d   1      47.767  35.486  51.779  0.00  0.00     0.001 A 
ATOM     17  C   UNL d   1      48.399  35.017  51.529  0.00  0.00     0.007 A 
ATOM     18  C   UNL d   1      48.393  34.694  50.774  0.00  0.00     0.001 C 
ATOM     19  S   UNL d   1      49.708  34.443  51.925  0.00  0.00    -0.048 SA
ENDBRANCH   2   9
BRANCH   1  20
ATOM     20  C   UNL d   1      53.132  32.307  53.384  0.00  0.00     0.158 A 
ATOM     21  O   UNL d   1      52.943  31.703  52.846  0.00  0.00    -0.281 OA
ATOM     22  C   UNL d   1      53.071  30.980  53.235  0.00  0.00     0.228 A 
ATOM     23  C   UNL d   1      53.332  31.151  53.996  0.00  0.00     0.051 A 
ATOM     24  C   UNL d   1      53.368  31.970  54.083  0.00  0.00     0.034 A 
BRANCH  22  25
ATOM     25  N   UNL d   1      52.957  30.221  52.919  0.00  0.00    -0.089 N 
ATOM     26  O   UNL d   1      52.775  29.581  53.434  0.00  0.00    -0.530 OA
ATOM     27  O   UNL d   1      53.019  30.087  52.113  0.00  0.00    -0.530 OA
ENDBRANCH  22  25
ENDBRANCH   1  20
TORSDOF 3
ENDMDL
MODEL 2
REMARK VINA RESULT:      -9.1      0.367      1.111
REMARK  3 active torsions:
REMARK  status: ('A' for Active; 'I' for Inactive)
REMARK    1  A    between atoms: N_11  and  C_1 
REMARK    2  A    between atoms: N_5  and  C_4 
REMARK    3  A    between atoms: C_7  and  C_10 
REMARK       I    between atoms: C_10  and  N_12 
ROOT
ATOM      1  C   UNL d   1      53.076  33.118  53.226  0.00  0.00     0.288 C 
ATOM      2  N   UNL d   1      50.866  34.146  52.763  0.00  0.00    -0.281 N 
ATOM      3  N   UNL d   1      52.333  33.460  53.071  0.00  0.00    -0.267 N 
ATOM      4  C   UNL d   1      50.923  33.342  52.902  0.00  0.00     0.101 A 
ATOM      5  C   UNL d   1      51.548  34.613  52.778  0.00  0.00     0.101 A 
ATOM      6  C   UNL d   1      51.651  32.993  53.056  0.00  0.00     0.102 A 
ATOM      7  C   UNL d   1      52.287  34.278  52.931  0.00  0.00     0.102 A 
ATOM      8  O   UNL d   1      53.751  33.581  53.241  0.00  0.00    -0.264 OA
ENDROOT
BRANCH   2   9
ATOM      9  C   UNL d   1      50.139  34.495  52.609  0.00  0.00     0.179 A 
ATOM     10  N   UNL d   1      49.717  34.437  51.899  0.00  0.00    -0.222 NA
ATOM     11  C   UNL d   1      49.021  34.865  51.975  0.00  0.00     0.089 A 
ATOM     12  C   UNL d   1      48.403  35.000  51.463  0.00  0.00     0.018 A 
ATOM     13  C   UNL d   1      49.009  35.190  52.734  0.00  0.00     0.050 A 
ATOM     14  C   UNL d   1      47.766  35.460  51.694  0.00  0.00     0.002 A 
ATOM     15  C   UNL d   1      48.416  34.674  50.705  0.00  0.00     0.002 C 
ATOM     16  C   UNL d   1      47.754  35.785  52.452  0.00  0.00     0.001 A 
ATOM     17  C   UNL d   1      48.381  35.647  52.970  0.00  0.00     0.007 A 
ATOM     18  C   UNL d   1      48.367  35.971  53.724  0.00  0.00     0.001 C 
ATOM     19  S   UNL d   1      49.690  34.967  53.126  0.00  0.00    -0.048 SA
ENDBRANCH   2   9
BRANCH   1  20
ATOM     20  C   UNL d   1      53.119  32.305  53.364  0.00  0.00     0.158 A 
ATOM     21  O   UNL d   1      52.913  31.704  52.829  0.00  0.00    -0.281 OA
ATOM     22  C   UNL d   1      53.048  30.979  53.212  0.00  0.00     0.228 A 
ATOM     23  C   UNL d   1      53.330  31.145  53.966  0.00  0.00     0.051 A 
ATOM     24  C   UNL d   1      53.372  31.963  54.056  0.00  0.00     0.034 A 
BRANCH  22  25
ATOM     25  N   UNL d   1      52.922  30.222  52.896  0.00  0.00    -0.089 N 
ATOM     26  O   UNL d   1      52.664  29.600  53.400  0.00  0.00    -0.530 OA
ATOM     27  O   UNL d   1      53.047  30.072  52.100  0.00  0.00    -0.530 OA
ENDBRANCH  22  25
ENDBRANCH   1  20
TORSDOF 3
ENDMDL
MODEL 3
REMARK VINA RESULT:      -8.7      1.198      2.109
REMARK  3 active torsions:
REMARK  status: ('A' for Active; 'I' for Inactive)
REMARK    1  A    between atoms: N_11  and  C_1 
REMARK    2  A    between atoms: N_5  and  C_4 
REMARK    3  A    between atoms: C_7  and  C_10 
REMARK       I    between atoms: C_10  and  N_12 
ROOT
ATOM      1  C   UNL d   1      52.857  32.375  53.465  0.00  0.00     0.288 C 
ATOM      2  N   UNL d   1      50.881  33.759  52.887  0.00  0.00    -0.281 N 
ATOM      3  N   UNL d   1      52.195  32.842  53.272  0.00  0.00    -0.267 N 
ATOM      4  C   UNL d   1      51.558  34.113  53.178  0.00  0.00     0.101 A 
ATOM      5  C   UNL d   1      50.859  32.938  52.787  0.00  0.00     0.101 A 
ATOM      6  C   UNL d   1      52.218  33.663  53.372  0.00  0.00     0.102 A 
ATOM      7  C   UNL d   1      51.513  32.472  52.978  0.00  0.00     0.102 A 
ATOM      8  O   UNL d   1      52.835  31.563  53.366  0.00  0.00    -0.264 OA
ENDROOT
BRANCH   2   9
ATOM      9  C   UNL d   1      50.223  34.208  52.693  0.00  0.00     0.179 A 
ATOM     10  N   UNL d   1      49.826  34.727  53.202  0.00  0.00    -0.222 NA
ATOM     11  C   UNL d   1      49.200  35.065  52.792  0.00  0.00     0.089 A 
ATOM     12  C   UNL d   1      48.632  35.606  53.010  0.00  0.00     0.018 A 
ATOM     13  C   UNL d   1      49.206  34.756  52.026  0.00  0.00     0.050 A 
ATOM     14  C   UNL d   1      48.063  35.848  52.473  0.00  0.00     0.002 A 
ATOM     15  C   UNL d   1      48.626  35.914  53.775  0.00  0.00     0.002 C 
ATOM     16  C   UNL d   1      48.069  35.540  51.708  0.00  0.00     0.001 A 
ATOM     17  C   UNL d   1      48.646  34.992  51.489  0.00  0.00     0.007 A 
ATOM     18  C   UNL d   1      48.650  34.686  50.727  0.00  0.00     0.001 C 
ATOM     19  S   UNL d   1      49.829  34.232  51.960  0.00  0.00    -0.048 SA
ENDBRANCH   2   9
BRANCH   1  20
ATOM     20  C   UNL d   1      53.535  32.746  53.758  0.00  0.00     0.158 A 
ATOM     21  O   UNL d   1      53.662  32.989  54.542  0.00  0.00    -0.281 OA
ATOM     22  C   UNL d   1      54.418  33.333  54.572  0.00  0.00     0.228 A 
ATOM     23  C   UNL d   1      54.738  33.296  53.816  0.00  0.00     0.051 A 
ATOM     24  C   UNL d   1      54.190  32.934  53.317  0.00  0.00     0.034 A 
BRANCH  22  25
ATOM     25  N   UNL d   1      54.788  33.656  55.241  0.00  0.00    -0.089 N 
ATOM     26  O   UNL d   1      55.154  34.411  55.187  0.00  0.00    -0.530 OA
ATOM     27  O   UNL d   1      54.803  33.249  55.952  0.00  0.00    -0.530 OA
ENDBRANCH  22  25
ENDBRANCH   1  20
TORSDOF 3
ENDMDL
MODEL 4
REMARK VINA RESULT:      -8.5      3.112      5.701
REMARK  3 active torsions:
REMARK  status: ('A' for Active; 'I' for Inactive)
REMARK    1  A    between atoms: N_11  and  C_1 
REMARK    2  A    between atoms: N_5  and  C_4 
REMARK    3  A    between atoms: C_7  and  C_10 
REMARK       I    between atoms: C_10  and  N_12 
ROOT
ATOM      1  C   UNL d   1      48.114  35.131  51.641  0.00  0.00     0.288 C 
ATOM      2  N   UNL d   1      50.312  34.459  52.575  0.00  0.00    -0.281 N 
ATOM      3  N   UNL d   1      48.851  34.907  51.957  0.00  0.00    -0.267 N 
ATOM      4  C   UNL d   1      49.799  34.913  53.021  0.00  0.00     0.101 A 
ATOM      5  C   UNL d   1      50.095  34.226  51.812  0.00  0.00     0.101 A 
ATOM      6  C   UNL d   1      49.069  35.141  52.721  0.00  0.00     0.102 A 
ATOM      7  C   UNL d   1      49.364  34.446  51.495  0.00  0.00     0.102 A 
ATOM      8  O   UNL d   1      47.899  34.900  50.886  0.00  0.00    -0.264 OA
ENDROOT
BRANCH   2   9
ATOM      9  C   UNL d   1      51.041  34.232  52.876  0.00  0.00     0.179 A 
ATOM     10  N   UNL d   1      51.583  34.730  53.255  0.00  0.00    -0.222 NA
ATOM     11  C   UNL d   1      52.239  34.285  53.470  0.00  0.00     0.089 A 
ATOM     12  C   UNL d   1      52.931  34.480  53.851  0.00  0.00     0.018 A 
ATOM     13  C   UNL d   1      52.106  33.508  53.223  0.00  0.00     0.050 A 
ATOM     14  C   UNL d   1      53.500  33.909  53.994  0.00  0.00     0.002 A 
ATOM     15  C   UNL d   1      53.062  35.257  54.097  0.00  0.00     0.002 C 
ATOM     16  C   UNL d   1      53.368  33.133  53.748  0.00  0.00     0.001 A 
ATOM     17  C   UNL d   1      52.665  32.938  53.361  0.00  0.00     0.007 A 
ATOM     18  C   UNL d   1      52.535  32.164  53.117  0.00  0.00     0.001 C 
ATOM     19  S   UNL d   1      51.375  33.470  52.860  0.00  0.00    -0.048 SA
ENDBRANCH   2   9
BRANCH   1  20
ATOM     20  C   UNL d   1      47.606  35.590  52.103  0.00  0.00     0.158 A 
ATOM     21  O   UNL d   1      47.061  35.307  52.663  0.00  0.00    -0.281 OA
ATOM     22  C   UNL d   1      46.676  35.969  52.986  0.00  0.00     0.228 A 
ATOM     23  C   UNL d   1      46.987  36.638  52.624  0.00  0.00     0.051 A 
ATOM     24  C   UNL d   1      47.560  36.400  52.080  0.00  0.00     0.034 A 
BRANCH  22  25
ATOM     25  N   UNL d   1      46.085  35.962  53.568  0.00  0.00    -0.089 N 
ATOM     26  O   UNL d   1      46.243  36.296  54.324  0.00  0.00    -0.530 OA
ATOM     27  O   UNL d   1      45.349  35.635  53.417  0.00  0.00    -0.530 OA
ENDBRANCH  22  25
ENDBRANCH   1  20
TORSDOF 3
ENDMDL
MODEL 5
REMARK VINA RESULT:      -7.6      1.711      2.394
REMARK  3 active torsions:
REMARK  status: ('A' for Active; 'I' for Inactive)
REMARK    1  A    between atoms: N_11  and  C_1 
REMARK    2  A    between atoms: N_5  and  C_4 
REMARK    3  A    between atoms: C_7  and  C_10 
REMARK       I    between atoms: C_10  and  N_12 
ROOT
ATOM      1  C   UNL d   1      51.922  33.683  52.613  0.00  0.00     0.288 C 
ATOM      2  N   UNL d   1      49.726  34.833  52.704  0.00  0.00    -0.281 N 
ATOM      3  N   UNL d   1      51.185  34.070  52.647  0.00  0.00    -0.267 N 
ATOM      4  C   UNL d   1      50.201  34.804  53.369  0.00  0.00     0.101 A 
ATOM      5  C   UNL d   1      49.982  34.478  52.002  0.00  0.00     0.101 A 
ATOM      6  C   UNL d   1      50.930  34.425  53.349  0.00  0.00     0.102 A 
ATOM      7  C   UNL d   1      50.712  34.094  51.965  0.00  0.00     0.102 A 
ATOM      8  O   UNL d   1      52.175  33.331  51.918  0.00  0.00    -0.264 OA
ENDROOT
BRANCH   2   9
ATOM      9  C   UNL d   1      48.998  35.212  52.725  0.00  0.00     0.179 A 
ATOM     10  N   UNL d   1      48.710  35.670  53.351  0.00  0.00    -0.222 NA
ATOM     11  C   UNL d   1      47.964  35.947  53.149  0.00  0.00     0.089 A 
ATOM     12  C   UNL d   1      47.429  36.415  53.546  0.00  0.00     0.018 A 
ATOM     13  C   UNL d   1      47.786  35.661  52.395  0.00  0.00     0.050 A 
ATOM     14  C   UNL d   1      46.711  36.606  53.201  0.00  0.00     0.002 A 
ATOM     15  C   UNL d   1      47.607  36.700  54.299  0.00  0.00     0.002 C 
ATOM     16  C   UNL d   1      46.533  36.321  52.448  0.00  0.00     0.001 A 
ATOM     17  C   UNL d   1      47.077  35.846  52.048  0.00  0.00     0.007 A 
ATOM     18  C   UNL d   1      46.899  35.563  51.298  0.00  0.00     0.001 C 
ATOM     19  S   UNL d   1      48.415  35.211  52.131  0.00  0.00    -0.048 SA
ENDBRANCH   2   9
BRANCH   1  20
ATOM     20  C   UNL d   1      52.391  33.660  53.293  0.00  0.00     0.158 A 
ATOM     21  O   UNL d   1      52.837  34.289  53.602  0.00  0.00    -0.281 OA
ATOM     22  C   UNL d   1      53.216  34.007  54.286  0.00  0.00     0.228 A 
ATOM     23  C   UNL d   1      52.998  33.220  54.384  0.00  0.00     0.051 A 
ATOM     24  C   UNL d   1      52.490  33.010  53.769  0.00  0.00     0.034 A 
BRANCH  22  25
ATOM     25  N   UNL d   1      53.722  34.436  54.785  0.00  0.00    -0.089 N 
ATOM     26  O   UNL d   1      53.395  34.965  55.351  0.00  0.00    -0.530 OA
ATOM     27  O   UNL d   1      54.535  34.351  54.733  0.00  0.00    -0.530 OA
ENDBRANCH  22  25
ENDBRANCH   1  20
TORSDOF 3
ENDMDL
MODEL 6
REMARK VINA RESULT:      -6.8      2.799      5.562
REMARK  3 active torsions:
REMARK  status: ('A' for Active; 'I' for Inactive)
REMARK    1  A    between atoms: N_11  and  C_1 
REMARK    2  A    between atoms: N_5  and  C_4 
REMARK    3  A    between atoms: C_7  and  C_10 
REMARK       I    between atoms: C_10  and  N_12 
ROOT
ATOM      1  C   UNL d   1      49.376  35.237  52.905  0.00  0.00     0.288 C 
ATOM      2  N   UNL d   1      51.307  33.694  53.118  0.00  0.00    -0.281 N 
ATOM      3  N   UNL d   1      50.024  34.717  52.974  0.00  0.00    -0.267 N 
ATOM      4  C   UNL d   1      50.797  33.626  52.483  0.00  0.00     0.101 A 
ATOM      5  C   UNL d   1      51.176  34.278  53.688  0.00  0.00     0.101 A 
ATOM      6  C   UNL d   1      50.154  34.132  52.404  0.00  0.00     0.102 A 
ATOM      7  C   UNL d   1      50.535  34.795  53.623  0.00  0.00     0.102 A 
ATOM      8  O   UNL d   1      49.247  35.816  53.470  0.00  0.00    -0.264 OA
ENDROOT
BRANCH   2   9
ATOM      9  C   UNL d   1      51.948  33.188  53.197  0.00  0.00     0.179 A 
ATOM     10  N   UNL d   1      51.948  32.378  53.025  0.00  0.00    -0.222 NA
ATOM     11  C   UNL d   1      52.697  32.079  53.179  0.00  0.00     0.089 A 
ATOM     12  C   UNL d   1      53.012  31.331  53.112  0.00  0.00     0.018 A 
ATOM     13  C   UNL d   1      53.165  32.704  53.447  0.00  0.00     0.050 A 
ATOM     14  C   UNL d   1      53.795  31.192  53.309  0.00  0.00     0.002 A 
ATOM     15  C   UNL d   1      52.543  30.708  52.843  0.00  0.00     0.002 C 
ATOM     16  C   UNL d   1      54.263  31.816  53.577  0.00  0.00     0.001 A 
ATOM     17  C   UNL d   1      53.941  32.573  53.645  0.00  0.00     0.007 A 
ATOM     18  C   UNL d   1      54.409  33.193  53.912  0.00  0.00     0.001 C 
ATOM     19  S   UNL d   1      52.713  33.384  53.460  0.00  0.00    -0.048 SA
ENDBRANCH   2   9
BRANCH   1  20
ATOM     20  C   UNL d   1      48.869  35.157  52.258  0.00  0.00     0.158 A 
ATOM     21  O   UNL d   1      48.066  35.370  52.235  0.00  0.00    -0.281 OA
ATOM     22  C   UNL d   1      47.787  35.188  51.473  0.00  0.00     0.228 A 
ATOM     23  C   UNL d   1      48.416  34.871  51.047  0.00  0.00     0.051 A 
ATOM     24  C   UNL d   1      49.080  34.854  51.535  0.00  0.00     0.034 A 
BRANCH  22  25
ATOM     25  N   UNL d   1      47.017  35.303  51.188  0.00  0.00    -0.089 N 
ATOM     26  O   UNL d   1      46.581  35.980  51.432  0.00  0.00    -0.530 OA
ATOM     27  O   UNL d   1      46.674  34.766  50.672  0.00  0.00    -0.530 OA
ENDBRANCH  22  25
ENDBRANCH   1  20
TORSDOF 3
ENDMDL
