MODEL 1
REMARK VINA RESULT:      88.2      0.000      0.000
REMARK  8 active torsions:
REMARK  status: ('A' for Active; 'I' for Inactive)
REMARK    1  A    between atoms: C_25  and  N_5 
REMARK    2  A    between atoms: C_11  and  C_6 
REMARK       I    between atoms: N_15  and  C_11 
REMARK    3  A    between atoms: C_26  and  N_15 
REMARK    4  A    between atoms: C_17  and  C_26 
REMARK    5  A    between atoms: C_30  and  C_25 
REMARK    6  A    between atoms: O_29  and  C_30 
REMARK    7  A    between atoms: C_32  and  O_29 
REMARK    8  A    between atoms: C_31  and  C_32 
ROOT
ATOM      1  C   UNL d   1     -49.296  27.918  35.294  0.00  0.00     0.155 A 
ATOM      2  C   UNL d   1     -49.340  28.122  34.496  0.00  0.00     0.091 A 
ATOM      3  N   UNL d   1     -48.751  28.301  35.789  0.00  0.00    -0.210 NA
ATOM      4  N   UNL d   1     -48.298  29.087  34.685  0.00  0.00    -0.258 N 
ATOM      5  N   UNL d   1     -49.787  27.341  35.601  0.00  0.00    -0.272 N 
ATOM      6  C   UNL d   1     -50.379  27.155  34.320  0.00  0.00     0.094 A 
ATOM      7  C   UNL d   1     -48.254  28.884  35.483  0.00  0.00     0.152 A 
ATOM      8  C   UNL d   1     -48.839  28.710  34.187  0.00  0.00     0.269 A 
ATOM      9  C   UNL d   1     -50.335  26.951  35.119  0.00  0.00     0.175 A 
ATOM     10  C   UNL d   1     -49.884  27.740  34.003  0.00  0.00     0.016 A 
ATOM     11  C   UNL d   1     -47.715  29.262  35.976  0.00  0.00     0.035 A 
ATOM     12  C   UNL d   1     -47.804  29.672  34.367  0.00  0.00     0.084 A 
ATOM     13  N   UNL d   1     -50.831  26.370  35.424  0.00  0.00    -0.128 N 
ATOM     14  O   UNL d   1     -48.889  28.910  33.380  0.00  0.00    -0.266 OA
ATOM     15  C   UNL d   1     -47.263  30.048  34.872  0.00  0.00     0.019 A 
ATOM     16  C   UNL d   1     -47.218  29.844  35.671  0.00  0.00     0.005 A 
ATOM     17  C   UNL d   1     -47.671  29.059  36.770  0.00  0.00     0.003 C 
ENDROOT
BRANCH   6  18
ATOM     18  C   UNL d   1     -50.928  26.768  33.825  0.00  0.00     0.282 C 
ATOM     19  N   UNL d   1     -50.942  25.945  33.797  0.00  0.00    -0.204 NA
ATOM     20  O   UNL d   1     -51.452  27.214  33.370  0.00  0.00    -0.265 OA
BRANCH  19  21
ATOM     21  C   UNL d   1     -51.484  25.562  33.308  0.00  0.00     0.127 C 
BRANCH  21  22
ATOM     22  C   UNL d   1     -51.538  24.741  33.310  0.00  0.00     0.119 A 
ATOM     23  O   UNL d   1     -52.237  24.303  33.314  0.00  0.00    -0.304 OA
ATOM     24  C   UNL d   1     -52.040  23.502  33.314  0.00  0.00     0.123 A 
ATOM     25  C   UNL d   1     -51.216  23.441  33.310  0.00  0.00     0.029 A 
ATOM     26  C   UNL d   1     -50.910  24.215  33.307  0.00  0.00     0.028 A 
ENDBRANCH  21  22
ENDBRANCH  19  21
ENDBRANCH   6  18
BRANCH   5  27
ATOM     27  C   UNL d   1     -49.743  27.138  36.400  0.00  0.00     0.110 C 
BRANCH  27  28
ATOM     28  C   UNL d   1     -50.424  27.157  36.868  0.00  0.00     0.142 C 
BRANCH  28  29
ATOM     29  O   UNL d   1     -50.455  26.739  37.579  0.00  0.00    -0.298 OA
BRANCH  29  30
ATOM     30  C   UNL d   1     -51.079  26.869  38.099  0.00  0.00     0.168 C 
BRANCH  30  31
ATOM     31  C   UNL d   1     -51.112  26.471  38.823  0.00  0.00     0.261 C 
ATOM     32  O   UNL d   1     -51.474  26.832  39.471  0.00  0.00    -0.281 OA
ENDBRANCH  30  31
ENDBRANCH  29  30
ENDBRANCH  28  29
ENDBRANCH  27  28
ENDBRANCH   5  27
TORSDOF 8
ENDMDL
MODEL 2
REMARK VINA RESULT:      89.0      2.292      3.800
REMARK  8 active torsions:
REMARK  status: ('A' for Active; 'I' for Inactive)
REMARK    1  A    between atoms: C_25  and  N_5 
REMARK    2  A    between atoms: C_11  and  C_6 
REMARK       I    between atoms: N_15  and  C_11 
REMARK    3  A    between atoms: C_26  and  N_15 
REMARK    4  A    between atoms: C_17  and  C_26 
REMARK    5  A    between atoms: C_30  and  C_25 
REMARK    6  A    between atoms: O_29  and  C_30 
REMARK    7  A    between atoms: C_32  and  O_29 
REMARK    8  A    between atoms: C_31  and  C_32 
ROOT
ATOM      1  C   UNL d   1     -47.634  30.631  35.026  0.00  0.00     0.155 A 
ATOM      2  C   UNL d   1     -48.204  30.419  34.468  0.00  0.00     0.091 A 
ATOM      3  N   UNL d   1     -47.372  31.418  35.071  0.00  0.00    -0.210 NA
ATOM      4  N   UNL d   1     -48.250  31.773  34.001  0.00  0.00    -0.258 N 
ATOM      5  N   UNL d   1     -47.326  30.071  35.535  0.00  0.00    -0.272 N 
ATOM      6  C   UNL d   1     -48.149  29.072  34.943  0.00  0.00     0.094 A 
ATOM      7  C   UNL d   1     -47.680  31.985  34.559  0.00  0.00     0.152 A 
ATOM      8  C   UNL d   1     -48.515  30.993  33.951  0.00  0.00     0.269 A 
ATOM      9  C   UNL d   1     -47.579  29.283  35.501  0.00  0.00     0.175 A 
ATOM     10  C   UNL d   1     -48.465  29.636  34.423  0.00  0.00     0.016 A 
ATOM     11  C   UNL d   1     -47.418  32.764  34.607  0.00  0.00     0.035 A 
ATOM     12  C   UNL d   1     -48.566  32.337  33.482  0.00  0.00     0.084 A 
ATOM     13  N   UNL d   1     -47.272  28.716  36.011  0.00  0.00    -0.128 N 
ATOM     14  O   UNL d   1     -49.090  30.771  33.391  0.00  0.00    -0.266 OA
ATOM     15  C   UNL d   1     -48.296  33.120  33.537  0.00  0.00     0.019 A 
ATOM     16  C   UNL d   1     -47.726  33.332  34.095  0.00  0.00     0.005 A 
ATOM     17  C   UNL d   1     -46.852  32.974  35.161  0.00  0.00     0.003 C 
ENDROOT
BRANCH   6  18
ATOM     18  C   UNL d   1     -48.410  28.280  34.900  0.00  0.00     0.282 C 
ATOM     19  N   UNL d   1     -49.149  28.114  34.576  0.00  0.00    -0.204 NA
ATOM     20  O   UNL d   1     -47.927  27.674  35.181  0.00  0.00    -0.265 OA
BRANCH  19  21
ATOM     21  C   UNL d   1     -49.409  27.332  34.533  0.00  0.00     0.127 C 
BRANCH  21  22
ATOM     22  C   UNL d   1     -50.058  27.134  34.068  0.00  0.00     0.119 A 
ATOM     23  O   UNL d   1     -50.601  27.666  33.747  0.00  0.00    -0.304 OA
ATOM     24  C   UNL d   1     -51.162  27.237  33.320  0.00  0.00     0.123 A 
ATOM     25  C   UNL d   1     -50.967  26.436  33.377  0.00  0.00     0.029 A 
ATOM     26  C   UNL d   1     -50.281  26.379  33.843  0.00  0.00     0.028 A 
ENDBRANCH  21  22
ENDBRANCH  19  21
ENDBRANCH   6  18
BRANCH   5  27
ATOM     27  C   UNL d   1     -46.757  30.283  36.093  0.00  0.00     0.110 C 
BRANCH  27  28
ATOM     28  C   UNL d   1     -46.854  30.064  36.885  0.00  0.00     0.142 C 
BRANCH  28  29
ATOM     29  O   UNL d   1     -46.266  30.228  37.439  0.00  0.00    -0.298 OA
BRANCH  29  30
ATOM     30  C   UNL d   1     -46.428  30.142  38.241  0.00  0.00     0.168 C 
BRANCH  30  31
ATOM     31  C   UNL d   1     -45.894  29.755  38.739  0.00  0.00     0.261 C 
ATOM     32  O   UNL d   1     -45.810  30.006  39.521  0.00  0.00    -0.281 OA
ENDBRANCH  30  31
ENDBRANCH  29  30
ENDBRANCH  28  29
ENDBRANCH  27  28
ENDBRANCH   5  27
TORSDOF 8
ENDMDL
MODEL 3
REMARK VINA RESULT:      90.7      1.128      3.339
REMARK  8 active torsions:
REMARK  status: ('A' for Active; 'I' for Inactive)
REMARK    1  A    between atoms: C_25  and  N_5 
REMARK    2  A    between atoms: C_11  and  C_6 
REMARK       I    between atoms: N_15  and  C_11 
REMARK    3  A    between atoms: C_26  and  N_15 
REMARK    4  A    between atoms: C_17  and  C_26 
REMARK    5  A    between atoms: C_30  and  C_25 
REMARK    6  A    between atoms: O_29  and  C_30 
REMARK    7  A    between atoms: C_32  and  O_29 
REMARK    8  A    between atoms: C_31  and  C_32 
ROOT
ATOM      1  C   UNL d   1     -50.174  27.379  36.161  0.00  0.00     0.155 A 
ATOM      2  C   UNL d   1     -50.747  26.786  36.143  0.00  0.00     0.091 A 
ATOM      3  N   UNL d   1     -50.001  27.765  36.875  0.00  0.00    -0.210 NA
ATOM      4  N   UNL d   1     -50.973  26.961  37.547  0.00  0.00    -0.258 N 
ATOM      5  N   UNL d   1     -49.777  27.590  35.479  0.00  0.00    -0.272 N 
ATOM      6  C   UNL d   1     -50.513  26.620  34.742  0.00  0.00     0.094 A 
ATOM      7  C   UNL d   1     -50.400  27.555  37.565  0.00  0.00     0.152 A 
ATOM      8  C   UNL d   1     -51.150  26.574  36.839  0.00  0.00     0.269 A 
ATOM      9  C   UNL d   1     -49.940  27.213  34.760  0.00  0.00     0.175 A 
ATOM     10  C   UNL d   1     -50.920  26.401  35.431  0.00  0.00     0.016 A 
ATOM     11  C   UNL d   1     -50.226  27.940  38.271  0.00  0.00     0.035 A 
ATOM     12  C   UNL d   1     -51.380  26.743  38.236  0.00  0.00     0.084 A 
ATOM     13  N   UNL d   1     -49.542  27.423  34.071  0.00  0.00    -0.128 N 
ATOM     14  O   UNL d   1     -51.727  25.973  36.814  0.00  0.00    -0.266 OA
ATOM     15  C   UNL d   1     -51.197  27.136  38.943  0.00  0.00     0.019 A 
ATOM     16  C   UNL d   1     -50.625  27.730  38.961  0.00  0.00     0.005 A 
ATOM     17  C   UNL d   1     -49.657  28.530  38.289  0.00  0.00     0.003 C 
ENDROOT
BRANCH   6  18
ATOM     18  C   UNL d   1     -50.685  26.233  34.023  0.00  0.00     0.282 C 
ATOM     19  N   UNL d   1     -51.148  25.552  34.027  0.00  0.00    -0.204 NA
ATOM     20  O   UNL d   1     -50.390  26.538  33.315  0.00  0.00    -0.265 OA
BRANCH  19  21
ATOM     21  C   UNL d   1     -51.318  25.170  33.317  0.00  0.00     0.127 C 
BRANCH  21  22
ATOM     22  C   UNL d   1     -51.768  24.481  33.313  0.00  0.00     0.119 A 
ATOM     23  O   UNL d   1     -52.592  24.442  33.309  0.00  0.00    -0.304 OA
ATOM     24  C   UNL d   1     -52.813  23.647  33.307  0.00  0.00     0.123 A 
ATOM     25  C   UNL d   1     -52.124  23.190  33.309  0.00  0.00     0.029 A 
ATOM     26  C   UNL d   1     -51.479  23.715  33.313  0.00  0.00     0.028 A 
ENDBRANCH  21  22
ENDBRANCH  19  21
ENDBRANCH   6  18
BRANCH   5  27
ATOM     27  C   UNL d   1     -49.204  28.184  35.496  0.00  0.00     0.110 C 
BRANCH  27  28
ATOM     28  C   UNL d   1     -48.476  28.065  35.124  0.00  0.00     0.142 C 
BRANCH  28  29
ATOM     29  O   UNL d   1     -47.853  28.592  35.246  0.00  0.00    -0.298 OA
BRANCH  29  30
ATOM     30  C   UNL d   1     -47.978  29.272  35.692  0.00  0.00     0.168 C 
BRANCH  30  31
ATOM     31  C   UNL d   1     -47.455  29.911  35.641  0.00  0.00     0.261 C 
ATOM     32  O   UNL d   1     -47.511  30.433  35.005  0.00  0.00    -0.281 OA
ENDBRANCH  30  31
ENDBRANCH  29  30
ENDBRANCH  28  29
ENDBRANCH  27  28
ENDBRANCH   5  27
TORSDOF 8
ENDMDL
