MODEL 1
REMARK VINA RESULT:      -6.8      0.000      0.000
REMARK  4 active torsions:
REMARK  status: ('A' for Active; 'I' for Inactive)
REMARK    1  A    between atoms: C_13  and  N_1 
REMARK    2  A    between atoms: N_6  and  C_15 
REMARK    3  A    between atoms: C_14  and  C_13 
REMARK    4  A    between atoms: C_15  and  C_14 
ROOT
ATOM      1  C   UNL d   1      53.955  32.840  53.674  0.00  0.00     0.087 C 
ENDROOT
BRANCH   1   2
ATOM      2  N   UNL d   1      53.749  33.487  54.145  0.00  0.00    -0.248 N 
ATOM      3  C   UNL d   1      54.167  33.758  54.778  0.00  0.00     0.208 A 
ATOM      4  N   UNL d   1      53.775  34.393  55.077  0.00  0.00    -0.212 NA
ATOM      5  S   UNL d   1      54.816  33.548  55.128  0.00  0.00    -0.038 SA
ATOM      6  C   UNL d   1      53.121  34.514  54.633  0.00  0.00     0.162 A 
ATOM      7  C   UNL d   1      53.109  33.949  54.054  0.00  0.00     0.286 A 
ATOM      8  O   UNL d   1      52.567  34.055  53.692  0.00  0.00    -0.265 OA
ENDBRANCH   1   2
BRANCH   1   9
ATOM      9  C   UNL d   1      53.553  32.124  53.756  0.00  0.00     0.038 C 
BRANCH   9  10
ATOM     10  C   UNL d   1      53.750  31.480  53.276  0.00  0.00     0.083 C 
BRANCH  10  11
ATOM     11  N   UNL d   1      53.376  30.755  53.386  0.00  0.00    -0.285 N 
ATOM     12  C   UNL d   1      52.687  30.506  53.013  0.00  0.00     0.183 A 
ATOM     13  N   UNL d   1      52.511  29.743  53.288  0.00  0.00    -0.222 NA
ATOM     14  C   UNL d   1      53.088  29.524  53.826  0.00  0.00     0.120 A 
ATOM     15  C   UNL d   1      53.623  30.150  53.887  0.00  0.00     0.102 A 
ENDBRANCH  10  11
ENDBRANCH   9  10
ENDBRANCH   1   9
TORSDOF 4
ENDMDL
MODEL 2
REMARK VINA RESULT:      -6.2      1.453      3.749
REMARK  4 active torsions:
REMARK  status: ('A' for Active; 'I' for Inactive)
REMARK    1  A    between atoms: C_13  and  N_1 
REMARK    2  A    between atoms: N_6  and  C_15 
REMARK    3  A    between atoms: C_14  and  C_13 
REMARK    4  A    between atoms: C_15  and  C_14 
ROOT
ATOM      1  C   UNL d   1      53.932  31.155  53.649  0.00  0.00     0.087 C 
ENDROOT
BRANCH   1   2
ATOM      2  N   UNL d   1      53.355  30.595  53.457  0.00  0.00    -0.248 N 
ATOM      3  C   UNL d   1      53.231  29.899  53.844  0.00  0.00     0.208 A 
ATOM      4  N   UNL d   1      52.621  29.522  53.480  0.00  0.00    -0.212 NA
ATOM      5  S   UNL d   1      53.553  29.550  54.446  0.00  0.00    -0.038 SA
ATOM      6  C   UNL d   1      52.371  29.980  52.874  0.00  0.00     0.162 A 
ATOM      7  C   UNL d   1      52.830  30.646  52.863  0.00  0.00     0.286 A 
ATOM      8  O   UNL d   1      52.618  31.019  52.361  0.00  0.00    -0.265 OA
ENDBRANCH   1   2
BRANCH   1   9
ATOM      9  C   UNL d   1      53.708  31.902  53.921  0.00  0.00     0.038 C 
BRANCH   9  10
ATOM     10  C   UNL d   1      54.272  32.502  53.996  0.00  0.00     0.083 C 
BRANCH  10  11
ATOM     11  N   UNL d   1      54.088  33.192  54.406  0.00  0.00    -0.285 N 
ATOM     12  C   UNL d   1      54.415  33.430  55.121  0.00  0.00     0.183 A 
ATOM     13  N   UNL d   1      54.069  34.155  55.330  0.00  0.00    -0.222 NA
ATOM     14  C   UNL d   1      53.532  34.361  54.746  0.00  0.00     0.120 A 
ATOM     15  C   UNL d   1      53.544  33.765  54.175  0.00  0.00     0.102 A 
ENDBRANCH  10  11
ENDBRANCH   9  10
ENDBRANCH   1   9
TORSDOF 4
ENDMDL
MODEL 3
REMARK VINA RESULT:      -6.1      2.309      3.593
REMARK  4 active torsions:
REMARK  status: ('A' for Active; 'I' for Inactive)
REMARK    1  A    between atoms: C_13  and  N_1 
REMARK    2  A    between atoms: N_6  and  C_15 
REMARK    3  A    between atoms: C_14  and  C_13 
REMARK    4  A    between atoms: C_15  and  C_14 
ROOT
ATOM      1  C   UNL d   1      52.994  32.978  52.955  0.00  0.00     0.087 C 
ENDROOT
BRANCH   1   2
ATOM      2  N   UNL d   1      53.215  32.254  53.288  0.00  0.00    -0.248 N 
ATOM      3  C   UNL d   1      53.659  32.162  53.954  0.00  0.00     0.208 A 
ATOM      4  N   UNL d   1      53.744  31.373  54.083  0.00  0.00    -0.212 NA
ATOM      5  S   UNL d   1      53.992  32.639  54.453  0.00  0.00    -0.038 SA
ATOM      6  C   UNL d   1      53.357  30.981  53.503  0.00  0.00     0.162 A 
ATOM      7  C   UNL d   1      53.029  31.534  53.011  0.00  0.00     0.286 A 
ATOM      8  O   UNL d   1      52.711  31.204  52.534  0.00  0.00    -0.265 OA
ENDBRANCH   1   2
BRANCH   1   9
ATOM      9  C   UNL d   1      52.202  33.214  52.968  0.00  0.00     0.038 C 
BRANCH   9  10
ATOM     10  C   UNL d   1      51.989  33.963  52.690  0.00  0.00     0.083 C 
BRANCH  10  11
ATOM     11  N   UNL d   1      51.194  34.165  52.620  0.00  0.00    -0.285 N 
ATOM     12  C   UNL d   1      50.697  34.389  53.235  0.00  0.00     0.183 A 
ATOM     13  N   UNL d   1      49.947  34.542  52.913  0.00  0.00    -0.222 NA
ATOM     14  C   UNL d   1      49.983  34.413  52.105  0.00  0.00     0.120 A 
ATOM     15  C   UNL d   1      50.754  34.180  51.924  0.00  0.00     0.102 A 
ENDBRANCH  10  11
ENDBRANCH   9  10
ENDBRANCH   1   9
TORSDOF 4
ENDMDL
