MODEL 1
REMARK VINA RESULT:      -7.8      0.000      0.000
REMARK  5 active torsions:
REMARK  status: ('A' for Active; 'I' for Inactive)
REMARK    1  A    between atoms: N_2  and  S_1 
REMARK    2  A    between atoms: C_7  and  S_1 
REMARK    3  A    between atoms: C_3  and  N_2 
REMARK    4  A    between atoms: C_6  and  O_8 
REMARK    5  A    between atoms: O_8  and  C_9 
ROOT
ATOM      1  C   UNL d   1     -47.437  12.972  23.008  0.00  0.00     0.117 A 
ATOM      2  C   UNL d   1     -48.225  13.174  22.874  0.00  0.00     0.118 A 
ATOM      3  C   UNL d   1     -47.272  12.247  23.370  0.00  0.00     0.022 A 
ATOM      4  C   UNL d   1     -48.832  12.667  23.095  0.00  0.00     0.026 A 
ATOM      5  C   UNL d   1     -47.879  11.740  23.590  0.00  0.00     0.002 A 
ATOM      6  C   UNL d   1     -48.666  11.946  23.454  0.00  0.00     0.002 A 
ENDROOT
BRANCH   1   7
ATOM      7  N   UNL d   1     -46.829  13.479  22.788  0.00  0.00    -0.156 NA
BRANCH   7   8
ATOM      8  S   UNL d   1     -46.089  13.178  22.594  0.00  0.00     0.285 S 
ATOM      9  O   UNL d   1     -45.822  13.338  23.377  0.00  0.00    -0.198 OA
ATOM     10  O   UNL d   1     -46.352  13.022  21.826  0.00  0.00    -0.198 OA
BRANCH   8  11
ATOM     11  C   UNL d   1     -45.329  12.870  22.397  0.00  0.00     0.105 A 
ATOM     12  C   UNL d   1     -45.055  12.185  22.779  0.00  0.00     0.013 A 
ATOM     13  C   UNL d   1     -44.309  11.890  22.580  0.00  0.00     0.001 A 
ATOM     14  C   UNL d   1     -43.835  12.276  22.002  0.00  0.00     0.000 A 
ATOM     15  C   UNL d   1     -44.116  12.949  21.634  0.00  0.00     0.001 A 
ATOM     16  C   UNL d   1     -44.855  13.256  21.820  0.00  0.00     0.013 A 
ENDBRANCH   8  11
ENDBRANCH   7   8
ENDBRANCH   1   7
BRANCH   2  17
ATOM     17  O   UNL d   1     -48.392  13.921  22.502  0.00  0.00    -0.306 OA
BRANCH  17  18
ATOM     18  C   UNL d   1     -49.136  14.264  22.557  0.00  0.00     0.100 A 
ATOM     19  C   UNL d   1     -49.747  14.030  22.047  0.00  0.00     0.025 A 
ATOM     20  C   UNL d   1     -50.492  14.388  22.117  0.00  0.00     0.002 A 
ATOM     21  C   UNL d   1     -51.064  14.202  21.675  0.00  0.00     0.000 C 
ATOM     22  C   UNL d   1     -50.627  14.968  22.686  0.00  0.00     0.000 A 
ATOM     23  C   UNL d   1     -50.008  15.193  23.190  0.00  0.00     0.002 A 
ATOM     24  C   UNL d   1     -49.267  14.834  23.117  0.00  0.00     0.025 A 
ATOM     25  C   UNL d   1     -50.206  15.737  23.693  0.00  0.00     0.000 C 
ENDBRANCH  17  18
ENDBRANCH   2  17
TORSDOF 5
ENDMDL
MODEL 2
REMARK VINA RESULT:      -7.1      1.117      4.736
REMARK  5 active torsions:
REMARK  status: ('A' for Active; 'I' for Inactive)
REMARK    1  A    between atoms: N_2  and  S_1 
REMARK    2  A    between atoms: C_7  and  S_1 
REMARK    3  A    between atoms: C_3  and  N_2 
REMARK    4  A    between atoms: C_6  and  O_8 
REMARK    5  A    between atoms: O_8  and  C_9 
ROOT
ATOM      1  C   UNL d   1     -48.502  13.006  22.704  0.00  0.00     0.117 A 
ATOM      2  C   UNL d   1     -47.916  12.486  22.959  0.00  0.00     0.118 A 
ATOM      3  C   UNL d   1     -49.193  12.691  22.377  0.00  0.00     0.022 A 
ATOM      4  C   UNL d   1     -48.016  11.674  22.891  0.00  0.00     0.026 A 
ATOM      5  C   UNL d   1     -49.293  11.879  22.309  0.00  0.00     0.002 A 
ATOM      6  C   UNL d   1     -48.704  11.363  22.566  0.00  0.00     0.002 A 
ENDROOT
BRANCH   1   7
ATOM      7  N   UNL d   1     -48.402  13.819  22.772  0.00  0.00    -0.156 NA
BRANCH   7   8
ATOM      8  S   UNL d   1     -49.056  14.310  22.864  0.00  0.00     0.285 S 
ATOM      9  O   UNL d   1     -48.914  14.637  22.100  0.00  0.00    -0.198 OA
ATOM     10  O   UNL d   1     -49.194  13.988  23.613  0.00  0.00    -0.198 OA
BRANCH   8  11
ATOM     11  C   UNL d   1     -49.726  14.814  22.956  0.00  0.00     0.105 A 
ATOM     12  C   UNL d   1     -49.765  15.325  23.609  0.00  0.00     0.013 A 
ATOM     13  C   UNL d   1     -50.425  15.816  23.691  0.00  0.00     0.001 A 
ATOM     14  C   UNL d   1     -51.046  15.799  23.124  0.00  0.00     0.000 A 
ATOM     15  C   UNL d   1     -50.995  15.290  22.486  0.00  0.00     0.001 A 
ATOM     16  C   UNL d   1     -50.347  14.796  22.389  0.00  0.00     0.013 A 
ENDBRANCH   8  11
ENDBRANCH   7   8
ENDBRANCH   1   7
BRANCH   2  17
ATOM     17  O   UNL d   1     -47.206  12.813  23.296  0.00  0.00    -0.306 OA
BRANCH  17  18
ATOM     18  C   UNL d   1     -46.472  12.478  23.142  0.00  0.00     0.100 A 
ATOM     19  C   UNL d   1     -45.947  12.836  22.608  0.00  0.00     0.025 A 
ATOM     20  C   UNL d   1     -45.211  12.483  22.466  0.00  0.00     0.002 A 
ATOM     21  C   UNL d   1     -44.715  12.777  21.992  0.00  0.00     0.000 C 
ATOM     22  C   UNL d   1     -44.999  11.784  22.849  0.00  0.00     0.000 A 
ATOM     23  C   UNL d   1     -45.532  11.436  23.380  0.00  0.00     0.002 A 
ATOM     24  C   UNL d   1     -46.266  11.791  23.519  0.00  0.00     0.025 A 
ATOM     25  C   UNL d   1     -45.268  10.790  23.698  0.00  0.00     0.000 C 
ENDBRANCH  17  18
ENDBRANCH   2  17
TORSDOF 5
ENDMDL
MODEL 3
REMARK VINA RESULT:      -6.6      8.499     10.037
REMARK  5 active torsions:
REMARK  status: ('A' for Active; 'I' for Inactive)
REMARK    1  A    between atoms: N_2  and  S_1 
REMARK    2  A    between atoms: C_7  and  S_1 
REMARK    3  A    between atoms: C_3  and  N_2 
REMARK    4  A    between atoms: C_6  and  O_8 
REMARK    5  A    between atoms: O_8  and  C_9 
ROOT
ATOM      1  C   UNL d   1     -39.326  14.326  18.443  0.00  0.00     0.117 A 
ATOM      2  C   UNL d   1     -39.481  14.532  19.226  0.00  0.00     0.118 A 
ATOM      3  C   UNL d   1     -39.965  14.169  17.942  0.00  0.00     0.022 A 
ATOM      4  C   UNL d   1     -40.253  14.580  19.503  0.00  0.00     0.026 A 
ATOM      5  C   UNL d   1     -40.736  14.217  18.219  0.00  0.00     0.002 A 
ATOM      6  C   UNL d   1     -40.887  14.424  19.003  0.00  0.00     0.002 A 
ENDROOT
BRANCH   1   7
ATOM      7  N   UNL d   1     -38.554  14.278  18.165  0.00  0.00    -0.156 NA
BRANCH   7   8
ATOM      8  S   UNL d   1     -38.402  14.308  17.357  0.00  0.00     0.285 S 
ATOM      9  O   UNL d   1     -38.394  13.465  17.330  0.00  0.00    -0.198 OA
ATOM     10  O   UNL d   1     -38.410  15.134  17.385  0.00  0.00    -0.198 OA
BRANCH   8  11
ATOM     11  C   UNL d   1     -38.246  14.336  16.529  0.00  0.00     0.105 A 
ATOM     12  C   UNL d   1     -38.158  15.072  16.155  0.00  0.00     0.013 A 
ATOM     13  C   UNL d   1     -38.005  15.090  15.343  0.00  0.00     0.001 A 
ATOM     14  C   UNL d   1     -37.940  14.377  14.903  0.00  0.00     0.000 A 
ATOM     15  C   UNL d   1     -38.028  13.659  15.283  0.00  0.00     0.001 A 
ATOM     16  C   UNL d   1     -38.180  13.623  16.089  0.00  0.00     0.013 A 
ENDBRANCH   8  11
ENDBRANCH   7   8
ENDBRANCH   1   7
BRANCH   2  17
ATOM     17  O   UNL d   1     -38.821  14.693  19.738  0.00  0.00    -0.306 OA
BRANCH  17  18
ATOM     18  C   UNL d   1     -38.904  14.666  20.555  0.00  0.00     0.100 A 
ATOM     19  C   UNL d   1     -38.755  13.963  20.971  0.00  0.00     0.025 A 
ATOM     20  C   UNL d   1     -38.843  13.955  21.796  0.00  0.00     0.002 A 
ATOM     21  C   UNL d   1     -38.718  13.341  22.201  0.00  0.00     0.000 C 
ATOM     22  C   UNL d   1     -39.076  14.634  22.199  0.00  0.00     0.000 A 
ATOM     23  C   UNL d   1     -39.222  15.330  21.772  0.00  0.00     0.002 A 
ATOM     24  C   UNL d   1     -39.132  15.334  20.951  0.00  0.00     0.025 A 
ATOM     25  C   UNL d   1     -39.434  15.920  22.213  0.00  0.00     0.000 C 
ENDBRANCH  17  18
ENDBRANCH   2  17
TORSDOF 5
ENDMDL
MODEL 4
REMARK VINA RESULT:      -6.5      7.884      9.573
REMARK  5 active torsions:
REMARK  status: ('A' for Active; 'I' for Inactive)
REMARK    1  A    between atoms: N_2  and  S_1 
REMARK    2  A    between atoms: C_7  and  S_1 
REMARK    3  A    between atoms: C_3  and  N_2 
REMARK    4  A    between atoms: C_6  and  O_8 
REMARK    5  A    between atoms: O_8  and  C_9 
ROOT
ATOM      1  C   UNL d   1     -39.487  14.481  19.871  0.00  0.00     0.117 A 
ATOM      2  C   UNL d   1     -39.510  14.435  20.693  0.00  0.00     0.118 A 
ATOM      3  C   UNL d   1     -40.203  14.493  19.456  0.00  0.00     0.022 A 
ATOM      4  C   UNL d   1     -40.227  14.402  21.093  0.00  0.00     0.026 A 
ATOM      5  C   UNL d   1     -40.919  14.460  19.855  0.00  0.00     0.002 A 
ATOM      6  C   UNL d   1     -40.937  14.414  20.679  0.00  0.00     0.002 A 
ENDROOT
BRANCH   1   7
ATOM      7  N   UNL d   1     -38.770  14.515  19.471  0.00  0.00    -0.156 NA
BRANCH   7   8
ATOM      8  S   UNL d   1     -38.750  14.448  18.651  0.00  0.00     0.285 S 
ATOM      9  O   UNL d   1     -38.788  15.288  18.585  0.00  0.00    -0.198 OA
ATOM     10  O   UNL d   1     -38.712  13.625  18.717  0.00  0.00    -0.198 OA
BRANCH   8  11
ATOM     11  C   UNL d   1     -38.729  14.383  17.811  0.00  0.00     0.105 A 
ATOM     12  C   UNL d   1     -38.788  15.069  17.347  0.00  0.00     0.013 A 
ATOM     13  C   UNL d   1     -38.767  14.996  16.523  0.00  0.00     0.001 A 
ATOM     14  C   UNL d   1     -38.686  14.241  16.162  0.00  0.00     0.000 A 
ATOM     15  C   UNL d   1     -38.629  13.574  16.630  0.00  0.00     0.001 A 
ATOM     16  C   UNL d   1     -38.648  13.628  17.449  0.00  0.00     0.013 A 
ENDBRANCH   8  11
ENDBRANCH   7   8
ENDBRANCH   1   7
BRANCH   2  17
ATOM     17  O   UNL d   1     -38.772  14.423  21.117  0.00  0.00    -0.306 OA
BRANCH  17  18
ATOM     18  C   UNL d   1     -38.753  14.484  21.935  0.00  0.00     0.100 A 
ATOM     19  C   UNL d   1     -38.758  15.228  22.303  0.00  0.00     0.025 A 
ATOM     20  C   UNL d   1     -38.739  15.270  23.131  0.00  0.00     0.002 A 
ATOM     21  C   UNL d   1     -38.742  15.922  23.495  0.00  0.00     0.000 C 
ATOM     22  C   UNL d   1     -38.715  14.583  23.586  0.00  0.00     0.000 A 
ATOM     23  C   UNL d   1     -38.711  13.846  23.206  0.00  0.00     0.002 A 
ATOM     24  C   UNL d   1     -38.730  13.808  22.381  0.00  0.00     0.025 A 
ATOM     25  C   UNL d   1     -38.689  13.253  23.692  0.00  0.00     0.000 C 
ENDBRANCH  17  18
ENDBRANCH   2  17
TORSDOF 5
ENDMDL
MODEL 5
REMARK VINA RESULT:      -6.4      1.428      2.064
REMARK  5 active torsions:
REMARK  status: ('A' for Active; 'I' for Inactive)
REMARK    1  A    between atoms: N_2  and  S_1 
REMARK    2  A    between atoms: C_7  and  S_1 
REMARK    3  A    between atoms: C_3  and  N_2 
REMARK    4  A    between atoms: C_6  and  O_8 
REMARK    5  A    between atoms: O_8  and  C_9 
ROOT
ATOM      1  C   UNL d   1     -47.257  12.776  22.719  0.00  0.00     0.117 A 
ATOM      2  C   UNL d   1     -48.029  13.064  22.726  0.00  0.00     0.118 A 
ATOM      3  C   UNL d   1     -46.879  12.679  21.991  0.00  0.00     0.022 A 
ATOM      4  C   UNL d   1     -48.415  13.249  22.026  0.00  0.00     0.026 A 
ATOM      5  C   UNL d   1     -47.264  12.864  21.290  0.00  0.00     0.002 A 
ATOM      6  C   UNL d   1     -48.037  13.152  21.302  0.00  0.00     0.002 A 
ENDROOT
BRANCH   1   7
ATOM      7  N   UNL d   1     -46.870  12.591  23.421  0.00  0.00    -0.156 NA
BRANCH   7   8
ATOM      8  S   UNL d   1     -46.287  12.010  23.431  0.00  0.00     0.285 S 
ATOM      9  O   UNL d   1     -46.862  11.441  23.669  0.00  0.00    -0.198 OA
ATOM     10  O   UNL d   1     -45.725  12.569  23.198  0.00  0.00    -0.198 OA
BRANCH   8  11
ATOM     11  C   UNL d   1     -45.692  11.413  23.442  0.00  0.00     0.105 A 
ATOM     12  C   UNL d   1     -44.919  11.604  23.207  0.00  0.00     0.013 A 
ATOM     13  C   UNL d   1     -44.341  11.013  23.221  0.00  0.00     0.001 A 
ATOM     14  C   UNL d   1     -44.532  10.232  23.469  0.00  0.00     0.000 A 
ATOM     15  C   UNL d   1     -45.297  10.058  23.698  0.00  0.00     0.001 A 
ATOM     16  C   UNL d   1     -45.883  10.633  23.690  0.00  0.00     0.013 A 
ENDBRANCH   8  11
ENDBRANCH   7   8
ENDBRANCH   1   7
BRANCH   2  17
ATOM     17  O   UNL d   1     -48.415  13.163  23.479  0.00  0.00    -0.306 OA
BRANCH  17  18
ATOM     18  C   UNL d   1     -49.228  13.268  23.526  0.00  0.00     0.100 A 
ATOM     19  C   UNL d   1     -49.554  14.031  23.546  0.00  0.00     0.025 A 
ATOM     20  C   UNL d   1     -50.377  14.119  23.594  0.00  0.00     0.002 A 
ATOM     21  C   UNL d   1     -50.705  14.789  23.615  0.00  0.00     0.000 C 
ATOM     22  C   UNL d   1     -50.869  13.457  23.621  0.00  0.00     0.000 A 
ATOM     23  C   UNL d   1     -50.531  12.701  23.599  0.00  0.00     0.002 A 
ATOM     24  C   UNL d   1     -49.710  12.618  23.552  0.00  0.00     0.025 A 
ATOM     25  C   UNL d   1     -51.048  12.134  23.627  0.00  0.00     0.000 C 
ENDBRANCH  17  18
ENDBRANCH   2  17
TORSDOF 5
ENDMDL
MODEL 6
REMARK VINA RESULT:      -6.3      8.585     10.374
REMARK  5 active torsions:
REMARK  status: ('A' for Active; 'I' for Inactive)
REMARK    1  A    between atoms: N_2  and  S_1 
REMARK    2  A    between atoms: C_7  and  S_1 
REMARK    3  A    between atoms: C_3  and  N_2 
REMARK    4  A    between atoms: C_6  and  O_8 
REMARK    5  A    between atoms: O_8  and  C_9 
ROOT
ATOM      1  C   UNL d   1     -39.234  14.583  19.088  0.00  0.00     0.117 A 
ATOM      2  C   UNL d   1     -39.161  14.546  18.268  0.00  0.00     0.118 A 
ATOM      3  C   UNL d   1     -39.990  14.543  19.419  0.00  0.00     0.022 A 
ATOM      4  C   UNL d   1     -39.825  14.473  17.790  0.00  0.00     0.026 A 
ATOM      5  C   UNL d   1     -40.654  14.470  18.942  0.00  0.00     0.002 A 
ATOM      6  C   UNL d   1     -40.576  14.434  18.121  0.00  0.00     0.002 A 
ENDROOT
BRANCH   1   7
ATOM      7  N   UNL d   1     -38.569  14.656  19.566  0.00  0.00    -0.156 NA
BRANCH   7   8
ATOM      8  S   UNL d   1     -38.618  14.490  20.371  0.00  0.00     0.285 S 
ATOM      9  O   UNL d   1     -38.440  13.681  20.211  0.00  0.00    -0.198 OA
ATOM     10  O   UNL d   1     -38.792  15.283  20.526  0.00  0.00    -0.198 OA
BRANCH   8  11
ATOM     11  C   UNL d   1     -38.667  14.316  21.194  0.00  0.00     0.105 A 
ATOM     12  C   UNL d   1     -38.860  14.922  21.728  0.00  0.00     0.013 A 
ATOM     13  C   UNL d   1     -38.906  14.743  22.534  0.00  0.00     0.001 A 
ATOM     14  C   UNL d   1     -38.760  13.962  22.809  0.00  0.00     0.000 A 
ATOM     15  C   UNL d   1     -38.571  13.375  22.273  0.00  0.00     0.001 A 
ATOM     16  C   UNL d   1     -38.521  13.535  21.469  0.00  0.00     0.013 A 
ENDBRANCH   8  11
ENDBRANCH   7   8
ENDBRANCH   1   7
BRANCH   2  17
ATOM     17  O   UNL d   1     -38.381  14.587  17.930  0.00  0.00    -0.306 OA
BRANCH  17  18
ATOM     18  C   UNL d   1     -38.272  14.592  17.116  0.00  0.00     0.100 A 
ATOM     19  C   UNL d   1     -38.276  15.307  16.695  0.00  0.00     0.025 A 
ATOM     20  C   UNL d   1     -38.165  15.294  15.873  0.00  0.00     0.002 A 
ATOM     21  C   UNL d   1     -38.163  15.917  15.462  0.00  0.00     0.000 C 
ATOM     22  C   UNL d   1     -38.052  14.580  15.477  0.00  0.00     0.000 A 
ATOM     23  C   UNL d   1     -38.050  13.872  15.910  0.00  0.00     0.002 A 
ATOM     24  C   UNL d   1     -38.161  13.890  16.728  0.00  0.00     0.025 A 
ATOM     25  C   UNL d   1     -37.940  13.249  15.476  0.00  0.00     0.000 C 
ENDBRANCH  17  18
ENDBRANCH   2  17
TORSDOF 5
ENDMDL
MODEL 7
REMARK VINA RESULT:      -6.0      8.498      9.592
REMARK  5 active torsions:
REMARK  status: ('A' for Active; 'I' for Inactive)
REMARK    1  A    between atoms: N_2  and  S_1 
REMARK    2  A    between atoms: C_7  and  S_1 
REMARK    3  A    between atoms: C_3  and  N_2 
REMARK    4  A    between atoms: C_6  and  O_8 
REMARK    5  A    between atoms: O_8  and  C_9 
ROOT
ATOM      1  C   UNL d   1     -39.414  14.130  19.270  0.00  0.00     0.117 A 
ATOM      2  C   UNL d   1     -39.066  14.100  20.017  0.00  0.00     0.118 A 
ATOM      3  C   UNL d   1     -39.013  13.783  18.635  0.00  0.00     0.022 A 
ATOM      4  C   UNL d   1     -38.339  13.735  20.129  0.00  0.00     0.026 A 
ATOM      5  C   UNL d   1     -38.286  13.419  18.746  0.00  0.00     0.002 A 
ATOM      6  C   UNL d   1     -37.943  13.392  19.496  0.00  0.00     0.002 A 
ENDROOT
BRANCH   1   7
ATOM      7  N   UNL d   1     -40.142  14.495  19.159  0.00  0.00    -0.156 NA
BRANCH   7   8
ATOM      8  S   UNL d   1     -40.320  14.850  18.439  0.00  0.00     0.285 S 
ATOM      9  O   UNL d   1     -40.696  14.140  18.184  0.00  0.00    -0.198 OA
ATOM     10  O   UNL d   1     -39.951  15.546  18.690  0.00  0.00    -0.198 OA
BRANCH   8  11
ATOM     11  C   UNL d   1     -40.505  15.213  17.700  0.00  0.00     0.105 A 
ATOM     12  C   UNL d   1     -39.899  15.569  17.258  0.00  0.00     0.013 A 
ATOM     13  C   UNL d   1     -40.089  15.921  16.535  0.00  0.00     0.001 A 
ATOM     14  C   UNL d   1     -40.881  15.921  16.252  0.00  0.00     0.000 A 
ATOM     15  C   UNL d   1     -41.468  15.567  16.697  0.00  0.00     0.001 A 
ATOM     16  C   UNL d   1     -41.297  15.212  17.417  0.00  0.00     0.013 A 
ENDBRANCH   8  11
ENDBRANCH   7   8
ENDBRANCH   1   7
BRANCH   2  17
ATOM     17  O   UNL d   1     -39.481  14.457  20.669  0.00  0.00    -0.306 OA
BRANCH  17  18
ATOM     18  C   UNL d   1     -39.161  14.456  21.425  0.00  0.00     0.100 A 
ATOM     19  C   UNL d   1     -39.240  13.791  21.915  0.00  0.00     0.025 A 
ATOM     20  C   UNL d   1     -38.911  13.807  22.676  0.00  0.00     0.002 A 
ATOM     21  C   UNL d   1     -38.962  13.227  23.143  0.00  0.00     0.000 C 
ATOM     22  C   UNL d   1     -38.509  14.475  22.945  0.00  0.00     0.000 A 
ATOM     23  C   UNL d   1     -38.438  15.133  22.446  0.00  0.00     0.002 A 
ATOM     24  C   UNL d   1     -38.767  15.113  21.688  0.00  0.00     0.025 A 
ATOM     25  C   UNL d   1     -38.053  15.716  22.763  0.00  0.00     0.000 C 
ENDBRANCH  17  18
ENDBRANCH   2  17
TORSDOF 5
ENDMDL
