MODEL 1
REMARK VINA RESULT:      10.2      0.000      0.000
REMARK  3 active torsions:
REMARK  status: ('A' for Active; 'I' for Inactive)
REMARK    1  A    between atoms: C_4  and  C_1 
REMARK    2  A    between atoms: O_10  and  C_4 
REMARK    3  A    between atoms: C_13  and  O_10 
ROOT
ATOM      1  C   UNL d   1      46.468 -18.896  42.054  0.00  0.00     0.121 A 
ATOM      2  C   UNL d   1      46.460 -19.622  42.478  0.00  0.00     0.204 A 
ATOM      3  C   UNL d   1      46.458 -19.607  43.293  0.00  0.00     0.057 A 
ATOM      4  N   UNL d   1      46.471 -18.197  43.297  0.00  0.00    -0.244 NA
ATOM      5  C   UNL d   1      46.473 -18.182  42.464  0.00  0.00     0.107 A 
ATOM      6  C   UNL d   1      46.463 -18.894  43.703  0.00  0.00     0.085 A 
ATOM      7  O   UNL d   1      46.454 -20.329  42.072  0.00  0.00    -0.286 OA
ATOM      8  C   UNL d   1      46.450 -20.330  43.710  0.00  0.00     0.005 A 
ATOM      9  C   UNL d   1      46.461 -18.904  44.529  0.00  0.00     0.019 A 
ATOM     10  C   UNL d   1      46.448 -20.325  44.544  0.00  0.00     0.000 A 
ATOM     11  C   UNL d   1      46.454 -19.612  44.954  0.00  0.00     0.002 A 
ENDROOT
BRANCH   1  12
ATOM     12  C   UNL d   1      46.470 -18.901  41.223  0.00  0.00     0.305 C 
ATOM     13  O   UNL d   1      46.532 -19.617  40.811  0.00  0.00    -0.259 OA
BRANCH  12  14
ATOM     14  O   UNL d   1      46.411 -18.208  40.817  0.00  0.00    -0.271 OA
BRANCH  14  15
ATOM     15  C   UNL d   1      46.096 -18.204  40.056  0.00  0.00     0.126 C 
ATOM     16  C   UNL d   1      45.926 -17.482  39.677  0.00  0.00     0.029 C 
ENDBRANCH  14  15
ENDBRANCH  12  14
ENDBRANCH   1  12
TORSDOF 3
ENDMDL
MODEL 2
REMARK VINA RESULT:      10.3      7.088      7.505
REMARK  3 active torsions:
REMARK  status: ('A' for Active; 'I' for Inactive)
REMARK    1  A    between atoms: C_4  and  C_1 
REMARK    2  A    between atoms: O_10  and  C_4 
REMARK    3  A    between atoms: C_13  and  O_10 
ROOT
ATOM      1  C   UNL d   1      43.805 -15.456  36.829  0.00  0.00     0.121 A 
ATOM      2  C   UNL d   1      44.581 -15.733  36.659  0.00  0.00     0.204 A 
ATOM      3  C   UNL d   1      45.219 -15.252  36.818  0.00  0.00     0.057 A 
ATOM      4  N   UNL d   1      44.371 -14.236  37.305  0.00  0.00    -0.244 NA
ATOM      5  C   UNL d   1      43.700 -14.706  37.153  0.00  0.00     0.107 A 
ATOM      6  C   UNL d   1      45.114 -14.503  37.142  0.00  0.00     0.085 A 
ATOM      7  O   UNL d   1      44.685 -16.475  36.338  0.00  0.00    -0.286 OA
ATOM      8  C   UNL d   1      45.987 -15.531  36.648  0.00  0.00     0.005 A 
ATOM      9  C   UNL d   1      45.777 -14.034  37.294  0.00  0.00     0.019 A 
ATOM     10  C   UNL d   1      46.647 -15.047  36.807  0.00  0.00     0.000 A 
ATOM     11  C   UNL d   1      46.542 -14.298  37.131  0.00  0.00     0.002 A 
ENDROOT
BRANCH   1  12
ATOM     12  C   UNL d   1      43.148 -15.939  36.670  0.00  0.00     0.305 C 
ATOM     13  O   UNL d   1      43.254 -16.697  36.354  0.00  0.00    -0.259 OA
BRANCH  12  14
ATOM     14  O   UNL d   1      42.405 -15.670  36.824  0.00  0.00    -0.271 OA
BRANCH  14  15
ATOM     15  C   UNL d   1      41.781 -15.883  36.331  0.00  0.00     0.126 C 
ATOM     16  C   UNL d   1      41.025 -15.550  36.443  0.00  0.00     0.029 C 
ENDBRANCH  14  15
ENDBRANCH  12  14
ENDBRANCH   1  12
TORSDOF 3
ENDMDL
MODEL 3
REMARK VINA RESULT:      11.6      2.209      3.036
REMARK  3 active torsions:
REMARK  status: ('A' for Active; 'I' for Inactive)
REMARK    1  A    between atoms: C_4  and  C_1 
REMARK    2  A    between atoms: O_10  and  C_4 
REMARK    3  A    between atoms: C_13  and  O_10 
ROOT
ATOM      1  C   UNL d   1      46.267 -17.575  43.642  0.00  0.00     0.121 A 
ATOM      2  C   UNL d   1      46.237 -18.393  43.837  0.00  0.00     0.204 A 
ATOM      3  C   UNL d   1      46.364 -18.946  43.252  0.00  0.00     0.057 A 
ATOM      4  N   UNL d   1      46.549 -17.931  42.291  0.00  0.00    -0.244 NA
ATOM      5  C   UNL d   1      46.423 -17.343  42.868  0.00  0.00     0.107 A 
ATOM      6  C   UNL d   1      46.520 -18.715  42.478  0.00  0.00     0.085 A 
ATOM      7  O   UNL d   1      46.082 -18.622  44.604  0.00  0.00    -0.286 OA
ATOM      8  C   UNL d   1      46.333 -19.756  43.449  0.00  0.00     0.005 A 
ATOM      9  C   UNL d   1      46.646 -19.294  41.903  0.00  0.00     0.019 A 
ATOM     10  C   UNL d   1      46.462 -20.330  42.858  0.00  0.00     0.000 A 
ATOM     11  C   UNL d   1      46.618 -20.098  42.084  0.00  0.00     0.002 A 
ENDROOT
BRANCH   1  12
ATOM     12  C   UNL d   1      46.138 -17.004  44.233  0.00  0.00     0.305 C 
ATOM     13  O   UNL d   1      46.545 -17.049  44.953  0.00  0.00    -0.259 OA
BRANCH  12  14
ATOM     14  O   UNL d   1      45.617 -16.404  44.103  0.00  0.00    -0.271 OA
BRANCH  14  15
ATOM     15  C   UNL d   1      45.568 -15.780  44.639  0.00  0.00     0.126 C 
ATOM     16  C   UNL d   1      45.110 -15.108  44.459  0.00  0.00     0.029 C 
ENDBRANCH  14  15
ENDBRANCH  12  14
ENDBRANCH   1  12
TORSDOF 3
ENDMDL
