MODEL 1
REMARK VINA RESULT:      71.7      0.000      0.000
REMARK  7 active torsions:
REMARK  status: ('A' for Active; 'I' for Inactive)
REMARK    1  A    between atoms: C_2  and  C_1 
REMARK    2  A    between atoms: O_13  and  C_11 
REMARK    3  A    between atoms: C_18  and  O_13 
REMARK    4  A    between atoms: C_15  and  C_18 
REMARK       I    between atoms: N_21  and  C_15 
REMARK    5  A    between atoms: C_23  and  C_16 
REMARK    6  A    between atoms: C_26  and  N_21 
REMARK    7  A    between atoms: C_27  and  C_26 
ROOT
ATOM      1  C   UNL d   1     -48.110  29.050  34.944  0.00  0.00     0.087 A 
ATOM      2  C   UNL d   1     -48.867  29.139  34.629  0.00  0.00     0.201 A 
ATOM      3  C   UNL d   1     -49.254  28.477  34.299  0.00  0.00     0.062 A 
ATOM      4  C   UNL d   1     -47.738  28.318  34.935  0.00  0.00     0.128 A 
ATOM      5  C   UNL d   1     -48.882  27.745  34.290  0.00  0.00     0.105 A 
ATOM      6  O   UNL d   1     -48.111  27.651  34.610  0.00  0.00    -0.305 OA
ATOM      7  C   UNL d   1     -50.010  28.567  33.983  0.00  0.00     0.007 A 
ATOM      8  C   UNL d   1     -50.016  27.177  33.649  0.00  0.00     0.102 A 
ATOM      9  C   UNL d   1     -49.254  27.078  33.965  0.00  0.00     0.050 A 
ATOM     10  C   UNL d   1     -50.388  27.909  33.658  0.00  0.00     0.023 A 
ATOM     11  O   UNL d   1     -49.239  29.871  34.638  0.00  0.00    -0.286 OA
ENDROOT
BRANCH   8  12
ATOM     12  O   UNL d   1     -50.394  26.507  33.321  0.00  0.00    -0.302 OA
BRANCH  12  13
ATOM     13  C   UNL d   1     -50.080  25.766  33.442  0.00  0.00     0.158 C 
ATOM     14  C   UNL d   1     -49.264  25.654  33.516  0.00  0.00     0.032 C 
BRANCH  13  15
ATOM     15  C   UNL d   1     -50.587  25.098  33.493  0.00  0.00     0.302 C 
ATOM     16  O   UNL d   1     -51.391  25.212  33.610  0.00  0.00    -0.263 OA
ATOM     17  N   UNL d   1     -50.261  24.360  33.424  0.00  0.00    -0.201 NA
BRANCH  17  18
ATOM     18  C   UNL d   1     -50.685  23.720  33.465  0.00  0.00     0.148 C 
BRANCH  18  19
ATOM     19  C   UNL d   1     -51.613  23.792  33.313  0.00  0.00     0.255 C 
ATOM     20  O   UNL d   1     -52.160  23.305  33.687  0.00  0.00    -0.281 OA
ENDBRANCH  18  19
ENDBRANCH  17  18
ENDBRANCH  13  15
ENDBRANCH  12  13
ENDBRANCH   8  12
BRANCH  10  21
ATOM     21  C   UNL d   1     -51.075  27.960  33.364  0.00  0.00     0.002 C 
ATOM     22  C   UNL d   1     -51.476  28.597  33.428  0.00  0.00     0.000 C 
ENDBRANCH  10  21
BRANCH   1  23
ATOM     23  C   UNL d   1     -47.728  29.710  35.272  0.00  0.00     0.116 A 
ATOM     24  N   UNL d   1     -47.845  30.512  35.204  0.00  0.00    -0.238 NA
ATOM     25  C   UNL d   1     -47.283  30.901  35.667  0.00  0.00     0.088 A 
ATOM     26  C   UNL d   1     -47.182  31.731  35.776  0.00  0.00     0.021 C 
ATOM     27  C   UNL d   1     -46.831  30.361  36.011  0.00  0.00     0.056 A 
ATOM     28  S   UNL d   1     -47.088  29.593  35.780  0.00  0.00    -0.066 SA
ENDBRANCH   1  23
TORSDOF 7
ENDMDL
