MODEL 1
REMARK VINA RESULT:      -3.8      0.000      0.000
REMARK  9 active torsions:
REMARK  status: ('A' for Active; 'I' for Inactive)
REMARK       I    between atoms: N_2  and  C_1 
REMARK    1  A    between atoms: C_16  and  C_1 
REMARK    2  A    between atoms: C_8  and  N_2 
REMARK    3  A    between atoms: N_4  and  C_3 
REMARK    4  A    between atoms: C_17  and  N_4 
REMARK    5  A    between atoms: C_18  and  N_4 
REMARK    6  A    between atoms: C_12  and  O_14 
REMARK    7  A    between atoms: O_14  and  C_21 
REMARK    8  A    between atoms: C_23  and  C_16 
REMARK    9  A    between atoms: C_21  and  C_23 
ROOT
ATOM      1  C   UNL d   1      58.377   0.055  30.121  0.00  0.00     0.328 C 
ATOM      2  N   UNL d   1      57.907   0.116  30.808  0.00  0.00    -0.365 NA
ATOM      3  O   UNL d   1      58.867   0.677  29.909  0.00  0.00    -0.251 OA
ENDROOT
BRANCH   1   4
ATOM      4  C   UNL d   1      58.347  -0.622  29.663  0.00  0.00     0.078 C 
BRANCH   4   5
ATOM      5  C   UNL d   1      59.005  -0.865  29.241  0.00  0.00     0.033 C 
BRANCH   5   6
ATOM      6  C   UNL d   1      59.222  -1.668  29.214  0.00  0.00     0.123 C 
BRANCH   6   7
ATOM      7  O   UNL d   1      59.250  -2.065  28.490  0.00  0.00    -0.305 OA
BRANCH   7   8
ATOM      8  C   UNL d   1      59.442  -2.865  28.481  0.00  0.00     0.100 A 
ATOM      9  C   UNL d   1      58.819  -3.440  28.474  0.00  0.00     0.025 A 
ATOM     10  C   UNL d   1      59.019  -4.251  28.464  0.00  0.00     0.002 A 
ATOM     11  C   UNL d   1      58.407  -4.797  28.457  0.00  0.00     0.000 C 
ATOM     12  C   UNL d   1      59.801  -4.496  28.462  0.00  0.00     0.000 A 
ATOM     13  C   UNL d   1      60.409  -3.938  28.470  0.00  0.00     0.002 A 
ATOM     14  C   UNL d   1      60.235  -3.113  28.479  0.00  0.00     0.025 A 
ENDBRANCH   7   8
ENDBRANCH   6   7
ENDBRANCH   5   6
ENDBRANCH   4   5
ENDBRANCH   1   4
BRANCH   2  15
ATOM     15  C   UNL d   1      57.441   0.168  31.483  0.00  0.00     0.135 A 
ATOM     16  C   UNL d   1      57.672   0.635  32.126  0.00  0.00     0.034 A 
ATOM     17  C   UNL d   1      57.207   0.682  32.789  0.00  0.00     0.020 A 
ATOM     18  C   UNL d   1      56.500   0.268  32.837  0.00  0.00     0.064 A 
ATOM     19  C   UNL d   1      56.256  -0.206  32.194  0.00  0.00     0.020 A 
ATOM     20  C   UNL d   1      56.725  -0.258  31.517  0.00  0.00     0.034 A 
BRANCH  18  21
ATOM     21  N   UNL d   1      56.022   0.313  33.511  0.00  0.00    -0.304 N 
BRANCH  21  22
ATOM     22  C   UNL d   1      56.354   0.580  34.230  0.00  0.00     0.080 C 
ATOM     23  C   UNL d   1      56.401   0.071  34.877  0.00  0.00     0.021 C 
ENDBRANCH  21  22
BRANCH  21  24
ATOM     24  C   UNL d   1      55.230   0.100  33.486  0.00  0.00     0.080 C 
ATOM     25  C   UNL d   1      54.673   0.552  33.881  0.00  0.00     0.021 C 
ENDBRANCH  21  24
ENDBRANCH  18  21
ENDBRANCH   2  15
TORSDOF 9
ENDMDL
MODEL 2
REMARK VINA RESULT:      -2.5      1.030      1.576
REMARK  9 active torsions:
REMARK  status: ('A' for Active; 'I' for Inactive)
REMARK       I    between atoms: N_2  and  C_1 
REMARK    1  A    between atoms: C_16  and  C_1 
REMARK    2  A    between atoms: C_8  and  N_2 
REMARK    3  A    between atoms: N_4  and  C_3 
REMARK    4  A    between atoms: C_17  and  N_4 
REMARK    5  A    between atoms: C_18  and  N_4 
REMARK    6  A    between atoms: C_12  and  O_14 
REMARK    7  A    between atoms: O_14  and  C_21 
REMARK    8  A    between atoms: C_23  and  C_16 
REMARK    9  A    between atoms: C_21  and  C_23 
ROOT
ATOM      1  C   UNL d   1      57.432  -1.015  30.987  0.00  0.00     0.328 C 
ATOM      2  N   UNL d   1      56.997  -0.708  31.631  0.00  0.00    -0.365 NA
ATOM      3  O   UNL d   1      57.400  -1.817  30.823  0.00  0.00    -0.251 OA
ENDROOT
BRANCH   1   4
ATOM      4  C   UNL d   1      57.886  -0.517  30.525  0.00  0.00     0.078 C 
BRANCH   4   5
ATOM      5  C   UNL d   1      57.956  -0.648  29.719  0.00  0.00     0.033 C 
BRANCH   5   6
ATOM      6  C   UNL d   1      58.703  -0.749  29.366  0.00  0.00     0.123 C 
BRANCH   6   7
ATOM      7  O   UNL d   1      58.782  -1.220  28.694  0.00  0.00    -0.305 OA
BRANCH   7   8
ATOM      8  C   UNL d   1      59.426  -1.728  28.636  0.00  0.00     0.100 A 
ATOM      9  C   UNL d   1      59.297  -2.566  28.659  0.00  0.00     0.025 A 
ATOM     10  C   UNL d   1      59.956  -3.077  28.600  0.00  0.00     0.002 A 
ATOM     11  C   UNL d   1      59.817  -3.886  28.624  0.00  0.00     0.000 C 
ATOM     12  C   UNL d   1      60.716  -2.783  28.521  0.00  0.00     0.000 A 
ATOM     13  C   UNL d   1      60.845  -1.969  28.499  0.00  0.00     0.002 A 
ATOM     14  C   UNL d   1      60.198  -1.431  28.556  0.00  0.00     0.025 A 
ENDBRANCH   7   8
ENDBRANCH   6   7
ENDBRANCH   5   6
ENDBRANCH   4   5
ENDBRANCH   1   4
BRANCH   2  15
ATOM     15  C   UNL d   1      56.572  -0.398  32.262  0.00  0.00     0.135 A 
ATOM     16  C   UNL d   1      56.731   0.359  32.553  0.00  0.00     0.034 A 
ATOM     17  C   UNL d   1      56.308   0.658  33.177  0.00  0.00     0.020 A 
ATOM     18  C   UNL d   1      55.713   0.217  33.531  0.00  0.00     0.064 A 
ATOM     19  C   UNL d   1      55.543  -0.549  33.246  0.00  0.00     0.020 A 
ATOM     20  C   UNL d   1      55.971  -0.859  32.612  0.00  0.00     0.034 A 
BRANCH  18  21
ATOM     21  N   UNL d   1      55.278   0.518  34.168  0.00  0.00    -0.304 N 
BRANCH  21  22
ATOM     22  C   UNL d   1      54.466   0.682  34.066  0.00  0.00     0.080 C 
ATOM     23  C   UNL d   1      53.928   0.494  34.663  0.00  0.00     0.021 C 
ENDBRANCH  21  22
BRANCH  21  24
ATOM     24  C   UNL d   1      55.631   0.657  34.896  0.00  0.00     0.080 C 
ATOM     25  C   UNL d   1      55.184   0.615  35.581  0.00  0.00     0.021 C 
ENDBRANCH  21  24
ENDBRANCH  18  21
ENDBRANCH   2  15
TORSDOF 9
ENDMDL
