MODEL 1
REMARK VINA RESULT:      15.1      0.000      0.000
REMARK  4 active torsions:
REMARK  status: ('A' for Active; 'I' for Inactive)
REMARK    1  A    between atoms: C_4  and  C_1 
REMARK    2  A    between atoms: C_9  and  N_2 
REMARK    3  A    between atoms: C_10  and  N_3 
REMARK    4  A    between atoms: O_15  and  C_12 
ROOT
ATOM      1  C   UNL d   1     -41.795-122.558 -52.325  0.00  0.00     0.133 A 
ATOM      2  N   UNL d   1     -41.890-123.068 -51.695  0.00  0.00    -0.290 N 
ATOM      3  N   UNL d   1     -41.875-122.994 -53.014  0.00  0.00    -0.290 N 
ATOM      4  C   UNL d   1     -42.022-123.779 -52.797  0.00  0.00     0.101 A 
ATOM      5  C   UNL d   1     -42.029-123.814 -52.013  0.00  0.00     0.101 A 
ENDROOT
BRANCH   1   6
ATOM      6  C   UNL d   1     -41.648-121.764 -52.152  0.00  0.00     0.036 A 
ATOM      7  C   UNL d   1     -41.891-121.175 -52.693  0.00  0.00     0.047 A 
ATOM      8  C   UNL d   1     -41.744-120.381 -52.520  0.00  0.00     0.218 A 
ATOM      9  O   UNL d   1     -41.988-119.790 -53.064  0.00  0.00    -0.284 OA
ATOM     10  C   UNL d   1     -41.361-120.179 -51.820  0.00  0.00     0.133 A 
ATOM     11  C   UNL d   1     -41.123-120.763 -51.290  0.00  0.00     0.028 A 
ATOM     12  C   UNL d   1     -41.269-121.553 -51.462  0.00  0.00     0.005 A 
BRANCH  10  13
ATOM     13  O   UNL d   1     -41.209-119.371 -51.640  0.00  0.00    -0.325 OA
ATOM     14  C   UNL d   1     -41.422-119.072 -50.902  0.00  0.00     0.181 C 
ENDBRANCH  10  13
ENDBRANCH   1   6
BRANCH   2  15
ATOM     15  C   UNL d   1     -41.903-123.130 -50.859  0.00  0.00     0.066 A 
ATOM     16  C   UNL d   1     -42.517-122.799 -50.431  0.00  0.00     0.018 A 
ATOM     17  C   UNL d   1     -42.548-122.849 -49.615  0.00  0.00     0.002 A 
ATOM     18  C   UNL d   1     -41.942-123.245 -49.202  0.00  0.00     0.000 A 
ATOM     19  C   UNL d   1     -41.310-123.587 -49.631  0.00  0.00     0.002 A 
ATOM     20  C   UNL d   1     -41.296-123.525 -50.465  0.00  0.00     0.018 A 
ENDBRANCH   2  15
BRANCH   3  21
ATOM     21  C   UNL d   1     -41.843-122.822 -53.820  0.00  0.00     0.066 A 
ATOM     22  C   UNL d   1     -42.486-122.479 -54.209  0.00  0.00     0.018 A 
ATOM     23  C   UNL d   1     -42.454-122.311 -54.995  0.00  0.00     0.002 A 
ATOM     24  C   UNL d   1     -41.769-122.479 -55.446  0.00  0.00     0.000 A 
ATOM     25  C   UNL d   1     -41.123-122.824 -55.054  0.00  0.00     0.002 A 
ATOM     26  C   UNL d   1     -41.157-122.995 -54.249  0.00  0.00     0.018 A 
ENDBRANCH   3  21
TORSDOF 4
ENDMDL
MODEL 2
REMARK VINA RESULT:      17.4      1.441      2.945
REMARK  4 active torsions:
REMARK  status: ('A' for Active; 'I' for Inactive)
REMARK    1  A    between atoms: C_4  and  C_1 
REMARK    2  A    between atoms: C_9  and  N_2 
REMARK    3  A    between atoms: C_10  and  N_3 
REMARK    4  A    between atoms: O_15  and  C_12 
ROOT
ATOM      1  C   UNL d   1     -41.619-121.612 -52.590  0.00  0.00     0.133 A 
ATOM      2  N   UNL d   1     -41.443-120.820 -52.499  0.00  0.00    -0.290 N 
ATOM      3  N   UNL d   1     -41.606-121.781 -53.392  0.00  0.00    -0.290 N 
ATOM      4  C   UNL d   1     -41.419-121.081 -53.791  0.00  0.00     0.101 A 
ATOM      5  C   UNL d   1     -41.324-120.517 -53.255  0.00  0.00     0.101 A 
ENDROOT
BRANCH   1   6
ATOM      6  C   UNL d   1     -41.764-122.050 -51.904  0.00  0.00     0.036 A 
ATOM      7  C   UNL d   1     -42.530-122.043 -51.569  0.00  0.00     0.047 A 
ATOM      8  C   UNL d   1     -42.675-122.480 -50.884  0.00  0.00     0.218 A 
ATOM      9  O   UNL d   1     -43.444-122.474 -50.546  0.00  0.00    -0.284 OA
ATOM     10  C   UNL d   1     -42.067-122.916 -50.540  0.00  0.00     0.133 A 
ATOM     11  C   UNL d   1     -41.315-122.920 -50.875  0.00  0.00     0.028 A 
ATOM     12  C   UNL d   1     -41.170-122.485 -51.556  0.00  0.00     0.005 A 
BRANCH  10  13
ATOM     13  O   UNL d   1     -42.211-123.364 -49.842  0.00  0.00    -0.325 OA
ATOM     14  C   UNL d   1     -41.593-123.504 -49.315  0.00  0.00     0.181 C 
ENDBRANCH  10  13
ENDBRANCH   1   6
BRANCH   2  15
ATOM     15  C   UNL d   1     -41.336-120.201 -51.945  0.00  0.00     0.066 A 
ATOM     16  C   UNL d   1     -41.258-120.371 -51.148  0.00  0.00     0.018 A 
ATOM     17  C   UNL d   1     -41.154-119.781 -50.592  0.00  0.00     0.002 A 
ATOM     18  C   UNL d   1     -41.125-118.985 -50.833  0.00  0.00     0.000 A 
ATOM     19  C   UNL d   1     -41.203-118.801 -51.646  0.00  0.00     0.002 A 
ATOM     20  C   UNL d   1     -41.310-119.418 -52.201  0.00  0.00     0.018 A 
ENDBRANCH   2  15
BRANCH   3  21
ATOM     21  C   UNL d   1     -41.732-122.457 -53.847  0.00  0.00     0.066 A 
ATOM     22  C   UNL d   1     -41.135-123.021 -53.947  0.00  0.00     0.018 A 
ATOM     23  C   UNL d   1     -41.258-123.680 -54.392  0.00  0.00     0.002 A 
ATOM     24  C   UNL d   1     -41.994-123.817 -54.768  0.00  0.00     0.000 A 
ATOM     25  C   UNL d   1     -42.592-123.250 -54.667  0.00  0.00     0.002 A 
ATOM     26  C   UNL d   1     -42.464-122.576 -54.211  0.00  0.00     0.018 A 
ENDBRANCH   3  21
TORSDOF 4
ENDMDL
