MODEL 1
REMARK VINA RESULT:      38.4      0.000      0.000
REMARK  4 active torsions:
REMARK  status: ('A' for Active; 'I' for Inactive)
REMARK    1  A    between atoms: C_6  and  C_1 
REMARK    2  A    between atoms: C_16  and  C_6 
REMARK    3  A    between atoms: C_9  and  O_12 
REMARK    4  A    between atoms: O_12  and  C_10 
ROOT
ATOM      1  C   UNL d   1     -50.512  25.555  33.318  0.00  0.00     0.139 A 
ATOM      2  C   UNL d   1     -50.990  24.307  33.317  0.00  0.00     0.064 A 
ATOM      3  C   UNL d   1     -50.294  24.757  33.315  0.00  0.00     0.220 A 
ATOM      4  C   UNL d   1     -51.632  24.822  33.323  0.00  0.00     0.105 A 
ATOM      5  O   UNL d   1     -51.342  25.597  33.324  0.00  0.00    -0.304 OA
ATOM      6  C   UNL d   1     -52.400  24.521  33.327  0.00  0.00     0.050 A 
ATOM      7  C   UNL d   1     -51.115  23.492  33.316  0.00  0.00     0.007 A 
ATOM      8  C   UNL d   1     -52.518  23.710  33.325  0.00  0.00     0.105 A 
ATOM      9  O   UNL d   1     -49.525  24.460  33.309  0.00  0.00    -0.284 OA
ATOM     10  C   UNL d   1     -51.886  23.188  33.319  0.00  0.00     0.025 A 
ENDROOT
BRANCH   1  11
ATOM     11  C   UNL d   1     -49.998  26.197  33.317  0.00  0.00     0.028 C 
BRANCH  11  12
ATOM     12  C   UNL d   1     -49.951  26.704  33.974  0.00  0.00     0.005 A 
ATOM     13  C   UNL d   1     -50.635  26.874  34.393  0.00  0.00     0.021 A 
ATOM     14  C   UNL d   1     -50.599  27.376  35.047  0.00  0.00     0.099 A 
ATOM     15  N   UNL d   1     -49.876  27.704  35.276  0.00  0.00    -0.242 NA
ATOM     16  C   UNL d   1     -49.191  27.529  34.850  0.00  0.00     0.099 A 
ATOM     17  C   UNL d   1     -49.229  27.029  34.199  0.00  0.00     0.021 A 
ENDBRANCH  11  12
ENDBRANCH   1  11
BRANCH   8  18
ATOM     18  O   UNL d   1     -53.289  23.411  33.329  0.00  0.00    -0.273 OA
BRANCH  18  19
ATOM     19  C   UNL d   1     -53.765  23.488  34.006  0.00  0.00     0.300 C 
ATOM     20  O   UNL d   1     -54.514  23.824  33.941  0.00  0.00    -0.259 OA
ATOM     21  C   UNL d   1     -53.483  23.228  34.738  0.00  0.00     0.074 C 
ENDBRANCH  18  19
ENDBRANCH   8  18
TORSDOF 4
ENDMDL
