MODEL 1
REMARK VINA RESULT:      -7.8      0.000      0.000
REMARK  3 active torsions:
REMARK  status: ('A' for Active; 'I' for Inactive)
REMARK    1  A    between atoms: C_11  and  N_1 
REMARK    2  A    between atoms: C_3  and  C_2 
REMARK    3  A    between atoms: C_13  and  C_16 
ROOT
ATOM      1  N   UNL d   1     -47.730  12.994  22.627  0.00  0.00    -0.260 N 
ATOM      2  C   UNL d   1     -48.974  13.455  22.566  0.00  0.00     0.093 A 
ATOM      3  C   UNL d   1     -48.162  12.503  23.077  0.00  0.00     0.153 A 
ATOM      4  C   UNL d   1     -48.210  13.592  22.299  0.00  0.00     0.272 A 
ATOM      5  S   UNL d   1     -48.939  12.779  23.048  0.00  0.00    -0.053 SA
ATOM      6  S   UNL d   1     -47.875  11.845  23.490  0.00  0.00    -0.052 SA
ATOM      7  O   UNL d   1     -47.974  14.207  21.802  0.00  0.00    -0.266 OA
ENDROOT
BRANCH   2   8
ATOM      8  C   UNL d   1     -49.647  13.881  22.405  0.00  0.00     0.068 A 
ATOM      9  C   UNL d   1     -50.175  13.701  21.808  0.00  0.00     0.258 A 
ATOM     10  N   UNL d   1     -50.775  14.239  21.808  0.00  0.00    -0.321 N 
ATOM     11  O   UNL d   1     -50.100  13.064  21.286  0.00  0.00    -0.267 OA
ATOM     12  H   UNL d   1     -51.417  14.244  21.287  0.00  0.00     0.169 HD
ATOM     13  C   UNL d   1     -50.632  14.777  22.418  0.00  0.00     0.059 A 
ATOM     14  C   UNL d   1     -49.939  14.564  22.791  0.00  0.00     0.021 A 
ATOM     15  C   UNL d   1     -51.064  15.447  22.676  0.00  0.00     0.017 A 
ATOM     16  C   UNL d   1     -49.655  15.000  23.422  0.00  0.00     0.002 A 
ATOM     17  C   UNL d   1     -50.070  15.661  23.686  0.00  0.00     0.000 A 
ATOM     18  C   UNL d   1     -50.775  15.885  23.314  0.00  0.00     0.002 A 
ENDBRANCH   2   8
BRANCH   1  19
ATOM     19  C   UNL d   1     -46.934  12.958  22.477  0.00  0.00     0.068 A 
ATOM     20  C   UNL d   1     -46.640  12.570  21.824  0.00  0.00     0.018 A 
ATOM     21  C   UNL d   1     -45.813  12.546  21.688  0.00  0.00     0.008 A 
ATOM     22  C   UNL d   1     -45.310  12.913  22.217  0.00  0.00     0.065 A 
ATOM     23  C   UNL d   1     -45.609  13.307  22.880  0.00  0.00     0.008 A 
ATOM     24  C   UNL d   1     -46.406  13.329  23.009  0.00  0.00     0.018 A 
BRANCH  22  25
ATOM     25  C   UNL d   1     -44.471  12.878  22.063  0.00  0.00     0.211 C 
ATOM     26  O   UNL d   1     -44.053  12.175  22.204  0.00  0.00    -0.644 OA
ATOM     27  O   UNL d   1     -44.072  13.545  21.773  0.00  0.00    -0.644 OA
ENDBRANCH  22  25
ENDBRANCH   1  19
TORSDOF 3
ENDMDL
MODEL 2
REMARK VINA RESULT:      -7.6      1.520      1.850
REMARK  3 active torsions:
REMARK  status: ('A' for Active; 'I' for Inactive)
REMARK    1  A    between atoms: C_11  and  N_1 
REMARK    2  A    between atoms: C_3  and  C_2 
REMARK    3  A    between atoms: C_13  and  C_16 
ROOT
ATOM      1  N   UNL d   1     -46.995  13.331  22.567  0.00  0.00    -0.260 N 
ATOM      2  C   UNL d   1     -48.312  13.410  22.419  0.00  0.00     0.093 A 
ATOM      3  C   UNL d   1     -47.207  14.017  22.905  0.00  0.00     0.153 A 
ATOM      4  C   UNL d   1     -47.662  12.936  22.258  0.00  0.00     0.272 A 
ATOM      5  S   UNL d   1     -48.025  14.078  22.820  0.00  0.00    -0.053 SA
ATOM      6  S   UNL d   1     -46.695  14.557  23.270  0.00  0.00    -0.052 SA
ATOM      7  O   UNL d   1     -47.676  12.210  21.865  0.00  0.00    -0.266 OA
ENDROOT
BRANCH   2   8
ATOM      8  C   UNL d   1     -49.092  13.273  22.233  0.00  0.00     0.068 A 
ATOM      9  C   UNL d   1     -49.453  13.532  21.548  0.00  0.00     0.258 A 
ATOM     10  N   UNL d   1     -50.225  13.299  21.547  0.00  0.00    -0.321 N 
ATOM     11  O   UNL d   1     -49.082  13.967  20.951  0.00  0.00    -0.267 OA
ATOM     12  H   UNL d   1     -50.774  13.454  20.948  0.00  0.00     0.169 HD
ATOM     13  C   UNL d   1     -50.363  12.880  22.245  0.00  0.00     0.059 A 
ATOM     14  C   UNL d   1     -49.671  12.860  22.673  0.00  0.00     0.021 A 
ATOM     15  C   UNL d   1     -51.056  12.511  22.540  0.00  0.00     0.017 A 
ATOM     16  C   UNL d   1     -49.640  12.479  23.397  0.00  0.00     0.002 A 
ATOM     17  C   UNL d   1     -50.313  12.112  23.698  0.00  0.00     0.000 A 
ATOM     18  C   UNL d   1     -51.021  12.127  23.270  0.00  0.00     0.002 A 
ENDBRANCH   2   8
BRANCH   1  19
ATOM     19  C   UNL d   1     -46.249  13.018  22.506  0.00  0.00     0.068 A 
ATOM     20  C   UNL d   1     -45.989  12.436  23.013  0.00  0.00     0.018 A 
ATOM     21  C   UNL d   1     -45.214  12.126  22.932  0.00  0.00     0.008 A 
ATOM     22  C   UNL d   1     -44.727  12.413  22.343  0.00  0.00     0.065 A 
ATOM     23  C   UNL d   1     -44.992  13.005  21.828  0.00  0.00     0.008 A 
ATOM     24  C   UNL d   1     -45.739  13.302  21.907  0.00  0.00     0.018 A 
BRANCH  22  25
ATOM     25  C   UNL d   1     -43.942  12.086  22.275  0.00  0.00     0.211 C 
ATOM     26  O   UNL d   1     -43.409  12.400  21.722  0.00  0.00    -0.644 OA
ATOM     27  O   UNL d   1     -43.710  11.455  22.762  0.00  0.00    -0.644 OA
ENDBRANCH  22  25
ENDBRANCH   1  19
TORSDOF 3
ENDMDL
MODEL 3
REMARK VINA RESULT:      -6.4      8.608     10.018
REMARK  3 active torsions:
REMARK  status: ('A' for Active; 'I' for Inactive)
REMARK    1  A    between atoms: C_11  and  N_1 
REMARK    2  A    between atoms: C_3  and  C_2 
REMARK    3  A    between atoms: C_13  and  C_16 
ROOT
ATOM      1  N   UNL d   1     -39.860  14.820  19.895  0.00  0.00    -0.260 N 
ATOM      2  C   UNL d   1     -39.866  14.715  18.570  0.00  0.00     0.093 A 
ATOM      3  C   UNL d   1     -40.508  14.398  19.717  0.00  0.00     0.153 A 
ATOM      4  C   UNL d   1     -39.445  15.029  19.202  0.00  0.00     0.272 A 
ATOM      5  S   UNL d   1     -40.524  14.326  18.894  0.00  0.00    -0.053 SA
ATOM      6  S   UNL d   1     -41.055  14.095  20.260  0.00  0.00    -0.052 SA
ATOM      7  O   UNL d   1     -38.746  15.465  19.150  0.00  0.00    -0.266 OA
ENDROOT
BRANCH   2   8
ATOM      8  C   UNL d   1     -39.693  14.764  17.778  0.00  0.00     0.068 A 
ATOM      9  C   UNL d   1     -40.003  15.327  17.273  0.00  0.00     0.258 A 
ATOM     10  N   UNL d   1     -39.712  15.210  16.530  0.00  0.00    -0.321 N 
ATOM     11  O   UNL d   1     -40.533  15.922  17.494  0.00  0.00    -0.267 OA
ATOM     12  H   UNL d   1     -39.895  15.666  15.865  0.00  0.00     0.169 HD
ATOM     13  C   UNL d   1     -39.205  14.559  16.556  0.00  0.00     0.059 A 
ATOM     14  C   UNL d   1     -39.187  14.279  17.321  0.00  0.00     0.021 A 
ATOM     15  C   UNL d   1     -38.751  14.188  15.958  0.00  0.00     0.017 A 
ATOM     16  C   UNL d   1     -38.727  13.631  17.516  0.00  0.00     0.002 A 
ATOM     17  C   UNL d   1     -38.276  13.257  16.937  0.00  0.00     0.000 A 
ATOM     18  C   UNL d   1     -38.288  13.534  16.158  0.00  0.00     0.002 A 
ENDBRANCH   2   8
BRANCH   1  19
ATOM     19  C   UNL d   1     -39.598  15.040  20.630  0.00  0.00     0.068 A 
ATOM     20  C   UNL d   1     -39.877  15.712  20.997  0.00  0.00     0.018 A 
ATOM     21  C   UNL d   1     -39.593  15.922  21.758  0.00  0.00     0.008 A 
ATOM     22  C   UNL d   1     -39.038  15.447  22.123  0.00  0.00     0.065 A 
ATOM     23  C   UNL d   1     -38.756  14.764  21.749  0.00  0.00     0.008 A 
ATOM     24  C   UNL d   1     -39.031  14.564  21.016  0.00  0.00     0.018 A 
BRANCH  22  25
ATOM     25  C   UNL d   1     -38.760  15.675  22.897  0.00  0.00     0.211 C 
ATOM     26  O   UNL d   1     -39.305  15.821  23.506  0.00  0.00    -0.644 OA
ATOM     27  O   UNL d   1     -37.947  15.752  23.042  0.00  0.00    -0.644 OA
ENDBRANCH  22  25
ENDBRANCH   1  19
TORSDOF 3
ENDMDL
MODEL 4
REMARK VINA RESULT:      -6.4      9.195      9.916
REMARK  3 active torsions:
REMARK  status: ('A' for Active; 'I' for Inactive)
REMARK    1  A    between atoms: C_11  and  N_1 
REMARK    2  A    between atoms: C_3  and  C_2 
REMARK    3  A    between atoms: C_13  and  C_16 
ROOT
ATOM      1  N   UNL d   1     -38.727  14.737  19.978  0.00  0.00    -0.260 N 
ATOM      2  C   UNL d   1     -39.067  14.947  18.711  0.00  0.00     0.093 A 
ATOM      3  C   UNL d   1     -38.398  15.432  19.781  0.00  0.00     0.153 A 
ATOM      4  C   UNL d   1     -39.147  14.416  19.332  0.00  0.00     0.272 A 
ATOM      5  S   UNL d   1     -38.603  15.575  18.994  0.00  0.00    -0.053 SA
ATOM      6  S   UNL d   1     -37.941  15.912  20.278  0.00  0.00    -0.052 SA
ATOM      7  O   UNL d   1     -39.564  13.704  19.312  0.00  0.00    -0.266 OA
ENDROOT
BRANCH   2   8
ATOM      8  C   UNL d   1     -39.373  14.891  17.960  0.00  0.00     0.068 A 
ATOM      9  C   UNL d   1     -39.017  14.484  17.348  0.00  0.00     0.258 A 
ATOM     10  N   UNL d   1     -39.472  14.544  16.685  0.00  0.00    -0.321 N 
ATOM     11  O   UNL d   1     -38.301  14.073  17.404  0.00  0.00    -0.267 OA
ATOM     12  H   UNL d   1     -39.299  14.207  15.950  0.00  0.00     0.169 HD
ATOM     13  C   UNL d   1     -40.134  15.000  16.874  0.00  0.00     0.059 A 
ATOM     14  C   UNL d   1     -40.081  15.218  17.658  0.00  0.00     0.021 A 
ATOM     15  C   UNL d   1     -40.788  15.243  16.410  0.00  0.00     0.017 A 
ATOM     16  C   UNL d   1     -40.664  15.676  18.002  0.00  0.00     0.002 A 
ATOM     17  C   UNL d   1     -41.312  15.921  17.557  0.00  0.00     0.000 A 
ATOM     18  C   UNL d   1     -41.375  15.706  16.761  0.00  0.00     0.002 A 
ENDBRANCH   2   8
BRANCH   1  19
ATOM     19  C   UNL d   1     -38.687  14.354  20.692  0.00  0.00     0.068 A 
ATOM     20  C   UNL d   1     -39.218  14.512  21.289  0.00  0.00     0.018 A 
ATOM     21  C   UNL d   1     -39.158  14.105  22.020  0.00  0.00     0.008 A 
ATOM     22  C   UNL d   1     -38.566  13.553  22.124  0.00  0.00     0.065 A 
ATOM     23  C   UNL d   1     -38.027  13.394  21.516  0.00  0.00     0.008 A 
ATOM     24  C   UNL d   1     -38.085  13.787  20.813  0.00  0.00     0.018 A 
BRANCH  22  25
ATOM     25  C   UNL d   1     -38.520  13.148  22.874  0.00  0.00     0.211 C 
ATOM     26  O   UNL d   1     -39.051  13.342  23.482  0.00  0.00    -0.644 OA
ATOM     27  O   UNL d   1     -37.947  12.561  22.997  0.00  0.00    -0.644 OA
ENDBRANCH  22  25
ENDBRANCH   1  19
TORSDOF 3
ENDMDL
MODEL 5
REMARK VINA RESULT:      -5.6      8.551     10.085
REMARK  3 active torsions:
REMARK  status: ('A' for Active; 'I' for Inactive)
REMARK    1  A    between atoms: C_11  and  N_1 
REMARK    2  A    between atoms: C_3  and  C_2 
REMARK    3  A    between atoms: C_13  and  C_16 
ROOT
ATOM      1  N   UNL d   1     -39.410  14.889  18.844  0.00  0.00    -0.260 N 
ATOM      2  C   UNL d   1     -39.566  14.937  20.162  0.00  0.00     0.093 A 
ATOM      3  C   UNL d   1     -39.945  15.461  18.975  0.00  0.00     0.153 A 
ATOM      4  C   UNL d   1     -39.159  14.549  19.563  0.00  0.00     0.272 A 
ATOM      5  S   UNL d   1     -40.051  15.501  19.793  0.00  0.00    -0.053 SA
ATOM      6  S   UNL d   1     -40.317  15.920  18.395  0.00  0.00    -0.052 SA
ATOM      7  O   UNL d   1     -38.610  13.941  19.664  0.00  0.00    -0.266 OA
ENDROOT
BRANCH   2   8
ATOM      8  C   UNL d   1     -39.519  14.811  20.964  0.00  0.00     0.068 A 
ATOM      9  C   UNL d   1     -40.010  14.309  21.380  0.00  0.00     0.258 A 
ATOM     10  N   UNL d   1     -39.807  14.320  22.160  0.00  0.00    -0.321 N 
ATOM     11  O   UNL d   1     -40.620  13.860  21.049  0.00  0.00    -0.267 OA
ATOM     12  H   UNL d   1     -40.175  13.885  22.760  0.00  0.00     0.169 HD
ATOM     13  C   UNL d   1     -39.172  14.840  22.249  0.00  0.00     0.059 A 
ATOM     14  C   UNL d   1     -38.988  15.147  21.516  0.00  0.00     0.021 A 
ATOM     15  C   UNL d   1     -38.736  15.070  22.927  0.00  0.00     0.017 A 
ATOM     16  C   UNL d   1     -38.376  15.684  21.432  0.00  0.00     0.002 A 
ATOM     17  C   UNL d   1     -37.940  15.918  22.090  0.00  0.00     0.000 A 
ATOM     18  C   UNL d   1     -38.119  15.612  22.838  0.00  0.00     0.002 A 
ENDBRANCH   2   8
BRANCH   1  19
ATOM     19  C   UNL d   1     -39.118  14.638  18.130  0.00  0.00     0.068 A 
ATOM     20  C   UNL d   1     -38.448  14.966  17.804  0.00  0.00     0.018 A 
ATOM     21  C   UNL d   1     -38.163  14.691  17.065  0.00  0.00     0.008 A 
ATOM     22  C   UNL d   1     -38.565  14.094  16.679  0.00  0.00     0.065 A 
ATOM     23  C   UNL d   1     -39.246  13.760  17.011  0.00  0.00     0.008 A 
ATOM     24  C   UNL d   1     -39.518  14.027  17.723  0.00  0.00     0.018 A 
BRANCH  22  25
ATOM     25  C   UNL d   1     -38.261  13.826  15.928  0.00  0.00     0.211 C 
ATOM     26  O   UNL d   1     -38.288  14.329  15.268  0.00  0.00    -0.644 OA
ATOM     27  O   UNL d   1     -37.940  13.065  15.855  0.00  0.00    -0.644 OA
ENDBRANCH  22  25
ENDBRANCH   1  19
TORSDOF 3
ENDMDL
MODEL 6
REMARK VINA RESULT:      -5.3      7.748     10.683
REMARK  3 active torsions:
REMARK  status: ('A' for Active; 'I' for Inactive)
REMARK    1  A    between atoms: C_11  and  N_1 
REMARK    2  A    between atoms: C_3  and  C_2 
REMARK    3  A    between atoms: C_13  and  C_16 
ROOT
ATOM      1  N   UNL d   1     -39.118  14.328  19.106  0.00  0.00    -0.260 N 
ATOM      2  C   UNL d   1     -38.484  13.856  18.039  0.00  0.00     0.093 A 
ATOM      3  C   UNL d   1     -38.346  14.446  19.247  0.00  0.00     0.153 A 
ATOM      4  C   UNL d   1     -39.230  13.964  18.364  0.00  0.00     0.272 A 
ATOM      5  S   UNL d   1     -37.940  14.156  18.590  0.00  0.00    -0.053 SA
ATOM      6  S   UNL d   1     -38.024  14.794  19.926  0.00  0.00    -0.052 SA
ATOM      7  O   UNL d   1     -39.947  13.750  18.015  0.00  0.00    -0.266 OA
ENDROOT
BRANCH   2   8
ATOM      8  C   UNL d   1     -38.291  13.523  17.322  0.00  0.00     0.068 A 
ATOM      9  C   UNL d   1     -38.100  12.737  17.217  0.00  0.00     0.258 A 
ATOM     10  N   UNL d   1     -37.941  12.601  16.438  0.00  0.00    -0.321 N 
ATOM     11  O   UNL d   1     -38.074  12.170  17.819  0.00  0.00    -0.267 OA
ATOM     12  H   UNL d   1     -37.725  11.872  16.111  0.00  0.00     0.169 HD
ATOM     13  C   UNL d   1     -38.032  13.315  16.033  0.00  0.00     0.059 A 
ATOM     14  C   UNL d   1     -38.248  13.889  16.571  0.00  0.00     0.021 A 
ATOM     15  C   UNL d   1     -37.940  13.506  15.223  0.00  0.00     0.017 A 
ATOM     16  C   UNL d   1     -38.378  14.659  16.327  0.00  0.00     0.002 A 
ATOM     17  C   UNL d   1     -38.290  14.860  15.533  0.00  0.00     0.000 A 
ATOM     18  C   UNL d   1     -38.071  14.284  14.980  0.00  0.00     0.002 A 
ENDBRANCH   2   8
BRANCH   1  19
ATOM     19  C   UNL d   1     -39.744  14.518  19.585  0.00  0.00     0.068 A 
ATOM     20  C   UNL d   1     -40.071  13.973  20.094  0.00  0.00     0.018 A 
ATOM     21  C   UNL d   1     -40.719  14.191  20.581  0.00  0.00     0.008 A 
ATOM     22  C   UNL d   1     -41.014  14.951  20.538  0.00  0.00     0.065 A 
ATOM     23  C   UNL d   1     -40.681  15.504  20.020  0.00  0.00     0.008 A 
ATOM     24  C   UNL d   1     -40.057  15.293  19.552  0.00  0.00     0.018 A 
BRANCH  22  25
ATOM     25  C   UNL d   1     -41.673  15.155  21.041  0.00  0.00     0.211 C 
ATOM     26  O   UNL d   1     -41.998  14.585  21.549  0.00  0.00    -0.644 OA
ATOM     27  O   UNL d   1     -41.990  15.922  21.023  0.00  0.00    -0.644 OA
ENDBRANCH  22  25
ENDBRANCH   1  19
TORSDOF 3
ENDMDL
