MODEL 1
REMARK VINA RESULT:      72.7      0.000      0.000
REMARK  11 active torsions:
REMARK  status: ('A' for Active; 'I' for Inactive)
REMARK    1  A    between atoms: C_14  and  C_3 
REMARK    2  A    between atoms: N_15  and  C_6 
REMARK    3  A    between atoms: N_12  and  C_19 
REMARK    4  A    between atoms: N_13  and  C_20 
REMARK    5  A    between atoms: N_16  and  C_14 
REMARK    6  A    between atoms: C_28  and  N_15 
REMARK    7  A    between atoms: C_23  and  N_16 
REMARK    8  A    between atoms: C_19  and  C_21 
REMARK    9  A    between atoms: C_20  and  C_22 
REMARK   10  A    between atoms: C_21  and  C_23 
REMARK   11  A    between atoms: C_22  and  C_28 
ROOT
ATOM      1  N   UNL d   1      43.380 -16.080  37.678  0.00  0.00    -0.258 N 
ATOM      2  C   UNL d   1      43.913 -16.330  38.270  0.00  0.00     0.270 A 
ATOM      3  C   UNL d   1      44.697 -16.453  38.093  0.00  0.00     0.111 A 
ATOM      4  N   UNL d   1      44.462 -16.087  36.746  0.00  0.00    -0.209 NA
ATOM      5  C   UNL d   1      43.657 -15.957  36.910  0.00  0.00     0.152 A 
ATOM      6  C   UNL d   1      44.974 -16.330  37.326  0.00  0.00     0.170 A 
ATOM      7  C   UNL d   1      42.602 -15.959  37.856  0.00  0.00     0.084 A 
ATOM      8  C   UNL d   1      43.152 -15.716  36.332  0.00  0.00     0.038 A 
ATOM      9  C   UNL d   1      42.075 -15.710  37.266  0.00  0.00     0.018 A 
ATOM     10  C   UNL d   1      42.352 -15.588  36.499  0.00  0.00     0.005 A 
ATOM     11  O   UNL d   1      43.632 -16.454  39.048  0.00  0.00    -0.266 OA
ATOM     12  C   UNL d   1      41.280 -15.584  37.439  0.00  0.00     0.002 C 
ENDROOT
BRANCH   3  13
ATOM     13  C   UNL d   1      45.218 -16.700  38.682  0.00  0.00     0.107 C 
BRANCH  13  14
ATOM     14  N   UNL d   1      45.022 -17.358  39.161  0.00  0.00    -0.242 NA
BRANCH  14  15
ATOM     15  C   UNL d   1      45.621 -17.834  39.468  0.00  0.00     0.101 C 
BRANCH  15  16
ATOM     16  C   UNL d   1      45.432 -18.548  39.821  0.00  0.00     0.040 C 
BRANCH  16  17
ATOM     17  C   UNL d   1      46.001 -18.955  40.292  0.00  0.00     0.082 C 
BRANCH  17  18
ATOM     18  N   UNL d   1      46.078 -18.784  41.090  0.00  0.00    -0.299 N 
ATOM     19  C   UNL d   1      45.993 -18.019  41.355  0.00  0.00     0.107 A 
ATOM     20  C   UNL d   1      46.071 -17.845  42.170  0.00  0.00     0.142 A 
ATOM     21  O   UNL d   1      46.232 -18.439  42.702  0.00  0.00    -0.300 OA
ATOM     22  C   UNL d   1      46.319 -19.229  42.430  0.00  0.00     0.142 A 
ATOM     23  C   UNL d   1      46.242 -19.401  41.627  0.00  0.00     0.107 A 
ENDBRANCH  17  18
ENDBRANCH  16  17
ENDBRANCH  15  16
ENDBRANCH  14  15
ENDBRANCH  13  14
ENDBRANCH   3  13
BRANCH   6  24
ATOM     24  N   UNL d   1      45.768 -16.457  37.158  0.00  0.00    -0.225 NA
BRANCH  24  25
ATOM     25  C   UNL d   1      46.140 -16.005  36.551  0.00  0.00     0.102 C 
BRANCH  25  26
ATOM     26  C   UNL d   1      46.606 -15.361  36.756  0.00  0.00     0.040 C 
BRANCH  26  27
ATOM     27  C   UNL d   1      46.524 -14.638  36.330  0.00  0.00     0.082 C 
BRANCH  27  28
ATOM     28  N   UNL d   1      46.475 -13.929  36.756  0.00  0.00    -0.299 N 
ATOM     29  C   UNL d   1      46.644 -13.216  36.364  0.00  0.00     0.107 A 
ATOM     30  C   UNL d   1      46.605 -12.498  36.758  0.00  0.00     0.142 A 
ATOM     31  O   UNL d   1      46.392 -12.498  37.561  0.00  0.00    -0.300 OA
ATOM     32  C   UNL d   1      46.224 -13.206  37.950  0.00  0.00     0.142 A 
ATOM     33  C   UNL d   1      46.269 -13.914  37.537  0.00  0.00     0.107 A 
ENDBRANCH  27  28
ENDBRANCH  26  27
ENDBRANCH  25  26
ENDBRANCH  24  25
ENDBRANCH   6  24
TORSDOF 11
ENDMDL
