MODEL 1
REMARK VINA RESULT:      78.5      0.000      0.000
REMARK  5 active torsions:
REMARK  status: ('A' for Active; 'I' for Inactive)
REMARK    1  A    between atoms: C_2  and  C_1 
REMARK    2  A    between atoms: O_16  and  C_12 
REMARK    3  A    between atoms: C_21  and  C_14 
REMARK    4  A    between atoms: C_17  and  O_16 
REMARK    5  A    between atoms: C_24  and  C_21 
ROOT
ATOM      1  C   UNL d   1     -49.529  27.827  34.522  0.00  0.00     0.086 A 
ATOM      2  C   UNL d   1     -49.290  28.547  34.210  0.00  0.00     0.201 A 
ATOM      3  C   UNL d   1     -48.757  29.030  34.654  0.00  0.00     0.062 A 
ATOM      4  C   UNL d   1     -49.260  27.574  35.254  0.00  0.00     0.105 A 
ATOM      5  C   UNL d   1     -48.480  28.769  35.406  0.00  0.00     0.105 A 
ATOM      6  O   UNL d   1     -48.743  28.033  35.694  0.00  0.00    -0.307 OA
ATOM      7  C   UNL d   1     -48.518  29.748  34.341  0.00  0.00     0.007 A 
ATOM      8  C   UNL d   1     -47.971  29.235  35.826  0.00  0.00     0.050 A 
ATOM      9  C   UNL d   1     -47.731  29.953  35.514  0.00  0.00     0.105 A 
ATOM     10  C   UNL d   1     -48.001  30.207  34.783  0.00  0.00     0.023 A 
ATOM     11  O   UNL d   1     -49.570  28.778  33.481  0.00  0.00    -0.286 OA
ATOM     12  C   UNL d   1     -49.512  26.836  35.564  0.00  0.00     0.027 C 
ENDROOT
BRANCH   1  13
ATOM     13  C   UNL d   1     -50.049  27.340  34.106  0.00  0.00     0.116 A 
ATOM     14  N   UNL d   1     -50.880  27.333  34.032  0.00  0.00    -0.238 NA
ATOM     15  C   UNL d   1     -51.095  26.717  33.542  0.00  0.00     0.088 A 
ATOM     16  C   UNL d   1     -51.868  26.500  33.312  0.00  0.00     0.021 C 
ATOM     17  C   UNL d   1     -50.435  26.340  33.307  0.00  0.00     0.056 A 
ATOM     18  S   UNL d   1     -49.767  26.719  33.652  0.00  0.00    -0.066 SA
ENDBRANCH   1  13
BRANCH  10  19
ATOM     19  C   UNL d   1     -47.723  30.961  34.502  0.00  0.00     0.002 C 
BRANCH  19  20
ATOM     20  C   UNL d   1     -48.276  31.552  34.288  0.00  0.00     0.000 C 
ATOM     21  C   UNL d   1     -48.018  32.290  34.026  0.00  0.00     0.000 C 
ENDBRANCH  19  20
ENDBRANCH  10  19
BRANCH   9  22
ATOM     22  O   UNL d   1     -47.202  30.432  35.957  0.00  0.00    -0.273 OA
BRANCH  22  23
ATOM     23  C   UNL d   1     -46.708  30.061  36.532  0.00  0.00     0.300 C 
ATOM     24  O   UNL d   1     -46.037  29.701  36.271  0.00  0.00    -0.259 OA
ATOM     25  C   UNL d   1     -46.939  30.084  37.351  0.00  0.00     0.074 C 
ENDBRANCH  22  23
ENDBRANCH   9  22
TORSDOF 5
ENDMDL
MODEL 2
REMARK VINA RESULT:      78.5      1.254      2.417
REMARK  5 active torsions:
REMARK  status: ('A' for Active; 'I' for Inactive)
REMARK    1  A    between atoms: C_2  and  C_1 
REMARK    2  A    between atoms: O_16  and  C_12 
REMARK    3  A    between atoms: C_21  and  C_14 
REMARK    4  A    between atoms: C_17  and  O_16 
REMARK    5  A    between atoms: C_24  and  C_21 
ROOT
ATOM      1  C   UNL d   1     -50.332  26.872  33.778  0.00  0.00     0.086 A 
ATOM      2  C   UNL d   1     -49.582  27.018  34.076  0.00  0.00     0.201 A 
ATOM      3  C   UNL d   1     -49.341  27.817  34.209  0.00  0.00     0.062 A 
ATOM      4  C   UNL d   1     -50.846  27.488  33.610  0.00  0.00     0.105 A 
ATOM      5  C   UNL d   1     -49.870  28.450  34.036  0.00  0.00     0.105 A 
ATOM      6  O   UNL d   1     -50.625  28.267  33.735  0.00  0.00    -0.307 OA
ATOM      7  C   UNL d   1     -48.592  27.962  34.506  0.00  0.00     0.007 A 
ATOM      8  C   UNL d   1     -49.635  29.211  34.165  0.00  0.00     0.050 A 
ATOM      9  C   UNL d   1     -48.886  29.358  34.462  0.00  0.00     0.105 A 
ATOM     10  C   UNL d   1     -48.372  28.742  34.630  0.00  0.00     0.023 A 
ATOM     11  O   UNL d   1     -49.088  26.391  34.236  0.00  0.00    -0.286 OA
ATOM     12  C   UNL d   1     -51.611  27.326  33.306  0.00  0.00     0.027 C 
ENDROOT
BRANCH   1  13
ATOM     13  C   UNL d   1     -50.587  26.099  33.641  0.00  0.00     0.116 A 
ATOM     14  N   UNL d   1     -51.333  25.732  33.704  0.00  0.00    -0.238 NA
ATOM     15  C   UNL d   1     -51.257  24.946  33.495  0.00  0.00     0.088 A 
ATOM     16  C   UNL d   1     -51.859  24.368  33.477  0.00  0.00     0.021 C 
ATOM     17  C   UNL d   1     -50.497  24.808  33.306  0.00  0.00     0.056 A 
ATOM     18  S   UNL d   1     -50.061  25.523  33.392  0.00  0.00    -0.066 SA
ENDBRANCH   1  13
BRANCH  10  19
ATOM     19  C   UNL d   1     -47.604  28.946  34.938  0.00  0.00     0.002 C 
BRANCH  19  20
ATOM     20  C   UNL d   1     -47.545  29.359  35.663  0.00  0.00     0.000 C 
ATOM     21  C   UNL d   1     -46.807  29.518  35.995  0.00  0.00     0.000 C 
ENDBRANCH  19  20
ENDBRANCH  10  19
BRANCH   9  22
ATOM     22  O   UNL d   1     -48.649  30.152  34.593  0.00  0.00    -0.273 OA
BRANCH  22  23
ATOM     23  C   UNL d   1     -49.052  30.768  34.179  0.00  0.00     0.300 C 
ATOM     24  O   UNL d   1     -49.758  30.586  33.837  0.00  0.00    -0.259 OA
ATOM     25  C   UNL d   1     -48.699  31.541  34.143  0.00  0.00     0.074 C 
ENDBRANCH  22  23
ENDBRANCH   9  22
TORSDOF 5
ENDMDL
MODEL 3
REMARK VINA RESULT:      80.4      3.788      5.629
REMARK  5 active torsions:
REMARK  status: ('A' for Active; 'I' for Inactive)
REMARK    1  A    between atoms: C_2  and  C_1 
REMARK    2  A    between atoms: O_16  and  C_12 
REMARK    3  A    between atoms: C_21  and  C_14 
REMARK    4  A    between atoms: C_17  and  O_16 
REMARK    5  A    between atoms: C_24  and  C_21 
ROOT
ATOM      1  C   UNL d   1     -51.595  26.470  36.858  0.00  0.00     0.086 A 
ATOM      2  C   UNL d   1     -51.134  26.576  36.189  0.00  0.00     0.201 A 
ATOM      3  C   UNL d   1     -51.391  26.242  35.456  0.00  0.00     0.062 A 
ATOM      4  C   UNL d   1     -52.296  26.046  36.825  0.00  0.00     0.105 A 
ATOM      5  C   UNL d   1     -52.112  25.807  35.422  0.00  0.00     0.105 A 
ATOM      6  O   UNL d   1     -52.556  25.718  36.121  0.00  0.00    -0.307 OA
ATOM      7  C   UNL d   1     -50.930  26.349  34.787  0.00  0.00     0.007 A 
ATOM      8  C   UNL d   1     -52.353  25.490  34.720  0.00  0.00     0.050 A 
ATOM      9  C   UNL d   1     -51.893  25.596  34.050  0.00  0.00     0.105 A 
ATOM     10  C   UNL d   1     -51.191  26.020  34.083  0.00  0.00     0.023 A 
ATOM     11  O   UNL d   1     -50.441  27.000  36.245  0.00  0.00    -0.286 OA
ATOM     12  C   UNL d   1     -52.759  25.944  37.517  0.00  0.00     0.027 C 
ENDROOT
BRANCH   1  13
ATOM     13  C   UNL d   1     -51.362  26.787  37.584  0.00  0.00     0.116 A 
ATOM     14  N   UNL d   1     -51.482  27.533  37.938  0.00  0.00    -0.238 NA
ATOM     15  C   UNL d   1     -51.122  27.536  38.671  0.00  0.00     0.088 A 
ATOM     16  C   UNL d   1     -51.100  28.166  39.220  0.00  0.00     0.021 C 
ATOM     17  C   UNL d   1     -50.783  26.827  38.789  0.00  0.00     0.056 A 
ATOM     18  S   UNL d   1     -50.925  26.342  38.115  0.00  0.00    -0.066 SA
ENDBRANCH   1  13
BRANCH  10  19
ATOM     19  C   UNL d   1     -50.749  26.102  33.361  0.00  0.00     0.002 C 
BRANCH  19  20
ATOM     20  C   UNL d   1     -50.069  26.591  33.346  0.00  0.00     0.000 C 
ATOM     21  C   UNL d   1     -49.315  26.257  33.306  0.00  0.00     0.000 C 
ENDBRANCH  19  20
ENDBRANCH  10  19
BRANCH   9  22
ATOM     22  O   UNL d   1     -52.150  25.264  33.324  0.00  0.00    -0.273 OA
BRANCH  22  23
ATOM     23  C   UNL d   1     -52.558  24.525  33.340  0.00  0.00     0.300 C 
ATOM     24  O   UNL d   1     -53.361  24.544  33.388  0.00  0.00    -0.259 OA
ATOM     25  C   UNL d   1     -52.107  23.803  33.306  0.00  0.00     0.074 C 
ENDBRANCH  22  23
ENDBRANCH   9  22
TORSDOF 5
ENDMDL
MODEL 4
REMARK VINA RESULT:      81.5      1.903      4.704
REMARK  5 active torsions:
REMARK  status: ('A' for Active; 'I' for Inactive)
REMARK    1  A    between atoms: C_2  and  C_1 
REMARK    2  A    between atoms: O_16  and  C_12 
REMARK    3  A    between atoms: C_21  and  C_14 
REMARK    4  A    between atoms: C_17  and  O_16 
REMARK    5  A    between atoms: C_24  and  C_21 
ROOT
ATOM      1  C   UNL d   1     -48.440  27.997  34.961  0.00  0.00     0.086 A 
ATOM      2  C   UNL d   1     -49.190  27.988  34.632  0.00  0.00     0.201 A 
ATOM      3  C   UNL d   1     -49.486  27.268  34.303  0.00  0.00     0.062 A 
ATOM      4  C   UNL d   1     -47.977  27.320  34.976  0.00  0.00     0.105 A 
ATOM      5  C   UNL d   1     -49.011  26.572  34.318  0.00  0.00     0.105 A 
ATOM      6  O   UNL d   1     -48.252  26.615  34.661  0.00  0.00    -0.307 OA
ATOM      7  C   UNL d   1     -50.236  27.260  33.974  0.00  0.00     0.007 A 
ATOM      8  C   UNL d   1     -49.298  25.887  34.003  0.00  0.00     0.050 A 
ATOM      9  C   UNL d   1     -50.048  25.877  33.674  0.00  0.00     0.105 A 
ATOM     10  C   UNL d   1     -50.511  26.554  33.659  0.00  0.00     0.023 A 
ATOM     11  O   UNL d   1     -49.632  28.672  34.629  0.00  0.00    -0.286 OA
ATOM     12  C   UNL d   1     -47.210  27.341  35.316  0.00  0.00     0.027 C 
ENDROOT
BRANCH   1  13
ATOM     13  C   UNL d   1     -48.131  28.689  35.287  0.00  0.00     0.116 A 
ATOM     14  N   UNL d   1     -47.734  29.342  34.953  0.00  0.00    -0.238 NA
ATOM     15  C   UNL d   1     -47.555  29.873  35.548  0.00  0.00     0.088 A 
ATOM     16  C   UNL d   1     -47.159  30.604  35.470  0.00  0.00     0.021 C 
ATOM     17  C   UNL d   1     -47.824  29.579  36.237  0.00  0.00     0.056 A 
ATOM     18  S   UNL d   1     -48.189  28.835  36.092  0.00  0.00    -0.066 SA
ENDBRANCH   1  13
BRANCH  10  19
ATOM     19  C   UNL d   1     -51.283  26.494  33.306  0.00  0.00     0.002 C 
BRANCH  19  20
ATOM     20  C   UNL d   1     -51.935  26.874  33.669  0.00  0.00     0.000 C 
ATOM     21  C   UNL d   1     -52.689  26.816  33.340  0.00  0.00     0.000 C 
ENDBRANCH  19  20
ENDBRANCH  10  19
BRANCH   9  22
ATOM     22  O   UNL d   1     -50.340  25.161  33.348  0.00  0.00    -0.273 OA
BRANCH  22  23
ATOM     23  C   UNL d   1     -50.003  24.432  33.609  0.00  0.00     0.300 C 
ATOM     24  O   UNL d   1     -49.287  24.223  33.307  0.00  0.00    -0.259 OA
ATOM     25  C   UNL d   1     -50.432  23.959  34.173  0.00  0.00     0.074 C 
ENDBRANCH  22  23
ENDBRANCH   9  22
TORSDOF 5
ENDMDL
