MODEL 1
REMARK VINA RESULT:      28.1      0.000      0.000
REMARK  3 active torsions:
REMARK  status: ('A' for Active; 'I' for Inactive)
REMARK    1  A    between atoms: C_6  and  C_1 
REMARK    2  A    between atoms: O_19  and  C_9 
REMARK    3  A    between atoms: O_20  and  C_13 
ROOT
ATOM      1  C   UNL d   1      46.165 -17.786  43.617  0.00  0.00     0.064 A 
ATOM      2  C   UNL d   1      46.225 -17.908  42.797  0.00  0.00     0.007 A 
ATOM      3  C   UNL d   1      46.248 -18.431  44.138  0.00  0.00     0.300 A 
ATOM      4  C   UNL d   1      46.366 -18.665  42.498  0.00  0.00     0.026 A 
ATOM      5  O   UNL d   1      46.391 -19.201  43.842  0.00  0.00    -0.273 OA
ATOM      6  C   UNL d   1      46.449 -19.310  43.019  0.00  0.00     0.103 A 
ATOM      7  O   UNL d   1      46.189 -18.312  44.955  0.00  0.00    -0.259 OA
ATOM      8  C   UNL d   1      46.427 -18.794  41.683  0.00  0.00     0.044 A 
ATOM      9  C   UNL d   1      46.589 -20.063  42.725  0.00  0.00     0.028 A 
ATOM     10  C   UNL d   1      46.565 -19.541  41.396  0.00  0.00     0.196 A 
ATOM     11  C   UNL d   1      46.144 -17.276  42.286  0.00  0.00     0.000 C 
ATOM     12  C   UNL d   1      46.647 -20.179  41.912  0.00  0.00     0.044 A 
ATOM     13  O   UNL d   1      46.624 -19.660  40.580  0.00  0.00    -0.287 OA
ENDROOT
BRANCH   1  14
ATOM     14  C   UNL d   1      46.025 -17.031  43.913  0.00  0.00     0.007 A 
ATOM     15  C   UNL d   1      45.294 -16.852  44.247  0.00  0.00     0.026 A 
ATOM     16  C   UNL d   1      45.147 -16.103  44.544  0.00  0.00     0.116 A 
ATOM     17  C   UNL d   1      45.734 -15.524  44.508  0.00  0.00     0.116 A 
ATOM     18  C   UNL d   1      46.473 -15.701  44.171  0.00  0.00     0.026 A 
ATOM     19  C   UNL d   1      46.608 -16.462  43.875  0.00  0.00     0.002 A 
BRANCH  16  20
ATOM     20  O   UNL d   1      44.420 -15.915  44.880  0.00  0.00    -0.326 OA
ATOM     21  C   UNL d   1      44.184 -15.125  44.919  0.00  0.00     0.181 C 
ENDBRANCH  16  20
BRANCH  17  22
ATOM     22  O   UNL d   1      45.602 -14.766  44.802  0.00  0.00    -0.326 OA
ATOM     23  C   UNL d   1      46.016 -14.128  44.467  0.00  0.00     0.181 C 
ENDBRANCH  17  22
ENDBRANCH   1  14
TORSDOF 3
ENDMDL
MODEL 2
REMARK VINA RESULT:      29.2      1.066      1.792
REMARK  3 active torsions:
REMARK  status: ('A' for Active; 'I' for Inactive)
REMARK    1  A    between atoms: C_6  and  C_1 
REMARK    2  A    between atoms: O_19  and  C_9 
REMARK    3  A    between atoms: O_20  and  C_13 
ROOT
ATOM      1  C   UNL d   1      46.158 -16.827  43.675  0.00  0.00     0.064 A 
ATOM      2  C   UNL d   1      46.128 -17.501  44.160  0.00  0.00     0.007 A 
ATOM      3  C   UNL d   1      46.329 -16.908  42.863  0.00  0.00     0.300 A 
ATOM      4  C   UNL d   1      46.267 -18.250  43.841  0.00  0.00     0.026 A 
ATOM      5  O   UNL d   1      46.471 -17.664  42.533  0.00  0.00    -0.273 OA
ATOM      6  C   UNL d   1      46.438 -18.332  43.029  0.00  0.00     0.103 A 
ATOM      7  O   UNL d   1      46.359 -16.239  42.378  0.00  0.00    -0.259 OA
ATOM      8  C   UNL d   1      46.239 -18.925  44.317  0.00  0.00     0.044 A 
ATOM      9  C   UNL d   1      46.576 -19.074  42.709  0.00  0.00     0.028 A 
ATOM     10  C   UNL d   1      46.377 -19.658  43.997  0.00  0.00     0.196 A 
ATOM     11  C   UNL d   1      45.961 -17.421  44.955  0.00  0.00     0.000 C 
ATOM     12  C   UNL d   1      46.546 -19.739  43.193  0.00  0.00     0.044 A 
ATOM     13  O   UNL d   1      46.347 -20.328  44.481  0.00  0.00    -0.287 OA
ENDROOT
BRANCH   1  14
ATOM     14  C   UNL d   1      46.020 -16.081  43.995  0.00  0.00     0.007 A 
ATOM     15  C   UNL d   1      45.250 -15.789  44.033  0.00  0.00     0.026 A 
ATOM     16  C   UNL d   1      45.105 -15.048  44.350  0.00  0.00     0.116 A 
ATOM     17  C   UNL d   1      45.731 -14.591  44.633  0.00  0.00     0.116 A 
ATOM     18  C   UNL d   1      46.509 -14.882  44.595  0.00  0.00     0.026 A 
ATOM     19  C   UNL d   1      46.642 -15.633  44.273  0.00  0.00     0.002 A 
BRANCH  16  20
ATOM     20  O   UNL d   1      44.339 -14.748  44.393  0.00  0.00    -0.326 OA
ATOM     21  C   UNL d   1      43.791 -15.107  44.894  0.00  0.00     0.181 C 
ENDBRANCH  16  20
BRANCH  17  22
ATOM     22  O   UNL d   1      45.601 -13.844  44.954  0.00  0.00    -0.326 OA
ATOM     23  C   UNL d   1      46.179 -13.256  44.850  0.00  0.00     0.181 C 
ENDBRANCH  17  22
ENDBRANCH   1  14
TORSDOF 3
ENDMDL
