MODEL 1
REMARK VINA RESULT:      17.1      0.000      0.000
REMARK  4 active torsions:
REMARK  status: ('A' for Active; 'I' for Inactive)
REMARK    1  A    between atoms: N_6  and  C_1 
REMARK    2  A    between atoms: C_7  and  N_2 
REMARK       I    between atoms: C_8  and  N_6 
REMARK    3  A    between atoms: C_19  and  C_8 
REMARK    4  A    between atoms: O_20  and  C_15 
ROOT
ATOM      1  C   UNL d   1      46.327 -18.282  43.668  0.00  0.00     0.169 A 
ATOM      2  N   UNL d   1      46.071 -17.845  44.327  0.00  0.00    -0.212 N 
ATOM      3  N   UNL d   1      46.017 -18.377  44.955  0.00  0.00    -0.163 NA
ATOM      4  C   UNL d   1      46.422 -19.055  43.904  0.00  0.00     0.062 A 
ATOM      5  C   UNL d   1      46.234 -19.137  44.705  0.00  0.00     0.111 A 
ATOM      6  S   UNL d   1      46.580 -20.330  44.287  0.00  0.00    -0.084 SA
ATOM      7  C   UNL d   1      46.647 -19.828  43.631  0.00  0.00     0.040 A 
ATOM      8  C   UNL d   1      46.337 -19.937  44.931  0.00  0.00     0.056 A 
ENDROOT
BRANCH   2   9
ATOM      9  C   UNL d   1      45.909 -17.068  44.351  0.00  0.00     0.085 A 
ATOM     10  C   UNL d   1      46.310 -16.551  43.881  0.00  0.00     0.021 A 
ATOM     11  C   UNL d   1      46.147 -15.740  43.899  0.00  0.00     0.026 A 
ATOM     12  C   UNL d   1      45.580 -15.448  44.391  0.00  0.00     0.094 A 
ATOM     13  C   UNL d   1      45.165 -15.969  44.874  0.00  0.00     0.026 A 
ATOM     14  C   UNL d   1      45.328 -16.780  44.855  0.00  0.00     0.021 A 
BRANCH  12  15
ATOM     15  O   UNL d   1      45.406 -14.712  44.432  0.00  0.00    -0.328 OA
ATOM     16  C   UNL d   1      46.080 -14.069  44.489  0.00  0.00     0.181 C 
ENDBRANCH  12  15
ENDBRANCH   2   9
BRANCH   1  17
ATOM     17  N   UNL d   1      46.446 -17.978  42.963  0.00  0.00    -0.188 NA
ATOM     18  C   UNL d   1      46.264 -18.401  42.285  0.00  0.00     0.292 C 
ATOM     19  O   UNL d   1      45.945 -19.172  42.373  0.00  0.00    -0.264 OA
BRANCH  18  20
ATOM     20  C   UNL d   1      46.398 -18.059  41.546  0.00  0.00     0.131 C 
ATOM     21 CL   UNL d   1      46.550 -18.506  40.876  0.00  0.00    -0.076 Cl
ENDBRANCH  18  20
ENDBRANCH   1  17
TORSDOF 4
ENDMDL
