MODEL 1
REMARK VINA RESULT:      -6.1      0.000      0.000
REMARK  6 active torsions:
REMARK  status: ('A' for Active; 'I' for Inactive)
REMARK    1  A    between atoms: C_4  and  C_1 
REMARK    2  A    between atoms: C_7  and  C_4 
REMARK    3  A    between atoms: N_10  and  C_7 
REMARK    4  A    between atoms: C_11  and  N_10 
REMARK    5  A    between atoms: O_14  and  C_12 
REMARK    6  A    between atoms: C_19  and  O_14 
ROOT
ATOM      1  C   UNL d   1     -46.859  12.658  23.161  0.00  0.00     0.122 C 
ATOM      2  C   UNL d   1     -46.577  13.431  23.167  0.00  0.00     0.106 C 
ATOM      3  N   UNL d   1     -46.294  14.204  23.173  0.00  0.00    -0.191 NA
ENDROOT
BRANCH   1   4
ATOM      4  C   UNL d   1     -47.666  12.513  23.067  0.00  0.00     0.159 A 
ATOM      5  N   UNL d   1     -48.201  12.326  23.669  0.00  0.00    -0.226 NA
ATOM      6  C   UNL d   1     -48.941  12.228  23.330  0.00  0.00     0.099 A 
ATOM      7  C   UNL d   1     -49.681  12.039  23.654  0.00  0.00     0.021 A 
ATOM      8  C   UNL d   1     -48.869  12.353  22.518  0.00  0.00     0.083 A 
ATOM      9  C   UNL d   1     -50.341  11.978  23.159  0.00  0.00     0.002 A 
ATOM     10  C   UNL d   1     -50.269  12.103  22.347  0.00  0.00     0.002 A 
ATOM     11  C   UNL d   1     -49.537  12.290  22.022  0.00  0.00     0.019 A 
ATOM     12  N   UNL d   1     -48.085  12.529  22.352  0.00  0.00    -0.287 N 
ATOM     13  C   UNL d   1     -47.759  12.695  21.606  0.00  0.00     0.101 C 
ENDBRANCH   1   4
BRANCH   1  14
ATOM     14  C   UNL d   1     -46.335  12.029  23.248  0.00  0.00     0.112 C 
BRANCH  14  15
ATOM     15  N   UNL d   1     -45.529  12.140  23.111  0.00  0.00    -0.241 NA
BRANCH  15  16
ATOM     16  C   UNL d   1     -45.006  11.502  23.177  0.00  0.00     0.104 A 
ATOM     17  C   UNL d   1     -44.271  11.523  22.803  0.00  0.00     0.118 A 
ATOM     18  C   UNL d   1     -43.753  10.886  22.872  0.00  0.00     0.026 A 
ATOM     19  C   UNL d   1     -43.973  10.223  23.317  0.00  0.00     0.002 A 
ATOM     20  C   UNL d   1     -44.718  10.199  23.698  0.00  0.00     0.002 A 
ATOM     21  C   UNL d   1     -45.231  10.845  23.623  0.00  0.00     0.021 A 
BRANCH  17  22
ATOM     22  O   UNL d   1     -44.058  12.181  22.364  0.00  0.00    -0.304 OA
BRANCH  22  23
ATOM     23  C   UNL d   1     -43.319  12.205  21.998  0.00  0.00     0.123 C 
ATOM     24  C   UNL d   1     -43.175  12.736  21.389  0.00  0.00     0.029 C 
ENDBRANCH  22  23
ENDBRANCH  17  22
ENDBRANCH  15  16
ENDBRANCH  14  15
ENDBRANCH   1  14
TORSDOF 6
ENDMDL
MODEL 2
REMARK VINA RESULT:      -5.8      1.742      2.617
REMARK  6 active torsions:
REMARK  status: ('A' for Active; 'I' for Inactive)
REMARK    1  A    between atoms: C_4  and  C_1 
REMARK    2  A    between atoms: C_7  and  C_4 
REMARK    3  A    between atoms: N_10  and  C_7 
REMARK    4  A    between atoms: C_11  and  N_10 
REMARK    5  A    between atoms: O_14  and  C_12 
REMARK    6  A    between atoms: C_19  and  O_14 
ROOT
ATOM      1  C   UNL d   1     -48.485  12.751  22.962  0.00  0.00     0.122 C 
ATOM      2  C   UNL d   1     -48.650  12.034  23.330  0.00  0.00     0.106 C 
ATOM      3  N   UNL d   1     -48.815  11.315  23.698  0.00  0.00    -0.191 NA
ENDROOT
BRANCH   1   4
ATOM      4  C   UNL d   1     -49.055  13.347  22.944  0.00  0.00     0.159 A 
ATOM      5  N   UNL d   1     -49.167  13.933  23.515  0.00  0.00    -0.226 NA
ATOM      6  C   UNL d   1     -49.792  14.406  23.276  0.00  0.00     0.099 A 
ATOM      7  C   UNL d   1     -50.151  15.072  23.620  0.00  0.00     0.021 A 
ATOM      8  C   UNL d   1     -50.071  14.117  22.556  0.00  0.00     0.083 A 
ATOM      9  C   UNL d   1     -50.785  15.438  23.237  0.00  0.00     0.002 A 
ATOM     10  C   UNL d   1     -51.064  15.149  22.517  0.00  0.00     0.002 A 
ATOM     11  C   UNL d   1     -50.711  14.490  22.172  0.00  0.00     0.019 A 
ATOM     12  N   UNL d   1     -49.619  13.464  22.348  0.00  0.00    -0.287 N 
ATOM     13  C   UNL d   1     -49.704  12.998  21.665  0.00  0.00     0.101 C 
ENDBRANCH   1   4
BRANCH   1  14
ATOM     14  C   UNL d   1     -47.750  12.873  22.612  0.00  0.00     0.112 C 
BRANCH  14  15
ATOM     15  N   UNL d   1     -47.073  12.543  22.948  0.00  0.00    -0.241 NA
BRANCH  15  16
ATOM     16  C   UNL d   1     -46.324  12.792  22.699  0.00  0.00     0.104 A 
ATOM     17  C   UNL d   1     -45.683  12.273  22.716  0.00  0.00     0.118 A 
ATOM     18  C   UNL d   1     -44.939  12.525  22.467  0.00  0.00     0.026 A 
ATOM     19  C   UNL d   1     -44.836  13.302  22.199  0.00  0.00     0.002 A 
ATOM     20  C   UNL d   1     -45.484  13.831  22.180  0.00  0.00     0.002 A 
ATOM     21  C   UNL d   1     -46.227  13.568  22.433  0.00  0.00     0.021 A 
BRANCH  17  22
ATOM     22  O   UNL d   1     -45.789  11.506  22.981  0.00  0.00    -0.304 OA
BRANCH  22  23
ATOM     23  C   UNL d   1     -45.176  11.123  23.379  0.00  0.00     0.123 C 
ATOM     24  C   UNL d   1     -45.292  10.375  23.698  0.00  0.00     0.029 C 
ENDBRANCH  22  23
ENDBRANCH  17  22
ENDBRANCH  15  16
ENDBRANCH  14  15
ENDBRANCH   1  14
TORSDOF 6
ENDMDL
MODEL 3
REMARK VINA RESULT:      -5.7      6.494      8.596
REMARK  6 active torsions:
REMARK  status: ('A' for Active; 'I' for Inactive)
REMARK    1  A    between atoms: C_4  and  C_1 
REMARK    2  A    between atoms: C_7  and  C_4 
REMARK    3  A    between atoms: N_10  and  C_7 
REMARK    4  A    between atoms: C_11  and  N_10 
REMARK    5  A    between atoms: O_14  and  C_12 
REMARK    6  A    between atoms: C_19  and  O_14 
ROOT
ATOM      1  C   UNL d   1     -40.665  14.402  20.479  0.00  0.00     0.122 C 
ATOM      2  C   UNL d   1     -41.324  13.946  20.663  0.00  0.00     0.106 C 
ATOM      3  N   UNL d   1     -41.985  13.489  20.847  0.00  0.00    -0.191 NA
ENDROOT
BRANCH   1   4
ATOM      4  C   UNL d   1     -40.099  14.562  21.057  0.00  0.00     0.159 A 
ATOM      5  N   UNL d   1     -39.494  14.055  21.301  0.00  0.00    -0.226 NA
ATOM      6  C   UNL d   1     -39.062  14.435  21.885  0.00  0.00     0.099 A 
ATOM      7  C   UNL d   1     -38.401  14.204  22.330  0.00  0.00     0.021 A 
ATOM      8  C   UNL d   1     -39.397  15.180  22.006  0.00  0.00     0.083 A 
ATOM      9  C   UNL d   1     -38.083  14.722  22.891  0.00  0.00     0.002 A 
ATOM     10  C   UNL d   1     -38.417  15.466  23.011  0.00  0.00     0.002 A 
ATOM     11  C   UNL d   1     -39.072  15.700  22.573  0.00  0.00     0.019 A 
ATOM     12  N   UNL d   1     -40.036  15.262  21.497  0.00  0.00    -0.287 N 
ATOM     13  C   UNL d   1     -40.535  15.922  21.428  0.00  0.00     0.101 C 
ENDBRANCH   1   4
BRANCH   1  14
ATOM     14  C   UNL d   1     -40.571  14.699  19.716  0.00  0.00     0.112 C 
BRANCH  14  15
ATOM     15  N   UNL d   1     -40.541  14.183  19.073  0.00  0.00    -0.241 NA
BRANCH  15  16
ATOM     16  C   UNL d   1     -40.447  14.482  18.308  0.00  0.00     0.104 A 
ATOM     17  C   UNL d   1     -39.943  14.110  17.771  0.00  0.00     0.118 A 
ATOM     18  C   UNL d   1     -39.853  14.411  17.009  0.00  0.00     0.026 A 
ATOM     19  C   UNL d   1     -40.270  15.089  16.783  0.00  0.00     0.002 A 
ATOM     20  C   UNL d   1     -40.783  15.469  17.324  0.00  0.00     0.002 A 
ATOM     21  C   UNL d   1     -40.866  15.159  18.087  0.00  0.00     0.021 A 
BRANCH  17  22
ATOM     22  O   UNL d   1     -39.532  13.439  18.000  0.00  0.00    -0.304 OA
BRANCH  22  23
ATOM     23  C   UNL d   1     -38.925  13.150  17.522  0.00  0.00     0.123 C 
ATOM     24  C   UNL d   1     -38.518  12.470  17.734  0.00  0.00     0.029 C 
ENDBRANCH  22  23
ENDBRANCH  17  22
ENDBRANCH  15  16
ENDBRANCH  14  15
ENDBRANCH   1  14
TORSDOF 6
ENDMDL
MODEL 4
REMARK VINA RESULT:      -4.4      7.897      9.206
REMARK  6 active torsions:
REMARK  status: ('A' for Active; 'I' for Inactive)
REMARK    1  A    between atoms: C_4  and  C_1 
REMARK    2  A    between atoms: C_7  and  C_4 
REMARK    3  A    between atoms: N_10  and  C_7 
REMARK    4  A    between atoms: C_11  and  N_10 
REMARK    5  A    between atoms: O_14  and  C_12 
REMARK    6  A    between atoms: C_19  and  O_14 
ROOT
ATOM      1  C   UNL d   1     -39.518  14.443  20.044  0.00  0.00     0.122 C 
ATOM      2  C   UNL d   1     -40.201  14.861  19.855  0.00  0.00     0.106 C 
ATOM      3  N   UNL d   1     -40.885  15.280  19.665  0.00  0.00    -0.191 NA
ENDROOT
BRANCH   1   4
ATOM      4  C   UNL d   1     -39.255  14.413  20.825  0.00  0.00     0.159 A 
ATOM      5  N   UNL d   1     -39.415  13.813  21.371  0.00  0.00    -0.226 NA
ATOM      6  C   UNL d   1     -39.046  14.007  22.077  0.00  0.00     0.099 A 
ATOM      7  C   UNL d   1     -39.011  13.621  22.812  0.00  0.00     0.021 A 
ATOM      8  C   UNL d   1     -38.657  14.727  21.974  0.00  0.00     0.083 A 
ATOM      9  C   UNL d   1     -38.585  13.963  23.433  0.00  0.00     0.002 A 
ATOM     10  C   UNL d   1     -38.196  14.682  23.330  0.00  0.00     0.002 A 
ATOM     11  C   UNL d   1     -38.228  15.068  22.604  0.00  0.00     0.019 A 
ATOM     12  N   UNL d   1     -38.783  14.980  21.203  0.00  0.00    -0.287 N 
ATOM     13  C   UNL d   1     -38.495  15.677  20.855  0.00  0.00     0.101 C 
ENDBRANCH   1   4
BRANCH   1  14
ATOM     14  C   UNL d   1     -39.098  14.054  19.452  0.00  0.00     0.112 C 
BRANCH  14  15
ATOM     15  N   UNL d   1     -39.285  14.184  18.660  0.00  0.00    -0.241 NA
BRANCH  15  16
ATOM     16  C   UNL d   1     -38.910  13.742  18.069  0.00  0.00     0.104 A 
ATOM     17  C   UNL d   1     -38.778  14.067  17.323  0.00  0.00     0.118 A 
ATOM     18  C   UNL d   1     -38.404  13.625  16.737  0.00  0.00     0.026 A 
ATOM     19  C   UNL d   1     -38.161  12.850  16.900  0.00  0.00     0.002 A 
ATOM     20  C   UNL d   1     -38.293  12.516  17.656  0.00  0.00     0.002 A 
ATOM     21  C   UNL d   1     -38.669  12.970  18.237  0.00  0.00     0.021 A 
BRANCH  17  22
ATOM     22  O   UNL d   1     -39.021  14.834  17.166  0.00  0.00    -0.304 OA
BRANCH  22  23
ATOM     23  C   UNL d   1     -38.866  15.169  16.428  0.00  0.00     0.123 C 
ATOM     24  C   UNL d   1     -39.140  15.921  16.248  0.00  0.00     0.029 C 
ENDBRANCH  22  23
ENDBRANCH  17  22
ENDBRANCH  15  16
ENDBRANCH  14  15
ENDBRANCH   1  14
TORSDOF 6
ENDMDL
MODEL 5
REMARK VINA RESULT:      -4.3      2.383      5.016
REMARK  6 active torsions:
REMARK  status: ('A' for Active; 'I' for Inactive)
REMARK    1  A    between atoms: C_4  and  C_1 
REMARK    2  A    between atoms: C_7  and  C_4 
REMARK    3  A    between atoms: N_10  and  C_7 
REMARK    4  A    between atoms: C_11  and  N_10 
REMARK    5  A    between atoms: O_14  and  C_12 
REMARK    6  A    between atoms: C_19  and  O_14 
ROOT
ATOM      1  C   UNL d   1     -47.585  14.147  23.051  0.00  0.00     0.122 C 
ATOM      2  C   UNL d   1     -47.058  14.671  22.699  0.00  0.00     0.106 C 
ATOM      3  N   UNL d   1     -46.531  15.197  22.346  0.00  0.00    -0.191 NA
ENDROOT
BRANCH   1   4
ATOM      4  C   UNL d   1     -47.357  13.368  23.198  0.00  0.00     0.159 A 
ATOM      5  N   UNL d   1     -47.862  12.725  23.315  0.00  0.00    -0.226 NA
ATOM      6  C   UNL d   1     -47.402  12.059  23.443  0.00  0.00     0.099 A 
ATOM      7  C   UNL d   1     -47.598  11.265  23.590  0.00  0.00     0.021 A 
ATOM      8  C   UNL d   1     -46.610  12.284  23.406  0.00  0.00     0.083 A 
ATOM      9  C   UNL d   1     -46.997  10.708  23.698  0.00  0.00     0.002 A 
ATOM     10  C   UNL d   1     -46.205  10.934  23.661  0.00  0.00     0.002 A 
ATOM     11  C   UNL d   1     -46.005  11.719  23.515  0.00  0.00     0.019 A 
ATOM     12  N   UNL d   1     -46.578  13.090  23.255  0.00  0.00    -0.287 N 
ATOM     13  C   UNL d   1     -45.893  13.554  23.173  0.00  0.00     0.101 C 
ENDBRANCH   1   4
BRANCH   1  14
ATOM     14  C   UNL d   1     -48.341  14.400  23.257  0.00  0.00     0.112 C 
BRANCH  14  15
ATOM     15  N   UNL d   1     -48.880  14.612  22.669  0.00  0.00    -0.241 NA
BRANCH  15  16
ATOM     16  C   UNL d   1     -49.611  14.939  22.877  0.00  0.00     0.104 A 
ATOM     17  C   UNL d   1     -50.300  14.705  22.488  0.00  0.00     0.118 A 
ATOM     18  C   UNL d   1     -51.026  15.033  22.698  0.00  0.00     0.026 A 
ATOM     19  C   UNL d   1     -51.063  15.599  23.301  0.00  0.00     0.002 A 
ATOM     20  C   UNL d   1     -50.366  15.839  23.698  0.00  0.00     0.002 A 
ATOM     21  C   UNL d   1     -49.642  15.503  23.479  0.00  0.00     0.021 A 
BRANCH  17  22
ATOM     22  O   UNL d   1     -50.259  14.145  21.892  0.00  0.00    -0.304 OA
BRANCH  22  23
ATOM     23  C   UNL d   1     -50.945  13.759  21.646  0.00  0.00     0.123 C 
ATOM     24  C   UNL d   1     -50.940  13.293  20.971  0.00  0.00     0.029 C 
ENDBRANCH  22  23
ENDBRANCH  17  22
ENDBRANCH  15  16
ENDBRANCH  14  15
ENDBRANCH   1  14
TORSDOF 6
ENDMDL
