MODEL 1
REMARK VINA RESULT:      10.9      0.000      0.000
REMARK  3 active torsions:
REMARK  status: ('A' for Active; 'I' for Inactive)
REMARK    1  A    between atoms: S_10  and  C_7 
REMARK    2  A    between atoms: C_13  and  S_10 
REMARK    3  A    between atoms: C_12  and  C_13 
ROOT
ATOM      1  N   UNL d   1      45.820 -15.151  44.414  0.00  0.00    -0.167 N 
ATOM      2  C   UNL d   1      45.125 -15.383  44.782  0.00  0.00     0.220 A 
ATOM      3  C   UNL d   1      45.950 -14.354  44.212  0.00  0.00     0.301 A 
ATOM      4  S   UNL d   1      45.164 -16.195  44.907  0.00  0.00    -0.019 SA
ATOM      5  N   UNL d   1      46.286 -15.814  44.311  0.00  0.00    -0.147 NA
ATOM      6  N   UNL d   1      44.546 -14.815  44.954  0.00  0.00    -0.121 NA
ATOM      7  C   UNL d   1      45.885 -16.456  44.613  0.00  0.00     0.163 A 
ATOM      8  N   UNL d   1      44.665 -14.031  44.760  0.00  0.00    -0.141 NA
ATOM      9  C   UNL d   1      45.364 -13.801  44.390  0.00  0.00     0.161 A 
ATOM     10  O   UNL d   1      46.646 -14.125  43.844  0.00  0.00    -0.263 OA
ATOM     11  C   UNL d   1      45.492 -13.009  44.190  0.00  0.00     0.028 C 
ENDROOT
BRANCH   7  12
ATOM     12  S   UNL d   1      46.157 -17.238  44.623  0.00  0.00    -0.059 SA
BRANCH  12  13
ATOM     13  C   UNL d   1      46.187 -17.667  43.924  0.00  0.00     0.038 C 
BRANCH  13  14
ATOM     14  C   UNL d   1      46.334 -18.473  44.001  0.00  0.00     0.017 A 
ATOM     15  C   UNL d   1      46.491 -18.932  43.330  0.00  0.00     0.058 A 
ATOM     16 CL   UNL d   1      46.499 -18.583  42.585  0.00  0.00    -0.082 Cl
ATOM     17  C   UNL d   1      46.638 -19.731  43.399  0.00  0.00     0.011 A 
ATOM     18  C   UNL d   1      46.631 -20.092  44.148  0.00  0.00     0.001 A 
ATOM     19  C   UNL d   1      46.478 -19.645  44.816  0.00  0.00     0.000 A 
ATOM     20  C   UNL d   1      46.328 -18.835  44.750  0.00  0.00     0.001 A 
ENDBRANCH  13  14
ENDBRANCH  12  13
ENDBRANCH   7  12
TORSDOF 3
ENDMDL
