MODEL 1
REMARK VINA RESULT:      -4.9      0.000      0.000
REMARK  2 active torsions:
REMARK  status: ('A' for Active; 'I' for Inactive)
REMARK    1  A    between atoms: C_4  and  N_1 
REMARK    2  A    between atoms: C_7  and  C_9 
ROOT
ATOM      1  C   UNL d   1      56.616  -0.215  32.514  0.00  0.00     0.070 A 
ATOM      2  C   UNL d   1      56.125   0.276  32.965  0.00  0.00     0.024 A 
ATOM      3  C   UNL d   1      55.520  -0.047  33.409  0.00  0.00     0.066 A 
ATOM      4  C   UNL d   1      56.502  -1.029  32.506  0.00  0.00     0.018 A 
ATOM      5  C   UNL d   1      55.401  -0.869  33.404  0.00  0.00     0.006 A 
ATOM      6  C   UNL d   1      55.891  -1.361  32.952  0.00  0.00     0.002 A 
ENDROOT
BRANCH   1   7
ATOM      7  N   UNL d   1      57.228   0.107  32.064  0.00  0.00    -0.242 N 
ATOM      8  C   UNL d   1      57.237   0.174  31.233  0.00  0.00     0.267 A 
ATOM      9  C   UNL d   1      57.948   0.526  31.008  0.00  0.00     0.066 A 
ATOM     10  O   UNL d   1      56.655  -0.058  30.692  0.00  0.00    -0.267 OA
ATOM     11  C   UNL d   1      58.383   0.678  31.697  0.00  0.00     0.066 A 
ATOM     12  C   UNL d   1      57.943   0.422  32.340  0.00  0.00     0.267 A 
ATOM     13  O   UNL d   1      58.216   0.491  33.123  0.00  0.00    -0.267 OA
ENDBRANCH   1   7
BRANCH   3  14
ATOM     14  C   UNL d   1      55.026   0.428  33.861  0.00  0.00     0.211 C 
ATOM     15  O   UNL d   1      54.301   0.675  33.571  0.00  0.00    -0.644 OA
ATOM     16  O   UNL d   1      55.271   0.657  34.620  0.00  0.00    -0.644 OA
ENDBRANCH   3  14
TORSDOF 2
ENDMDL
MODEL 2
REMARK VINA RESULT:      -4.6      1.095      3.284
REMARK  2 active torsions:
REMARK  status: ('A' for Active; 'I' for Inactive)
REMARK    1  A    between atoms: C_4  and  N_1 
REMARK    2  A    between atoms: C_7  and  C_9 
ROOT
ATOM      1  C   UNL d   1      56.837  -0.137  32.316  0.00  0.00     0.070 A 
ATOM      2  C   UNL d   1      56.935  -0.233  31.499  0.00  0.00     0.024 A 
ATOM      3  C   UNL d   1      57.562   0.124  31.116  0.00  0.00     0.066 A 
ATOM      4  C   UNL d   1      57.367   0.318  32.750  0.00  0.00     0.018 A 
ATOM      5  C   UNL d   1      58.099   0.584  31.551  0.00  0.00     0.006 A 
ATOM      6  C   UNL d   1      58.002   0.682  32.368  0.00  0.00     0.002 A 
ENDROOT
BRANCH   1   7
ATOM      7  N   UNL d   1      56.206  -0.496  32.706  0.00  0.00    -0.242 N 
ATOM      8  C   UNL d   1      56.125  -1.314  32.850  0.00  0.00     0.267 A 
ATOM      9  C   UNL d   1      55.417  -1.438  33.253  0.00  0.00     0.066 A 
ATOM     10  O   UNL d   1      56.642  -1.925  32.642  0.00  0.00    -0.267 OA
ATOM     11  C   UNL d   1      55.054  -0.701  33.361  0.00  0.00     0.066 A 
ATOM     12  C   UNL d   1      55.536  -0.128  33.027  0.00  0.00     0.267 A 
ATOM     13  O   UNL d   1      55.340   0.681  33.035  0.00  0.00    -0.267 OA
ENDBRANCH   1   7
BRANCH   3  14
ATOM     14  C   UNL d   1      57.670   0.036  30.307  0.00  0.00     0.211 C 
ATOM     15  O   UNL d   1      57.468   0.638  29.789  0.00  0.00    -0.644 OA
ATOM     16  O   UNL d   1      57.989  -0.673  30.018  0.00  0.00    -0.644 OA
ENDBRANCH   3  14
TORSDOF 2
ENDMDL
MODEL 3
REMARK VINA RESULT:      -4.1      8.838      9.638
REMARK  2 active torsions:
REMARK  status: ('A' for Active; 'I' for Inactive)
REMARK    1  A    between atoms: C_4  and  N_1 
REMARK    2  A    between atoms: C_7  and  C_9 
ROOT
ATOM      1  C   UNL d   1      60.110  -8.721  34.891  0.00  0.00     0.070 A 
ATOM      2  C   UNL d   1      59.833  -7.954  35.041  0.00  0.00     0.024 A 
ATOM      3  C   UNL d   1      59.994  -7.593  35.756  0.00  0.00     0.066 A 
ATOM      4  C   UNL d   1      60.547  -9.125  35.457  0.00  0.00     0.018 A 
ATOM      5  C   UNL d   1      60.435  -7.998  36.330  0.00  0.00     0.006 A 
ATOM      6  C   UNL d   1      60.713  -8.765  36.181  0.00  0.00     0.002 A 
ENDROOT
BRANCH   1   7
ATOM      7  N   UNL d   1      59.950  -9.088  34.171  0.00  0.00    -0.242 N 
ATOM      8  C   UNL d   1      59.280  -9.558  34.003  0.00  0.00     0.267 A 
ATOM      9  C   UNL d   1      59.334  -9.818  33.223  0.00  0.00     0.066 A 
ATOM     10  O   UNL d   1      58.650  -9.752  34.503  0.00  0.00    -0.267 OA
ATOM     11  C   UNL d   1      60.036  -9.513  32.903  0.00  0.00     0.066 A 
ATOM     12  C   UNL d   1      60.409  -9.069  33.482  0.00  0.00     0.267 A 
ATOM     13  O   UNL d   1      61.133  -8.680  33.349  0.00  0.00    -0.267 OA
ENDBRANCH   1   7
BRANCH   3  14
ATOM     14  C   UNL d   1      59.726  -6.834  35.916  0.00  0.00     0.211 C 
ATOM     15  O   UNL d   1      60.195  -6.181  35.760  0.00  0.00    -0.644 OA
ATOM     16  O   UNL d   1      58.969  -6.734  36.242  0.00  0.00    -0.644 OA
ENDBRANCH   3  14
TORSDOF 2
ENDMDL
MODEL 4
REMARK VINA RESULT:      -4.1      8.693      9.672
REMARK  2 active torsions:
REMARK  status: ('A' for Active; 'I' for Inactive)
REMARK    1  A    between atoms: C_4  and  N_1 
REMARK    2  A    between atoms: C_7  and  C_9 
ROOT
ATOM      1  C   UNL d   1      59.643  -8.353  35.342  0.00  0.00     0.070 A 
ATOM      2  C   UNL d   1      59.841  -8.531  34.558  0.00  0.00     0.024 A 
ATOM      3  C   UNL d   1      59.646  -9.259  34.241  0.00  0.00     0.066 A 
ATOM      4  C   UNL d   1      59.250  -8.903  35.810  0.00  0.00     0.018 A 
ATOM      5  C   UNL d   1      59.248  -9.817  34.711  0.00  0.00     0.006 A 
ATOM      6  C   UNL d   1      59.050  -9.639  35.496  0.00  0.00     0.002 A 
ENDROOT
BRANCH   1   7
ATOM      7  N   UNL d   1      59.839  -7.620  35.665  0.00  0.00    -0.242 N 
ATOM      8  C   UNL d   1      60.522  -7.453  36.115  0.00  0.00     0.267 A 
ATOM      9  C   UNL d   1      60.504  -6.658  36.330  0.00  0.00     0.066 A 
ATOM     10  O   UNL d   1      61.133  -7.968  36.330  0.00  0.00    -0.267 OA
ATOM     11  C   UNL d   1      59.813  -6.326  36.016  0.00  0.00     0.066 A 
ATOM     12  C   UNL d   1      59.408  -6.914  35.611  0.00  0.00     0.267 A 
ATOM     13  O   UNL d   1      58.685  -6.773  35.224  0.00  0.00    -0.267 OA
ENDBRANCH   1   7
BRANCH   3  14
ATOM     14  C   UNL d   1      59.836  -9.448  33.466  0.00  0.00     0.211 C 
ATOM     15  O   UNL d   1      60.607  -9.626  33.254  0.00  0.00    -0.644 OA
ATOM     16  O   UNL d   1      59.235  -9.457  32.894  0.00  0.00    -0.644 OA
ENDBRANCH   3  14
TORSDOF 2
ENDMDL
MODEL 5
REMARK VINA RESULT:      -3.3      3.194      4.657
REMARK  2 active torsions:
REMARK  status: ('A' for Active; 'I' for Inactive)
REMARK    1  A    between atoms: C_4  and  N_1 
REMARK    2  A    between atoms: C_7  and  C_9 
ROOT
ATOM      1  C   UNL d   1      58.996  -1.233  29.156  0.00  0.00     0.070 A 
ATOM      2  C   UNL d   1      58.702  -0.940  29.872  0.00  0.00     0.024 A 
ATOM      3  C   UNL d   1      58.296  -0.230  29.888  0.00  0.00     0.066 A 
ATOM      4  C   UNL d   1      58.886  -0.817  28.455  0.00  0.00     0.018 A 
ATOM      5  C   UNL d   1      58.183   0.193  29.183  0.00  0.00     0.006 A 
ATOM      6  C   UNL d   1      58.477  -0.100  28.466  0.00  0.00     0.002 A 
ENDROOT
BRANCH   1   7
ATOM      7  N   UNL d   1      59.406  -1.949  29.135  0.00  0.00    -0.242 N 
ATOM      8  C   UNL d   1      60.236  -2.034  29.138  0.00  0.00     0.267 A 
ATOM      9  C   UNL d   1      60.415  -2.838  29.113  0.00  0.00     0.066 A 
ATOM     10  O   UNL d   1      60.813  -1.442  29.160  0.00  0.00    -0.267 OA
ATOM     11  C   UNL d   1      59.699  -3.256  29.096  0.00  0.00     0.066 A 
ATOM     12  C   UNL d   1      59.085  -2.712  29.109  0.00  0.00     0.267 A 
ATOM     13  O   UNL d   1      58.285  -2.942  29.097  0.00  0.00    -0.267 OA
ENDBRANCH   1   7
BRANCH   3  14
ATOM     14  C   UNL d   1      57.999   0.072  30.591  0.00  0.00     0.211 C 
ATOM     15  O   UNL d   1      58.460   0.553  31.069  0.00  0.00    -0.644 OA
ATOM     16  O   UNL d   1      57.222  -0.116  30.814  0.00  0.00    -0.644 OA
ENDBRANCH   3  14
TORSDOF 2
ENDMDL
MODEL 6
REMARK VINA RESULT:      -3.2      1.785      2.814
REMARK  2 active torsions:
REMARK  status: ('A' for Active; 'I' for Inactive)
REMARK    1  A    between atoms: C_4  and  N_1 
REMARK    2  A    between atoms: C_7  and  C_9 
ROOT
ATOM      1  C   UNL d   1      58.054  -0.002  30.594  0.00  0.00     0.070 A 
ATOM      2  C   UNL d   1      57.420  -0.447  30.889  0.00  0.00     0.024 A 
ATOM      3  C   UNL d   1      57.158  -0.330  31.655  0.00  0.00     0.066 A 
ATOM      4  C   UNL d   1      58.426   0.559  31.065  0.00  0.00     0.018 A 
ATOM      5  C   UNL d   1      57.531   0.236  32.133  0.00  0.00     0.006 A 
ATOM      6  C   UNL d   1      58.165   0.682  31.839  0.00  0.00     0.002 A 
ENDROOT
BRANCH   1   7
ATOM      7  N   UNL d   1      58.321  -0.118  29.823  0.00  0.00    -0.242 N 
ATOM      8  C   UNL d   1      57.970   0.199  29.135  0.00  0.00     0.267 A 
ATOM      9  C   UNL d   1      58.408  -0.050  28.482  0.00  0.00     0.066 A 
ATOM     10  O   UNL d   1      57.301   0.682  29.075  0.00  0.00    -0.267 OA
ATOM     11  C   UNL d   1      59.031  -0.521  28.760  0.00  0.00     0.066 A 
ATOM     12  C   UNL d   1      58.976  -0.561  29.577  0.00  0.00     0.267 A 
ATOM     13  O   UNL d   1      59.517  -0.992  30.040  0.00  0.00    -0.267 OA
ENDBRANCH   1   7
BRANCH   3  14
ATOM     14  C   UNL d   1      56.532  -0.764  31.959  0.00  0.00     0.211 C 
ATOM     15  O   UNL d   1      55.968  -0.409  32.436  0.00  0.00    -0.644 OA
ATOM     16  O   UNL d   1      56.474  -1.572  31.777  0.00  0.00    -0.644 OA
ENDBRANCH   3  14
TORSDOF 2
ENDMDL
MODEL 7
REMARK VINA RESULT:      -3.0      1.430      3.663
REMARK  2 active torsions:
REMARK  status: ('A' for Active; 'I' for Inactive)
REMARK    1  A    between atoms: C_4  and  N_1 
REMARK    2  A    between atoms: C_7  and  C_9 
ROOT
ATOM      1  C   UNL d   1      57.313  -0.110  31.360  0.00  0.00     0.070 A 
ATOM      2  C   UNL d   1      57.768  -0.708  31.013  0.00  0.00     0.024 A 
ATOM      3  C   UNL d   1      58.057  -0.615  30.254  0.00  0.00     0.066 A 
ATOM      4  C   UNL d   1      57.147   0.582  30.948  0.00  0.00     0.018 A 
ATOM      5  C   UNL d   1      57.892   0.082  29.835  0.00  0.00     0.006 A 
ATOM      6  C   UNL d   1      57.436   0.682  30.182  0.00  0.00     0.002 A 
ENDROOT
BRANCH   1   7
ATOM      7  N   UNL d   1      57.019  -0.200  32.125  0.00  0.00    -0.242 N 
ATOM      8  C   UNL d   1      57.326   0.165  32.810  0.00  0.00     0.267 A 
ATOM      9  C   UNL d   1      56.873  -0.072  33.456  0.00  0.00     0.066 A 
ATOM     10  O   UNL d   1      57.969   0.681  32.872  0.00  0.00    -0.267 OA
ATOM     11  C   UNL d   1      56.284  -0.585  33.178  0.00  0.00     0.066 A 
ATOM     12  C   UNL d   1      56.375  -0.662  32.366  0.00  0.00     0.267 A 
ATOM     13  O   UNL d   1      55.873  -1.139  31.904  0.00  0.00    -0.267 OA
ENDBRANCH   1   7
BRANCH   3  14
ATOM     14  C   UNL d   1      58.510  -1.200  29.898  0.00  0.00     0.211 C 
ATOM     15  O   UNL d   1      58.201  -1.948  29.769  0.00  0.00    -0.644 OA
ATOM     16  O   UNL d   1      59.288  -1.025  29.670  0.00  0.00    -0.644 OA
ENDBRANCH   3  14
TORSDOF 2
ENDMDL
MODEL 8
REMARK VINA RESULT:      -2.6      2.040      4.154
REMARK  2 active torsions:
REMARK  status: ('A' for Active; 'I' for Inactive)
REMARK    1  A    between atoms: C_4  and  N_1 
REMARK    2  A    between atoms: C_7  and  C_9 
ROOT
ATOM      1  C   UNL d   1      58.245   0.055  30.297  0.00  0.00     0.070 A 
ATOM      2  C   UNL d   1      58.513  -0.709  30.119  0.00  0.00     0.024 A 
ATOM      3  C   UNL d   1      58.685  -0.913  29.346  0.00  0.00     0.066 A 
ATOM      4  C   UNL d   1      58.148   0.614  29.702  0.00  0.00     0.018 A 
ATOM      5  C   UNL d   1      58.589  -0.351  28.743  0.00  0.00     0.006 A 
ATOM      6  C   UNL d   1      58.320   0.413  28.920  0.00  0.00     0.002 A 
ENDROOT
BRANCH   1   7
ATOM      7  N   UNL d   1      58.070   0.264  31.075  0.00  0.00    -0.242 N 
ATOM      8  C   UNL d   1      57.316   0.231  31.430  0.00  0.00     0.267 A 
ATOM      9  C   UNL d   1      57.384   0.488  32.210  0.00  0.00     0.066 A 
ATOM     10  O   UNL d   1      56.600  -0.011  31.093  0.00  0.00    -0.267 OA
ATOM     11  C   UNL d   1      58.179   0.682  32.344  0.00  0.00     0.066 A 
ATOM     12  C   UNL d   1      58.595   0.545  31.651  0.00  0.00     0.267 A 
ATOM     13  O   UNL d   1      59.414   0.681  31.588  0.00  0.00    -0.267 OA
ENDBRANCH   1   7
BRANCH   3  14
ATOM     14  C   UNL d   1      58.952  -1.666  29.157  0.00  0.00     0.211 C 
ATOM     15  O   UNL d   1      59.681  -1.775  28.799  0.00  0.00    -0.644 OA
ATOM     16  O   UNL d   1      58.472  -2.320  29.333  0.00  0.00    -0.644 OA
ENDBRANCH   3  14
TORSDOF 2
ENDMDL
MODEL 9
REMARK VINA RESULT:      -2.1      4.086      5.597
REMARK  2 active torsions:
REMARK  status: ('A' for Active; 'I' for Inactive)
REMARK    1  A    between atoms: C_4  and  N_1 
REMARK    2  A    between atoms: C_7  and  C_9 
ROOT
ATOM      1  C   UNL d   1      59.891  -0.935  29.156  0.00  0.00     0.070 A 
ATOM      2  C   UNL d   1      59.696  -1.728  29.291  0.00  0.00     0.024 A 
ATOM      3  C   UNL d   1      60.182  -2.323  29.011  0.00  0.00     0.066 A 
ATOM      4  C   UNL d   1      60.572  -0.736  28.740  0.00  0.00     0.018 A 
ATOM      5  C   UNL d   1      60.870  -2.127  28.591  0.00  0.00     0.006 A 
ATOM      6  C   UNL d   1      61.066  -1.333  28.455  0.00  0.00     0.002 A 
ENDROOT
BRANCH   1   7
ATOM      7  N   UNL d   1      59.404  -0.332  29.437  0.00  0.00    -0.242 N 
ATOM      8  C   UNL d   1      59.563   0.154  30.097  0.00  0.00     0.267 A 
ATOM      9  C   UNL d   1      58.937   0.682  30.187  0.00  0.00     0.066 A 
ATOM     10  O   UNL d   1      60.221   0.140  30.598  0.00  0.00    -0.267 OA
ATOM     11  C   UNL d   1      58.387   0.528  29.586  0.00  0.00     0.066 A 
ATOM     12  C   UNL d   1      58.673  -0.090  29.130  0.00  0.00     0.267 A 
ATOM     13  O   UNL d   1      58.258  -0.390  28.474  0.00  0.00    -0.267 OA
ENDBRANCH   1   7
BRANCH   3  14
ATOM     14  C   UNL d   1      60.000  -3.113  29.138  0.00  0.00     0.211 C 
ATOM     15  O   UNL d   1      60.468  -3.579  29.623  0.00  0.00    -0.644 OA
ATOM     16  O   UNL d   1      59.332  -3.438  28.768  0.00  0.00    -0.644 OA
ENDBRANCH   3  14
TORSDOF 2
ENDMDL
