MODEL 1
REMARK VINA RESULT:      17.7      0.000      0.000
REMARK  4 active torsions:
REMARK  status: ('A' for Active; 'I' for Inactive)
REMARK    1  A    between atoms: C_3  and  N_1 
REMARK    2  A    between atoms: C_6  and  C_3 
REMARK    3  A    between atoms: C_9  and  C_3 
REMARK    4  A    between atoms: N_5  and  C_6 
ROOT
ATOM      1  C   UNL d   1      44.488 -15.948  37.044  0.00  0.00     0.106 C 
ENDROOT
BRANCH   1   2
ATOM      2  N   UNL d   1      43.701 -15.820  36.827  0.00  0.00    -0.228 N 
ATOM      3  N   UNL d   1      43.213 -15.149  36.880  0.00  0.00    -0.165 NA
ATOM      4  C   UNL d   1      42.477 -15.360  36.571  0.00  0.00     0.103 A 
ATOM      5  C   UNL d   1      41.816 -14.848  36.517  0.00  0.00     0.022 C 
ATOM      6  C   UNL d   1      42.500 -16.129  36.333  0.00  0.00     0.040 A 
ATOM      7  C   UNL d   1      43.256 -16.421  36.489  0.00  0.00     0.085 A 
ATOM      8  C   UNL d   1      43.533 -17.198  36.332  0.00  0.00     0.021 C 
ENDBRANCH   1   2
BRANCH   1   9
ATOM      9  C   UNL d   1      44.712 -16.685  37.328  0.00  0.00     0.167 C 
BRANCH   9  10
ATOM     10  N   UNL d   1      44.681 -16.864  38.135  0.00  0.00    -0.111 N 
ATOM     11  O   UNL d   1      43.960 -17.054  38.495  0.00  0.00    -0.532 OA
ATOM     12  O   UNL d   1      45.379 -16.850  38.577  0.00  0.00    -0.532 OA
ENDBRANCH   9  10
ENDBRANCH   1   9
BRANCH   1  13
ATOM     13  C   UNL d   1      45.032 -15.330  36.971  0.00  0.00     0.019 A 
ATOM     14  C   UNL d   1      45.800 -15.500  36.745  0.00  0.00     0.002 A 
ATOM     15  C   UNL d   1      46.365 -14.895  36.665  0.00  0.00     0.011 A 
ATOM     16  C   UNL d   1      46.116 -14.102  36.825  0.00  0.00     0.058 A 
ATOM     17  C   UNL d   1      45.360 -13.950  37.045  0.00  0.00     0.011 A 
ATOM     18 CL   UNL d   1      46.644 -13.471  36.757  0.00  0.00    -0.082 Cl
ATOM     19  C   UNL d   1      44.819 -14.553  37.119  0.00  0.00     0.002 A 
ENDBRANCH   1  13
TORSDOF 4
ENDMDL
MODEL 2
REMARK VINA RESULT:      18.0      7.154      7.913
REMARK  4 active torsions:
REMARK  status: ('A' for Active; 'I' for Inactive)
REMARK    1  A    between atoms: C_3  and  N_1 
REMARK    2  A    between atoms: C_6  and  C_3 
REMARK    3  A    between atoms: C_9  and  C_3 
REMARK    4  A    between atoms: N_5  and  C_6 
ROOT
ATOM      1  C   UNL d   1      44.982 -14.407  44.110  0.00  0.00     0.106 C 
ENDROOT
BRANCH   1   2
ATOM      2  N   UNL d   1      45.417 -13.706  44.159  0.00  0.00    -0.228 N 
ATOM      3  N   UNL d   1      45.829 -13.351  44.787  0.00  0.00    -0.165 NA
ATOM      4  C   UNL d   1      46.157 -12.650  44.497  0.00  0.00     0.103 A 
ATOM      5  C   UNL d   1      46.620 -12.116  44.947  0.00  0.00     0.022 C 
ATOM      6  C   UNL d   1      45.960 -12.568  43.720  0.00  0.00     0.040 A 
ATOM      7  C   UNL d   1      45.501 -13.219  43.503  0.00  0.00     0.085 A 
ATOM      8  C   UNL d   1      45.172 -13.367  42.745  0.00  0.00     0.021 C 
ENDBRANCH   1   2
BRANCH   1   9
ATOM      9  C   UNL d   1      44.171 -14.370  43.993  0.00  0.00     0.167 C 
BRANCH   9  10
ATOM     10  N   UNL d   1      43.642 -14.410  44.627  0.00  0.00    -0.111 N 
ATOM     11  O   UNL d   1      43.318 -13.719  44.948  0.00  0.00    -0.532 OA
ATOM     12  O   UNL d   1      43.440 -15.149  44.937  0.00  0.00    -0.532 OA
ENDBRANCH   9  10
ENDBRANCH   1   9
BRANCH   1  13
ATOM     13  C   UNL d   1      45.375 -15.131  44.181  0.00  0.00     0.019 A 
ATOM     14  C   UNL d   1      45.801 -15.289  44.861  0.00  0.00     0.002 A 
ATOM     15  C   UNL d   1      46.204 -16.010  44.955  0.00  0.00     0.011 A 
ATOM     16  C   UNL d   1      46.157 -16.571  44.322  0.00  0.00     0.058 A 
ATOM     17  C   UNL d   1      45.736 -16.402  43.660  0.00  0.00     0.011 A 
ATOM     18 CL   UNL d   1      46.542 -17.299  44.372  0.00  0.00    -0.082 Cl
ATOM     19  C   UNL d   1      45.347 -15.692  43.584  0.00  0.00     0.002 A 
ENDBRANCH   1  13
TORSDOF 4
ENDMDL
MODEL 3
REMARK VINA RESULT:      19.5      6.218      7.250
REMARK  4 active torsions:
REMARK  status: ('A' for Active; 'I' for Inactive)
REMARK    1  A    between atoms: C_3  and  N_1 
REMARK    2  A    between atoms: C_6  and  C_3 
REMARK    3  A    between atoms: C_9  and  C_3 
REMARK    4  A    between atoms: N_5  and  C_6 
ROOT
ATOM      1  C   UNL d   1      46.281 -18.545  43.265  0.00  0.00     0.106 C 
ENDROOT
BRANCH   1   2
ATOM      2  N   UNL d   1      46.141 -17.883  43.739  0.00  0.00    -0.228 N 
ATOM      3  N   UNL d   1      45.832 -17.131  43.564  0.00  0.00    -0.165 NA
ATOM      4  C   UNL d   1      45.825 -16.702  44.270  0.00  0.00     0.103 A 
ATOM      5  C   UNL d   1      45.555 -15.913  44.348  0.00  0.00     0.022 C 
ATOM      6  C   UNL d   1      46.116 -17.165  44.863  0.00  0.00     0.040 A 
ATOM      7  C   UNL d   1      46.314 -17.898  44.541  0.00  0.00     0.085 A 
ATOM      8  C   UNL d   1      46.637 -18.553  44.954  0.00  0.00     0.021 C 
ENDBRANCH   1   2
BRANCH   1   9
ATOM      9  C   UNL d   1      46.581 -19.229  43.606  0.00  0.00     0.167 C 
BRANCH   9  10
ATOM     10  N   UNL d   1      46.144 -19.930  43.622  0.00  0.00    -0.111 N 
ATOM     11  O   UNL d   1      45.967 -20.330  42.919  0.00  0.00    -0.532 OA
ATOM     12  O   UNL d   1      45.887 -20.228  44.349  0.00  0.00    -0.532 OA
ENDBRANCH   9  10
ENDBRANCH   1   9
BRANCH   1  13
ATOM     13  C   UNL d   1      46.115 -18.504  42.456  0.00  0.00     0.019 A 
ATOM     14  C   UNL d   1      45.408 -18.176  42.210  0.00  0.00     0.002 A 
ATOM     15  C   UNL d   1      45.219 -18.124  41.401  0.00  0.00     0.011 A 
ATOM     16  C   UNL d   1      45.786 -18.423  40.847  0.00  0.00     0.058 A 
ATOM     17  C   UNL d   1      46.475 -18.742  41.103  0.00  0.00     0.011 A 
ATOM     18 CL   UNL d   1      45.640 -18.391  40.035  0.00  0.00    -0.082 Cl
ATOM     19  C   UNL d   1      46.645 -18.786  41.897  0.00  0.00     0.002 A 
ENDBRANCH   1  13
TORSDOF 4
ENDMDL
