MODEL 1
REMARK VINA RESULT:      88.5      0.000      0.000
REMARK  10 active torsions:
REMARK  status: ('A' for Active; 'I' for Inactive)
REMARK    1  A    between atoms: N_3  and  C_1 
REMARK    2  A    between atoms: C_16  and  N_2 
REMARK       I    between atoms: C_7  and  N_3 
REMARK    3  A    between atoms: C_18  and  C_7 
REMARK    4  A    between atoms: C_10  and  C_20 
REMARK       I    between atoms: N_11  and  C_10 
REMARK    5  A    between atoms: C_19  and  N_11 
REMARK    6  A    between atoms: S_14  and  C_18 
REMARK    7  A    between atoms: C_20  and  S_14 
REMARK    8  A    between atoms: O_21  and  C_15 
REMARK    9  A    between atoms: C_23  and  C_16 
REMARK   10  A    between atoms: O_22  and  C_23 
ROOT
ATOM      1  C   UNL d   1      60.321  48.716  50.722  0.00  0.00     0.182 A 
ATOM      2  N   UNL d   1      59.992  49.022  51.420  0.00  0.00    -0.283 N 
ATOM      3  S   UNL d   1      59.727  48.723  50.137  0.00  0.00    -0.048 SA
ATOM      4  C   UNL d   1      59.036  49.035  50.479  0.00  0.00     0.050 A 
ATOM      5  C   UNL d   1      59.199  49.219  51.271  0.00  0.00     0.072 A 
ATOM      6  C   UNL d   1      58.280  49.170  50.161  0.00  0.00     0.032 A 
ATOM      7  C   UNL d   1      58.607  49.539  51.744  0.00  0.00     0.020 A 
ATOM      8  C   UNL d   1      57.699  49.492  50.649  0.00  0.00     0.095 A 
ATOM      9  C   UNL d   1      57.862  49.676  51.440  0.00  0.00     0.026 A 
ENDROOT
BRANCH   1  10
ATOM     10  N   UNL d   1      61.100  48.450  50.623  0.00  0.00    -0.183 NA
ATOM     11  C   UNL d   1      61.054  47.877  50.023  0.00  0.00     0.287 C 
ATOM     12  O   UNL d   1      60.321  47.698  49.674  0.00  0.00    -0.265 OA
BRANCH  11  13
ATOM     13  C   UNL d   1      61.730  47.484  49.770  0.00  0.00     0.098 C 
BRANCH  13  14
ATOM     14  S   UNL d   1      61.933  46.743  50.089  0.00  0.00    -0.076 SA
BRANCH  14  15
ATOM     15  C   UNL d   1      61.695  46.047  49.709  0.00  0.00     0.098 C 
BRANCH  15  16
ATOM     16  C   UNL d   1      62.102  45.340  49.838  0.00  0.00     0.286 C 
ATOM     17  N   UNL d   1      61.749  44.734  50.272  0.00  0.00    -0.208 NA
ATOM     18  O   UNL d   1      62.867  45.246  49.526  0.00  0.00    -0.265 OA
BRANCH  17  19
ATOM     19  C   UNL d   1      62.164  44.024  50.398  0.00  0.00     0.085 A 
ATOM     20  C   UNL d   1      62.648  43.726  49.808  0.00  0.00     0.019 A 
ATOM     21  C   UNL d   1      63.058  43.024  49.936  0.00  0.00     0.002 A 
ATOM     22  C   UNL d   1      62.977  42.621  50.661  0.00  0.00     0.000 A 
ATOM     23  C   UNL d   1      62.484  42.933  51.248  0.00  0.00     0.002 A 
ATOM     24  C   UNL d   1      62.075  43.636  51.121  0.00  0.00     0.019 A 
ENDBRANCH  17  19
ENDBRANCH  15  16
ENDBRANCH  14  15
ENDBRANCH  13  14
ENDBRANCH  11  13
ENDBRANCH   1  10
BRANCH   2  25
ATOM     25  C   UNL d   1      60.390  49.112  52.132  0.00  0.00     0.108 C 
BRANCH  25  26
ATOM     26  C   UNL d   1      61.085  49.549  52.174  0.00  0.00     0.135 C 
BRANCH  26  27
ATOM     27  O   UNL d   1      61.639  49.380  52.764  0.00  0.00    -0.325 OA
ATOM     28  C   UNL d   1      61.555  49.696  53.521  0.00  0.00     0.182 C 
ENDBRANCH  26  27
ENDBRANCH  25  26
ENDBRANCH   2  25
BRANCH   8  29
ATOM     29  O   UNL d   1      56.937  49.633  50.344  0.00  0.00    -0.328 OA
ATOM     30  C   UNL d   1      56.754  49.409  49.577  0.00  0.00     0.181 C 
ENDBRANCH   8  29
TORSDOF 10
ENDMDL
