MODEL 1
REMARK VINA RESULT:       8.2      0.000      0.000
REMARK  3 active torsions:
REMARK  status: ('A' for Active; 'I' for Inactive)
REMARK    1  A    between atoms: C_11  and  N_2 
REMARK    2  A    between atoms: C_16  and  C_6 
REMARK    3  A    between atoms: C_12  and  C_11 
ROOT
ATOM      1  C   UNL d   1     -42.007-122.501 -50.639  0.00  0.00     0.137 A 
ATOM      2  N   UNL d   1     -41.541-122.319 -51.978  0.00  0.00    -0.256 N 
ATOM      3  C   UNL d   1     -42.387-123.203 -50.863  0.00  0.00     0.192 A 
ATOM      4  C   UNL d   1     -41.584-122.058 -51.197  0.00  0.00     0.272 A 
ATOM      5  N   UNL d   1     -42.344-123.464 -51.641  0.00  0.00    -0.204 NA
ATOM      6  C   UNL d   1     -41.920-123.021 -52.205  0.00  0.00     0.152 A 
ATOM      7  C   UNL d   1     -42.052-122.241 -49.854  0.00  0.00     0.205 A 
ATOM      8  O   UNL d   1     -42.805-123.639 -50.304  0.00  0.00    -0.289 OA
ATOM      9  C   UNL d   1     -42.468-122.675 -49.302  0.00  0.00     0.062 A 
ATOM     10  C   UNL d   1     -42.847-123.374 -49.521  0.00  0.00     0.105 A 
ATOM     11  O   UNL d   1     -41.209-121.360 -50.969  0.00  0.00    -0.266 OA
ATOM     12  O   UNL d   1     -41.673-121.542 -49.634  0.00  0.00    -0.286 OA
ATOM     13  C   UNL d   1     -42.511-122.412 -48.515  0.00  0.00     0.005 A 
ATOM     14  C   UNL d   1     -43.272-123.817 -48.955  0.00  0.00     0.025 A 
ATOM     15  C   UNL d   1     -42.933-122.853 -47.958  0.00  0.00     0.000 A 
ATOM     16  C   UNL d   1     -43.312-123.553 -48.177  0.00  0.00     0.002 A 
ENDROOT
BRANCH   2  17
ATOM     17  C   UNL d   1     -41.123-121.879 -52.523  0.00  0.00     0.109 C 
BRANCH  17  18
ATOM     18  C   UNL d   1     -41.330-121.093 -52.669  0.00  0.00     0.118 A 
ATOM     19  O   UNL d   1     -41.153-120.454 -52.182  0.00  0.00    -0.304 OA
ATOM     20  C   UNL d   1     -41.460-119.782 -52.533  0.00  0.00     0.123 A 
ATOM     21  C   UNL d   1     -41.827-120.005 -53.238  0.00  0.00     0.029 A 
ATOM     22  C   UNL d   1     -41.745-120.814 -53.317  0.00  0.00     0.028 A 
ENDBRANCH  17  18
ENDBRANCH   2  17
BRANCH   6  23
ATOM     23  C   UNL d   1     -41.878-123.285 -52.988  0.00  0.00     0.035 A 
ATOM     24  C   UNL d   1     -41.164-123.555 -53.301  0.00  0.00     0.003 A 
ATOM     25  C   UNL d   1     -41.124-123.817 -54.078  0.00  0.00     0.000 A 
ATOM     26  C   UNL d   1     -41.804-123.808 -54.550  0.00  0.00     0.000 A 
ATOM     27  C   UNL d   1     -42.517-123.538 -54.236  0.00  0.00     0.000 A 
ATOM     28  C   UNL d   1     -42.562-123.275 -53.457  0.00  0.00     0.003 A 
ENDBRANCH   6  23
TORSDOF 3
ENDMDL
MODEL 2
REMARK VINA RESULT:       8.2      1.486      4.244
REMARK  3 active torsions:
REMARK  status: ('A' for Active; 'I' for Inactive)
REMARK    1  A    between atoms: C_11  and  N_2 
REMARK    2  A    between atoms: C_16  and  C_6 
REMARK    3  A    between atoms: C_12  and  C_11 
ROOT
ATOM      1  C   UNL d   1     -42.183-122.268 -52.628  0.00  0.00     0.137 A 
ATOM      2  N   UNL d   1     -42.329-122.056 -51.222  0.00  0.00    -0.256 N 
ATOM      3  C   UNL d   1     -41.617-122.856 -52.484  0.00  0.00     0.192 A 
ATOM      4  C   UNL d   1     -42.539-121.868 -51.996  0.00  0.00     0.272 A 
ATOM      5  N   UNL d   1     -41.406-123.044 -51.713  0.00  0.00    -0.204 NA
ATOM      6  C   UNL d   1     -41.762-122.644 -51.074  0.00  0.00     0.152 A 
ATOM      7  C   UNL d   1     -42.393-122.081 -53.407  0.00  0.00     0.205 A 
ATOM      8  O   UNL d   1     -41.266-123.250 -53.116  0.00  0.00    -0.289 OA
ATOM      9  C   UNL d   1     -42.044-122.473 -54.031  0.00  0.00     0.062 A 
ATOM     10  C   UNL d   1     -41.480-123.059 -53.892  0.00  0.00     0.105 A 
ATOM     11  O   UNL d   1     -43.102-121.284 -52.144  0.00  0.00    -0.266 OA
ATOM     12  O   UNL d   1     -42.957-121.495 -53.546  0.00  0.00    -0.286 OA
ATOM     13  C   UNL d   1     -42.257-122.283 -54.811  0.00  0.00     0.005 A 
ATOM     14  C   UNL d   1     -41.123-123.460 -54.531  0.00  0.00     0.025 A 
ATOM     15  C   UNL d   1     -41.902-122.683 -55.442  0.00  0.00     0.000 A 
ATOM     16  C   UNL d   1     -41.337-123.269 -55.302  0.00  0.00     0.002 A 
ENDROOT
BRANCH   2  17
ATOM     17  C   UNL d   1     -42.683-121.658 -50.603  0.00  0.00     0.109 C 
BRANCH  17  18
ATOM     18  C   UNL d   1     -43.451-121.852 -50.372  0.00  0.00     0.118 A 
ATOM     19  O   UNL d   1     -43.820-122.576 -50.498  0.00  0.00    -0.304 OA
ATOM     20  C   UNL d   1     -44.573-122.529 -50.182  0.00  0.00     0.123 A 
ATOM     21  C   UNL d   1     -44.671-121.776 -49.861  0.00  0.00     0.029 A 
ATOM     22  C   UNL d   1     -43.977-121.362 -49.980  0.00  0.00     0.028 A 
ENDBRANCH  17  18
ENDBRANCH   2  17
BRANCH   6  23
ATOM     23  C   UNL d   1     -41.549-122.835 -50.298  0.00  0.00     0.035 A 
ATOM     24  C   UNL d   1     -41.334-122.243 -49.765  0.00  0.00     0.003 A 
ATOM     25  C   UNL d   1     -41.123-122.433 -48.995  0.00  0.00     0.000 A 
ATOM     26  C   UNL d   1     -41.125-123.224 -48.753  0.00  0.00     0.000 A 
ATOM     27  C   UNL d   1     -41.340-123.816 -49.286  0.00  0.00     0.000 A 
ATOM     28  C   UNL d   1     -41.552-123.630 -50.059  0.00  0.00     0.003 A 
ENDBRANCH   6  23
TORSDOF 3
ENDMDL
