MODEL 1
REMARK VINA RESULT:      -9.2      0.000      0.000
REMARK  4 active torsions:
REMARK  status: ('A' for Active; 'I' for Inactive)
REMARK    1  A    between atoms: N_3  and  S_1 
REMARK    2  A    between atoms: C_6  and  S_1 
REMARK       I    between atoms: C_2  and  N_4 
REMARK       I    between atoms: N_5  and  C_2 
REMARK    3  A    between atoms: C_14  and  N_5 
REMARK    4  A    between atoms: C_15  and  N_5 
ROOT
ATOM      1  C   UNL d   1     -48.475  14.143  22.942  0.00  0.00     0.339 C 
ATOM      2  N   UNL d   1     -46.622  12.512  23.120  0.00  0.00    -0.226 N 
ATOM      3  N   UNL d   1     -47.848  13.591  23.002  0.00  0.00    -0.254 N 
ATOM      4  N   UNL d   1     -49.255  13.897  22.898  0.00  0.00    -0.260 N 
ATOM      5  C   UNL d   1     -46.453  13.328  23.104  0.00  0.00     0.111 A 
ATOM      6  C   UNL d   1     -47.401  12.249  23.077  0.00  0.00     0.111 A 
ATOM      7  O   UNL d   1     -48.297  14.952  22.927  0.00  0.00    -0.245 OA
ATOM      8  C   UNL d   1     -48.012  12.787  23.018  0.00  0.00     0.104 A 
ATOM      9  C   UNL d   1     -47.064  13.867  23.045  0.00  0.00     0.104 A 
ENDROOT
BRANCH   4  10
ATOM     10  C   UNL d   1     -49.430  13.074  22.914  0.00  0.00     0.068 A 
ATOM     11  C   UNL d   1     -49.604  12.711  23.647  0.00  0.00     0.018 A 
ATOM     12  C   UNL d   1     -49.778  11.898  23.672  0.00  0.00     0.002 A 
ATOM     13  C   UNL d   1     -49.775  11.452  22.962  0.00  0.00     0.000 A 
ATOM     14  C   UNL d   1     -49.600  11.821  22.232  0.00  0.00     0.002 A 
ATOM     15  C   UNL d   1     -49.426  12.642  22.211  0.00  0.00     0.018 A 
ENDBRANCH   4  10
BRANCH   4  16
ATOM     16  C   UNL d   1     -49.855  14.442  22.840  0.00  0.00     0.068 A 
ATOM     17  C   UNL d   1     -49.995  14.968  23.464  0.00  0.00     0.018 A 
ATOM     18  C   UNL d   1     -50.597  15.518  23.409  0.00  0.00     0.002 A 
ATOM     19  C   UNL d   1     -51.064  15.548  22.732  0.00  0.00     0.000 A 
ATOM     20  C   UNL d   1     -50.923  15.024  22.112  0.00  0.00     0.002 A 
ATOM     21  C   UNL d   1     -50.320  14.476  22.171  0.00  0.00     0.018 A 
ENDBRANCH   4  16
BRANCH   2  22
ATOM     22  S   UNL d   1     -46.005  11.968  23.179  0.00  0.00     0.271 S 
ATOM     23  O   UNL d   1     -46.144  11.169  23.038  0.00  0.00    -0.200 OA
ATOM     24  O   UNL d   1     -45.248  12.223  23.380  0.00  0.00    -0.200 OA
BRANCH  22  25
ATOM     25  C   UNL d   1     -45.387  11.425  23.239  0.00  0.00     0.104 A 
ATOM     26  C   UNL d   1     -45.506  10.706  23.639  0.00  0.00     0.013 A 
ATOM     27  C   UNL d   1     -44.889  10.163  23.698  0.00  0.00     0.001 A 
ATOM     28  C   UNL d   1     -44.152  10.337  23.358  0.00  0.00     0.000 A 
ATOM     29  C   UNL d   1     -44.040  11.054  22.961  0.00  0.00     0.001 A 
ATOM     30  C   UNL d   1     -43.534   9.794  23.417  0.00  0.00     0.000 C 
ATOM     31  C   UNL d   1     -44.654  11.594  22.902  0.00  0.00     0.013 A 
ENDBRANCH  22  25
ENDBRANCH   2  22
TORSDOF 4
ENDMDL
