MODEL 1
REMARK VINA RESULT:      38.6      0.000      0.000
REMARK  3 active torsions:
REMARK  status: ('A' for Active; 'I' for Inactive)
REMARK    1  A    between atoms: C_2  and  C_3 
REMARK    2  A    between atoms: C_5  and  C_2 
REMARK    3  A    between atoms: C_3  and  C_6 
ROOT
ATOM      1  N   UNL d   1     -51.720  25.379  33.578  0.00  0.00    -0.246 NA
ATOM      2  C   UNL d   1     -52.128  24.663  33.565  0.00  0.00     0.081 A 
ATOM      3  C   UNL d   1     -50.891  25.369  33.451  0.00  0.00     0.081 A 
ATOM      4  C   UNL d   1     -51.718  23.948  33.429  0.00  0.00     0.018 A 
ATOM      5  C   UNL d   1     -50.913  23.971  33.309  0.00  0.00     0.003 A 
ATOM      6  C   UNL d   1     -50.501  24.690  33.321  0.00  0.00     0.019 A 
ATOM      7  C   UNL d   1     -52.948  24.654  33.689  0.00  0.00     0.019 A 
ATOM      8  C   UNL d   1     -52.140  23.246  33.421  0.00  0.00     0.002 A 
ATOM      9  C   UNL d   1     -53.341  23.922  33.673  0.00  0.00     0.002 A 
ATOM     10  C   UNL d   1     -52.951  23.242  33.543  0.00  0.00     0.000 A 
ENDROOT
BRANCH   3  11
ATOM     11  C   UNL d   1     -50.449  26.077  33.457  0.00  0.00     0.019 C 
BRANCH  11  12
ATOM     12  C   UNL d   1     -50.633  26.684  33.971  0.00  0.00     0.005 C 
BRANCH  12  13
ATOM     13  C   UNL d   1     -50.396  27.455  33.795  0.00  0.00     0.039 A 
ATOM     14  C   UNL d   1     -50.928  27.983  33.483  0.00  0.00     0.196 A 
ATOM     15  O   UNL d   1     -51.734  27.767  33.328  0.00  0.00    -0.287 OA
ATOM     16  C   UNL d   1     -50.692  28.754  33.307  0.00  0.00     0.042 A 
ATOM     17  C   UNL d   1     -49.904  28.978  33.454  0.00  0.00     0.003 A 
ATOM     18  C   UNL d   1     -49.387  28.470  33.755  0.00  0.00     0.000 A 
ATOM     19  C   UNL d   1     -49.623  27.699  33.932  0.00  0.00     0.003 A 
ENDBRANCH  12  13
ENDBRANCH  11  12
ENDBRANCH   3  11
TORSDOF 3
ENDMDL
