MODEL 1
REMARK VINA RESULT:      70.0      0.000      0.000
REMARK  5 active torsions:
REMARK  status: ('A' for Active; 'I' for Inactive)
REMARK    1  A    between atoms: C_7  and  N_2 
REMARK    2  A    between atoms: C_14  and  C_7 
REMARK    3  A    between atoms: O_10  and  C_9 
REMARK    4  A    between atoms: C_11  and  O_10 
REMARK    5  A    between atoms: C_13  and  C_11 
ROOT
ATOM      1  C   UNL d   1     -47.392  30.383  35.620  0.00  0.00     0.265 A 
ATOM      2  N   UNL d   1     -47.559  30.915  35.012  0.00  0.00    -0.272 N 
ATOM      3  C   UNL d   1     -47.711  29.627  35.601  0.00  0.00     0.059 A 
ATOM      4  C   UNL d   1     -48.198  29.398  34.976  0.00  0.00     0.029 A 
ATOM      5  C   UNL d   1     -48.366  29.926  34.369  0.00  0.00     0.021 A 
ATOM      6  C   UNL d   1     -48.046  30.687  34.386  0.00  0.00     0.083 A 
ATOM      7  O   UNL d   1     -46.904  30.612  36.245  0.00  0.00    -0.267 OA
ATOM      8  C   UNL d   1     -48.518  28.637  34.959  0.00  0.00     0.100 A 
ATOM      9  C   UNL d   1     -47.544  29.094  36.209  0.00  0.00     0.005 A 
ATOM     10  C   UNL d   1     -47.863  28.334  36.193  0.00  0.00     0.002 A 
ATOM     11  C   UNL d   1     -48.350  28.105  35.567  0.00  0.00     0.025 A 
ENDROOT
BRANCH   8  12
ATOM     12  O   UNL d   1     -49.005  28.409  34.333  0.00  0.00    -0.305 OA
BRANCH  12  13
ATOM     13  C   UNL d   1     -49.049  27.614  34.115  0.00  0.00     0.122 C 
BRANCH  13  14
ATOM     14  C   UNL d   1     -49.778  27.282  33.916  0.00  0.00     0.025 A 
ATOM     15  C   UNL d   1     -49.931  26.489  34.087  0.00  0.00     0.004 A 
ATOM     16  C   UNL d   1     -50.659  26.156  33.888  0.00  0.00     0.030 A 
ATOM     17  C   UNL d   1     -51.235  26.617  33.517  0.00  0.00     0.140 A 
ATOM     18  C   UNL d   1     -51.082  27.410  33.345  0.00  0.00     0.030 A 
ATOM     19  F   UNL d   1     -51.963  26.285  33.318  0.00  0.00    -0.204 F 
ATOM     20  C   UNL d   1     -50.354  27.742  33.545  0.00  0.00     0.004 A 
ENDBRANCH  13  14
ENDBRANCH  12  13
ENDBRANCH   8  12
BRANCH   2  21
ATOM     21  C   UNL d   1     -47.233  31.683  35.033  0.00  0.00     0.083 C 
BRANCH  21  22
ATOM     22  C   UNL d   1     -47.515  32.269  34.525  0.00  0.00     0.018 A 
ATOM     23  C   UNL d   1     -47.054  32.512  33.888  0.00  0.00     0.002 A 
ATOM     24  C   UNL d   1     -47.335  33.098  33.380  0.00  0.00     0.000 A 
ATOM     25  C   UNL d   1     -48.076  33.438  33.511  0.00  0.00     0.000 A 
ATOM     26  C   UNL d   1     -48.531  33.190  34.149  0.00  0.00     0.000 A 
ATOM     27  C   UNL d   1     -48.250  32.604  34.657  0.00  0.00     0.002 A 
ENDBRANCH  21  22
ENDBRANCH   2  21
TORSDOF 5
ENDMDL
MODEL 2
REMARK VINA RESULT:      72.5      3.047      6.895
REMARK  5 active torsions:
REMARK  status: ('A' for Active; 'I' for Inactive)
REMARK    1  A    between atoms: C_7  and  N_2 
REMARK    2  A    between atoms: C_14  and  C_7 
REMARK    3  A    between atoms: O_10  and  C_9 
REMARK    4  A    between atoms: C_11  and  O_10 
REMARK    5  A    between atoms: C_13  and  C_11 
ROOT
ATOM      1  C   UNL d   1     -51.280  24.226  33.320  0.00  0.00     0.265 A 
ATOM      2  N   UNL d   1     -52.009  24.612  33.320  0.00  0.00    -0.272 N 
ATOM      3  C   UNL d   1     -50.585  24.663  33.334  0.00  0.00     0.059 A 
ATOM      4  C   UNL d   1     -50.615  25.487  33.347  0.00  0.00     0.029 A 
ATOM      5  C   UNL d   1     -51.339  25.875  33.347  0.00  0.00     0.021 A 
ATOM      6  C   UNL d   1     -52.039  25.437  33.334  0.00  0.00     0.083 A 
ATOM      7  O   UNL d   1     -51.251  23.402  33.307  0.00  0.00    -0.267 OA
ATOM      8  C   UNL d   1     -49.915  25.925  33.360  0.00  0.00     0.100 A 
ATOM      9  C   UNL d   1     -49.856  24.276  33.334  0.00  0.00     0.005 A 
ATOM     10  C   UNL d   1     -49.156  24.713  33.347  0.00  0.00     0.002 A 
ATOM     11  C   UNL d   1     -49.186  25.538  33.360  0.00  0.00     0.025 A 
ENDROOT
BRANCH   8  12
ATOM     12  O   UNL d   1     -49.944  26.749  33.373  0.00  0.00    -0.305 OA
BRANCH  12  13
ATOM     13  C   UNL d   1     -49.247  27.187  33.314  0.00  0.00     0.122 C 
BRANCH  13  14
ATOM     14  C   UNL d   1     -49.167  27.893  33.734  0.00  0.00     0.025 A 
ATOM     15  C   UNL d   1     -48.457  28.065  34.120  0.00  0.00     0.004 A 
ATOM     16  C   UNL d   1     -48.377  28.770  34.540  0.00  0.00     0.030 A 
ATOM     17  C   UNL d   1     -49.006  29.304  34.574  0.00  0.00     0.140 A 
ATOM     18  C   UNL d   1     -49.715  29.132  34.189  0.00  0.00     0.030 A 
ATOM     19  F   UNL d   1     -48.926  30.009  34.994  0.00  0.00    -0.204 F 
ATOM     20  C   UNL d   1     -49.796  28.427  33.769  0.00  0.00     0.004 A 
ENDBRANCH  13  14
ENDBRANCH  12  13
ENDBRANCH   8  12
BRANCH   2  21
ATOM     21  C   UNL d   1     -52.714  24.166  33.307  0.00  0.00     0.083 C 
BRANCH  21  22
ATOM     22  C   UNL d   1     -53.058  23.909  34.012  0.00  0.00     0.018 A 
ATOM     23  C   UNL d   1     -52.719  24.121  34.732  0.00  0.00     0.002 A 
ATOM     24  C   UNL d   1     -53.063  23.864  35.436  0.00  0.00     0.000 A 
ATOM     25  C   UNL d   1     -53.743  23.397  35.417  0.00  0.00     0.000 A 
ATOM     26  C   UNL d   1     -54.077  23.190  34.696  0.00  0.00     0.000 A 
ATOM     27  C   UNL d   1     -53.733  23.446  33.991  0.00  0.00     0.002 A 
ENDBRANCH  21  22
ENDBRANCH   2  21
TORSDOF 5
ENDMDL
MODEL 3
REMARK VINA RESULT:      72.6      2.644      6.459
REMARK  5 active torsions:
REMARK  status: ('A' for Active; 'I' for Inactive)
REMARK    1  A    between atoms: C_7  and  N_2 
REMARK    2  A    between atoms: C_14  and  C_7 
REMARK    3  A    between atoms: O_10  and  C_9 
REMARK    4  A    between atoms: C_11  and  O_10 
REMARK    5  A    between atoms: C_13  and  C_11 
ROOT
ATOM      1  C   UNL d   1     -51.377  25.749  33.363  0.00  0.00     0.265 A 
ATOM      2  N   UNL d   1     -50.789  25.170  33.361  0.00  0.00    -0.272 N 
ATOM      3  C   UNL d   1     -51.172  26.542  33.417  0.00  0.00     0.059 A 
ATOM      4  C   UNL d   1     -50.379  26.761  33.469  0.00  0.00     0.029 A 
ATOM      5  C   UNL d   1     -49.790  26.188  33.468  0.00  0.00     0.021 A 
ATOM      6  C   UNL d   1     -49.995  25.390  33.414  0.00  0.00     0.083 A 
ATOM      7  O   UNL d   1     -52.171  25.529  33.310  0.00  0.00    -0.267 OA
ATOM      8  C   UNL d   1     -50.174  27.559  33.524  0.00  0.00     0.100 A 
ATOM      9  C   UNL d   1     -51.761  27.120  33.418  0.00  0.00     0.005 A 
ATOM     10  C   UNL d   1     -51.557  27.918  33.473  0.00  0.00     0.002 A 
ATOM     11  C   UNL d   1     -50.763  28.137  33.525  0.00  0.00     0.025 A 
ENDROOT
BRANCH   8  12
ATOM     12  O   UNL d   1     -49.380  27.779  33.576  0.00  0.00    -0.305 OA
BRANCH  12  13
ATOM     13  C   UNL d   1     -48.967  27.664  34.281  0.00  0.00     0.122 C 
BRANCH  13  14
ATOM     14  C   UNL d   1     -48.583  28.299  34.642  0.00  0.00     0.025 A 
ATOM     15  C   UNL d   1     -48.561  29.035  34.267  0.00  0.00     0.004 A 
ATOM     16  C   UNL d   1     -48.178  29.670  34.628  0.00  0.00     0.030 A 
ATOM     17  C   UNL d   1     -47.815  29.570  35.363  0.00  0.00     0.140 A 
ATOM     18  C   UNL d   1     -47.837  28.835  35.737  0.00  0.00     0.030 A 
ATOM     19  F   UNL d   1     -47.432  30.205  35.723  0.00  0.00    -0.204 F 
ATOM     20  C   UNL d   1     -48.220  28.199  35.377  0.00  0.00     0.004 A 
ENDBRANCH  13  14
ENDBRANCH  12  13
ENDBRANCH   8  12
BRANCH   2  21
ATOM     21  C   UNL d   1     -51.000  24.365  33.306  0.00  0.00     0.083 C 
BRANCH  21  22
ATOM     22  C   UNL d   1     -51.703  24.095  33.644  0.00  0.00     0.018 A 
ATOM     23  C   UNL d   1     -51.676  23.622  34.317  0.00  0.00     0.002 A 
ATOM     24  C   UNL d   1     -52.379  23.352  34.655  0.00  0.00     0.000 A 
ATOM     25  C   UNL d   1     -53.104  23.556  34.318  0.00  0.00     0.000 A 
ATOM     26  C   UNL d   1     -53.124  24.029  33.647  0.00  0.00     0.000 A 
ATOM     27  C   UNL d   1     -52.421  24.299  33.309  0.00  0.00     0.002 A 
ENDBRANCH  21  22
ENDBRANCH   2  21
TORSDOF 5
ENDMDL
