MODEL 1
REMARK VINA RESULT:      32.8      0.000      0.000
REMARK  6 active torsions:
REMARK  status: ('A' for Active; 'I' for Inactive)
REMARK    1  A    between atoms: S_7  and  C_1 
REMARK       I    between atoms: C_6  and  N_9 
REMARK    2  A    between atoms: C_13  and  C_6 
REMARK    3  A    between atoms: C_15  and  S_7 
REMARK    4  A    between atoms: N_9  and  C_16 
REMARK    5  A    between atoms: O_14  and  C_13 
REMARK    6  A    between atoms: C_16  and  C_15 
ROOT
ATOM      1  C   UNL d   1     -51.169  25.547  33.306  0.00  0.00     0.049 A 
ATOM      2  N   UNL d   1     -52.503  25.526  33.306  0.00  0.00    -0.245 NA
ATOM      3  C   UNL d   1     -51.846  26.019  33.306  0.00  0.00     0.087 A 
ATOM      4  C   UNL d   1     -51.401  24.761  33.306  0.00  0.00     0.025 A 
ATOM      5  C   UNL d   1     -52.232  24.744  33.306  0.00  0.00     0.082 A 
ATOM      6  C   UNL d   1     -51.856  26.843  33.306  0.00  0.00     0.021 C 
ATOM      7  C   UNL d   1     -50.979  24.059  33.306  0.00  0.00     0.002 A 
ATOM      8  C   UNL d   1     -52.632  24.023  33.306  0.00  0.00     0.019 A 
ATOM      9  C   UNL d   1     -51.378  23.338  33.306  0.00  0.00     0.000 A 
ATOM     10  C   UNL d   1     -52.198  23.322  33.306  0.00  0.00     0.002 A 
ENDROOT
BRANCH   1  11
ATOM     11  S   UNL d   1     -50.389  25.818  33.306  0.00  0.00    -0.083 SA
BRANCH  11  12
ATOM     12  C   UNL d   1     -50.238  26.632  33.399  0.00  0.00     0.056 C 
BRANCH  12  13
ATOM     13  C   UNL d   1     -49.675  26.882  33.949  0.00  0.00     0.109 C 
BRANCH  13  14
ATOM     14  N   UNL d   1     -49.442  27.663  33.954  0.00  0.00    -0.204 NA
ATOM     15  C   UNL d   1     -48.780  27.888  34.387  0.00  0.00     0.304 C 
ATOM     16  O   UNL d   1     -48.352  27.326  34.816  0.00  0.00    -0.263 OA
BRANCH  15  17
ATOM     17  C   UNL d   1     -48.542  28.689  34.392  0.00  0.00     0.179 C 
BRANCH  17  18
ATOM     18  O   UNL d   1     -48.442  29.075  35.115  0.00  0.00    -0.322 OA
ATOM     19  C   UNL d   1     -47.729  29.001  35.531  0.00  0.00     0.182 C 
ENDBRANCH  17  18
ENDBRANCH  15  17
ENDBRANCH  13  14
ENDBRANCH  12  13
ENDBRANCH  11  12
ENDBRANCH   1  11
TORSDOF 6
ENDMDL
MODEL 2
REMARK VINA RESULT:      33.1      0.865      1.229
REMARK  6 active torsions:
REMARK  status: ('A' for Active; 'I' for Inactive)
REMARK    1  A    between atoms: S_7  and  C_1 
REMARK       I    between atoms: C_6  and  N_9 
REMARK    2  A    between atoms: C_13  and  C_6 
REMARK    3  A    between atoms: C_15  and  S_7 
REMARK    4  A    between atoms: N_9  and  C_16 
REMARK    5  A    between atoms: O_14  and  C_13 
REMARK    6  A    between atoms: C_16  and  C_15 
ROOT
ATOM      1  C   UNL d   1     -50.552  26.457  33.338  0.00  0.00     0.049 A 
ATOM      2  N   UNL d   1     -51.852  26.159  33.306  0.00  0.00    -0.245 NA
ATOM      3  C   UNL d   1     -51.312  26.778  33.321  0.00  0.00     0.087 A 
ATOM      4  C   UNL d   1     -50.616  25.641  33.334  0.00  0.00     0.025 A 
ATOM      5  C   UNL d   1     -51.425  25.451  33.314  0.00  0.00     0.082 A 
ATOM      6  C   UNL d   1     -51.493  27.583  33.319  0.00  0.00     0.021 C 
ATOM      7  C   UNL d   1     -50.057  25.041  33.346  0.00  0.00     0.002 A 
ATOM      8  C   UNL d   1     -51.666  24.662  33.306  0.00  0.00     0.019 A 
ATOM      9  C   UNL d   1     -50.298  24.253  33.337  0.00  0.00     0.000 A 
ATOM     10  C   UNL d   1     -51.096  24.067  33.318  0.00  0.00     0.002 A 
ENDROOT
BRANCH   1  11
ATOM     11  S   UNL d   1     -49.845  26.884  33.357  0.00  0.00    -0.083 SA
BRANCH  11  12
ATOM     12  C   UNL d   1     -49.510  27.089  34.091  0.00  0.00     0.056 C 
BRANCH  12  13
ATOM     13  C   UNL d   1     -49.170  27.837  34.190  0.00  0.00     0.109 C 
BRANCH  13  14
ATOM     14  N   UNL d   1     -48.560  27.930  34.722  0.00  0.00    -0.204 NA
ATOM     15  C   UNL d   1     -48.412  28.671  35.045  0.00  0.00     0.304 C 
ATOM     16  O   UNL d   1     -48.879  29.319  34.833  0.00  0.00    -0.263 OA
BRANCH  15  17
ATOM     17  C   UNL d   1     -47.787  28.766  35.591  0.00  0.00     0.179 C 
BRANCH  17  18
ATOM     18  O   UNL d   1     -47.675  29.501  35.951  0.00  0.00    -0.322 OA
ATOM     19  C   UNL d   1     -47.220  30.084  35.575  0.00  0.00     0.182 C 
ENDBRANCH  17  18
ENDBRANCH  15  17
ENDBRANCH  13  14
ENDBRANCH  12  13
ENDBRANCH  11  12
ENDBRANCH   1  11
TORSDOF 6
ENDMDL
MODEL 3
REMARK VINA RESULT:      34.9      0.973      1.632
REMARK  6 active torsions:
REMARK  status: ('A' for Active; 'I' for Inactive)
REMARK    1  A    between atoms: S_7  and  C_1 
REMARK       I    between atoms: C_6  and  N_9 
REMARK    2  A    between atoms: C_13  and  C_6 
REMARK    3  A    between atoms: C_15  and  S_7 
REMARK    4  A    between atoms: N_9  and  C_16 
REMARK    5  A    between atoms: O_14  and  C_13 
REMARK    6  A    between atoms: C_16  and  C_15 
ROOT
ATOM      1  C   UNL d   1     -50.554  26.020  33.316  0.00  0.00     0.049 A 
ATOM      2  N   UNL d   1     -50.872  24.724  33.306  0.00  0.00    -0.245 NA
ATOM      3  C   UNL d   1     -50.245  25.255  33.309  0.00  0.00     0.087 A 
ATOM      4  C   UNL d   1     -51.372  25.968  33.317  0.00  0.00     0.025 A 
ATOM      5  C   UNL d   1     -51.573  25.162  33.311  0.00  0.00     0.082 A 
ATOM      6  C   UNL d   1     -49.443  25.061  33.306  0.00  0.00     0.021 C 
ATOM      7  C   UNL d   1     -51.962  26.537  33.323  0.00  0.00     0.002 A 
ATOM      8  C   UNL d   1     -52.366  24.933  33.311  0.00  0.00     0.019 A 
ATOM      9  C   UNL d   1     -52.754  26.308  33.322  0.00  0.00     0.000 A 
ATOM     10  C   UNL d   1     -52.952  25.512  33.317  0.00  0.00     0.002 A 
ENDROOT
BRANCH   1  11
ATOM     11  S   UNL d   1     -50.116  26.720  33.320  0.00  0.00    -0.083 SA
BRANCH  11  12
ATOM     12  C   UNL d   1     -49.867  27.042  34.047  0.00  0.00     0.056 C 
BRANCH  12  13
ATOM     13  C   UNL d   1     -49.228  27.567  34.062  0.00  0.00     0.109 C 
BRANCH  13  14
ATOM     14  N   UNL d   1     -49.064  27.975  34.748  0.00  0.00    -0.204 NA
ATOM     15  C   UNL d   1     -48.311  28.281  34.870  0.00  0.00     0.304 C 
ATOM     16  O   UNL d   1     -47.722  28.176  34.300  0.00  0.00    -0.263 OA
BRANCH  15  17
ATOM     17  C   UNL d   1     -48.144  28.699  35.574  0.00  0.00     0.179 C 
BRANCH  17  18
ATOM     18  O   UNL d   1     -47.949  29.501  35.530  0.00  0.00    -0.322 OA
ATOM     19  C   UNL d   1     -47.466  29.843  36.111  0.00  0.00     0.182 C 
ENDBRANCH  17  18
ENDBRANCH  15  17
ENDBRANCH  13  14
ENDBRANCH  12  13
ENDBRANCH  11  12
ENDBRANCH   1  11
TORSDOF 6
ENDMDL
