MODEL 1
REMARK VINA RESULT:      -4.9      0.000      0.000
REMARK  3 active torsions:
REMARK  status: ('A' for Active; 'I' for Inactive)
REMARK    1  A    between atoms: S_9  and  C_3 
REMARK    2  A    between atoms: C_12  and  S_9 
REMARK    3  A    between atoms: C_14  and  C_12 
ROOT
ATOM      1  C   UNL d   1     -41.299-121.807 -52.473  0.00  0.00     0.155 A 
ATOM      2  C   UNL d   1     -41.380-122.632 -52.437  0.00  0.00     0.107 A 
ATOM      3  C   UNL d   1     -41.290-122.574 -51.013  0.00  0.00     0.182 A 
ATOM      4  N   UNL d   1     -41.210-121.758 -51.045  0.00  0.00    -0.250 N 
ATOM      5  N   UNL d   1     -41.375-123.018 -51.701  0.00  0.00    -0.220 NA
ATOM      6  C   UNL d   1     -41.215-121.372 -51.781  0.00  0.00     0.285 A 
ATOM      7  N   UNL d   1     -41.323-121.580 -53.266  0.00  0.00    -0.239 NA
ATOM      8  C   UNL d   1     -41.454-122.920 -53.206  0.00  0.00     0.037 A 
ATOM      9  C   UNL d   1     -41.419-122.266 -53.725  0.00  0.00     0.083 A 
ATOM     10  O   UNL d   1     -41.133-120.544 -51.808  0.00  0.00    -0.265 OA
ATOM     11  C   UNL d   1     -41.124-121.319 -50.345  0.00  0.00     0.104 C 
ATOM     12  C   UNL d   1     -41.548-123.680 -53.509  0.00  0.00     0.003 A 
ATOM     13  C   UNL d   1     -41.479-122.382 -54.544  0.00  0.00     0.019 A 
ATOM     14  C   UNL d   1     -41.608-123.795 -54.327  0.00  0.00     0.000 A 
ATOM     15  C   UNL d   1     -41.574-123.149 -54.840  0.00  0.00     0.002 A 
ENDROOT
BRANCH   3  16
ATOM     16  S   UNL d   1     -41.284-122.956 -50.278  0.00  0.00    -0.050 SA
BRANCH  16  17
ATOM     17  C   UNL d   1     -41.970-123.316 -49.990  0.00  0.00     0.032 C 
ATOM     18  C   UNL d   1     -42.538-123.604 -50.513  0.00  0.00     0.007 C 
BRANCH  17  19
ATOM     19  C   UNL d   1     -42.072-123.379 -49.174  0.00  0.00     0.006 A 
ATOM     20  C   UNL d   1     -42.756-123.087 -48.827  0.00  0.00     0.001 A 
ATOM     21  C   UNL d   1     -42.874-123.143 -48.005  0.00  0.00     0.000 A 
ATOM     22  C   UNL d   1     -42.296-123.494 -47.539  0.00  0.00     0.000 A 
ATOM     23  C   UNL d   1     -41.607-123.790 -47.877  0.00  0.00     0.000 A 
ATOM     24  C   UNL d   1     -41.497-123.730 -48.699  0.00  0.00     0.001 A 
ENDBRANCH  17  19
ENDBRANCH  16  17
ENDBRANCH   3  16
TORSDOF 3
ENDMDL
