MODEL 1
REMARK VINA RESULT:      39.6      0.000      0.000
REMARK  3 active torsions:
REMARK  status: ('A' for Active; 'I' for Inactive)
REMARK    1  A    between atoms: C_9  and  N_1 
REMARK    2  A    between atoms: C_8  and  C_3 
REMARK    3  A    between atoms: C_17  and  C_9 
ROOT
ATOM      1  N   UNL d   1      14.215  13.115  -2.328  0.00  0.00    -0.269 N 
ATOM      2  N   UNL d   1      13.858  14.172  -3.066  0.00  0.00    -0.204 NA
ATOM      3  C   UNL d   1      13.828  13.349  -3.021  0.00  0.00     0.174 A 
ATOM      4  C   UNL d   1      14.483  13.795  -1.946  0.00  0.00     0.185 A 
ATOM      5  C   UNL d   1      14.262  14.453  -2.402  0.00  0.00     0.199 A 
ATOM      6  N   UNL d   1      14.900  13.907  -1.242  0.00  0.00    -0.224 NA
ATOM      7  N   UNL d   1      14.456  15.209  -2.157  0.00  0.00    -0.223 NA
ATOM      8  C   UNL d   1      15.094  14.676  -0.998  0.00  0.00     0.101 A 
ATOM      9  C   UNL d   1      14.870  15.326  -1.459  0.00  0.00     0.101 A 
ATOM     10  C   UNL d   1      15.513  14.791  -0.291  0.00  0.00     0.021 A 
ATOM     11  C   UNL d   1      15.063  16.082  -1.213  0.00  0.00     0.021 A 
ATOM     12  C   UNL d   1      15.703  15.552  -0.053  0.00  0.00     0.002 A 
ATOM     13  C   UNL d   1      15.478  16.199  -0.514  0.00  0.00     0.002 A 
ENDROOT
BRANCH   1  14
ATOM     14  C   UNL d   1      14.318  12.346  -2.062  0.00  0.00     0.108 C 
BRANCH  14  15
ATOM     15  C   UNL d   1      14.084  12.145  -1.299  0.00  0.00     0.118 A 
ATOM     16  O   UNL d   1      13.308  12.114  -1.019  0.00  0.00    -0.304 OA
ATOM     17  C   UNL d   1      13.328  11.889  -0.228  0.00  0.00     0.123 A 
ATOM     18  C   UNL d   1      14.116  11.781  -0.015  0.00  0.00     0.029 A 
ATOM     19  C   UNL d   1      14.582  11.939  -0.675  0.00  0.00     0.028 A 
ENDBRANCH  14  15
ENDBRANCH   1  14
BRANCH   3  20
ATOM     20  C   UNL d   1      13.475  12.853  -3.572  0.00  0.00     0.135 A 
ATOM     21  O   UNL d   1      13.107  12.129  -3.384  0.00  0.00    -0.302 OA
ATOM     22  C   UNL d   1      12.804  11.785  -4.153  0.00  0.00     0.123 A 
ATOM     23  C   UNL d   1      13.005  12.326  -4.786  0.00  0.00     0.029 A 
ATOM     24  C   UNL d   1      13.430  13.001  -4.418  0.00  0.00     0.030 A 
ENDBRANCH   3  20
TORSDOF 3
ENDMDL
