MODEL 1
REMARK VINA RESULT:      84.4      0.000      0.000
REMARK  3 active torsions:
REMARK  status: ('A' for Active; 'I' for Inactive)
REMARK    1  A    between atoms: C_6  and  C_1 
REMARK    2  A    between atoms: O_19  and  C_9 
REMARK    3  A    between atoms: O_20  and  C_13 
ROOT
ATOM      1  C   UNL d   1      61.451  47.244  50.281  0.00  0.00     0.064 A 
ATOM      2  C   UNL d   1      61.120  46.485  50.340  0.00  0.00     0.007 A 
ATOM      3  C   UNL d   1      62.082  47.381  49.755  0.00  0.00     0.300 A 
ATOM      4  C   UNL d   1      61.414  45.865  49.879  0.00  0.00     0.026 A 
ATOM      5  O   UNL d   1      62.386  46.759  49.284  0.00  0.00    -0.273 OA
ATOM      6  C   UNL d   1      62.045  46.002  49.352  0.00  0.00     0.103 A 
ATOM      7  O   UNL d   1      62.413  48.137  49.695  0.00  0.00    -0.259 OA
ATOM      8  C   UNL d   1      61.090  45.107  49.932  0.00  0.00     0.044 A 
ATOM      9  C   UNL d   1      62.340  45.389  48.893  0.00  0.00     0.028 A 
ATOM     10  C   UNL d   1      61.384  44.503  49.476  0.00  0.00     0.196 A 
ATOM     11  C   UNL d   1      60.502  46.351  50.856  0.00  0.00     0.000 C 
ATOM     12  C   UNL d   1      62.009  44.638  48.954  0.00  0.00     0.044 A 
ATOM     13  O   UNL d   1      61.053  43.747  49.535  0.00  0.00    -0.287 OA
ENDROOT
BRANCH   1  14
ATOM     14  C   UNL d   1      61.157  47.860  50.742  0.00  0.00     0.007 A 
ATOM     15  C   UNL d   1      60.738  48.474  50.385  0.00  0.00     0.026 A 
ATOM     16  C   UNL d   1      60.442  49.089  50.837  0.00  0.00     0.116 A 
ATOM     17  C   UNL d   1      60.563  49.096  51.653  0.00  0.00     0.116 A 
ATOM     18  C   UNL d   1      60.985  48.478  52.017  0.00  0.00     0.026 A 
ATOM     19  C   UNL d   1      61.279  47.862  51.549  0.00  0.00     0.002 A 
BRANCH  16  20
ATOM     20  O   UNL d   1      60.023  49.706  50.490  0.00  0.00    -0.326 OA
ATOM     21  C   UNL d   1      59.202  49.657  50.433  0.00  0.00     0.181 C 
ENDBRANCH  16  20
BRANCH  17  22
ATOM     22  O   UNL d   1      60.272  49.708  52.121  0.00  0.00    -0.326 OA
ATOM     23  C   UNL d   1      60.293  49.625  52.948  0.00  0.00     0.181 C 
ENDBRANCH  17  22
ENDBRANCH   1  14
TORSDOF 3
ENDMDL
