MODEL 1
REMARK VINA RESULT:      -2.9      0.000      0.000
REMARK  4 active torsions:
REMARK  status: ('A' for Active; 'I' for Inactive)
REMARK    1  A    between atoms: N_15  and  C_6 
REMARK    2  A    between atoms: N_14  and  C_19 
REMARK    3  A    between atoms: C_18  and  N_15 
REMARK    4  A    between atoms: C_19  and  C_18 
ROOT
ATOM      1  N   UNL d   1      33.223  21.261 -21.654  0.00  0.00    -0.183 N 
ATOM      2  C   UNL d   1      33.229  22.079 -21.541  0.00  0.00     0.169 A 
ATOM      3  C   UNL d   1      33.229  22.394 -20.792  0.00  0.00     0.073 A 
ATOM      4  C   UNL d   1      33.223  21.886 -20.155  0.00  0.00     0.185 A 
ATOM      5  N   UNL d   1      33.217  21.069 -20.269  0.00  0.00    -0.142 NA
ATOM      6  C   UNL d   1      33.223  20.965 -22.411  0.00  0.00     0.218 A 
ATOM      7  N   UNL d   1      33.235  22.578 -22.188  0.00  0.00    -0.226 NA
ATOM      8  C   UNL d   1      33.234  23.202 -20.680  0.00  0.00     0.007 A 
ATOM      9  N   UNL d   1      33.222  22.190 -19.389  0.00  0.00    -0.225 NA
ATOM     10  C   UNL d   1      33.229  21.455 -23.054  0.00  0.00     0.071 A 
ATOM     11  C   UNL d   1      33.234  23.517 -19.929  0.00  0.00     0.019 A 
ATOM     12  C   UNL d   1      33.235  22.273 -22.941  0.00  0.00     0.087 A 
ATOM     13  C   UNL d   1      33.228  23.007 -19.276  0.00  0.00     0.083 A 
ATOM     14  C   UNL d   1      33.240  23.702 -21.329  0.00  0.00     0.000 C 
ATOM     15  C   UNL d   1      33.241  22.789 -23.614  0.00  0.00     0.021 C 
ATOM     16  C   UNL d   1      33.228  23.313 -18.527  0.00  0.00     0.021 C 
ENDROOT
BRANCH   6  17
ATOM     17  N   UNL d   1      33.217  20.120 -22.519  0.00  0.00    -0.379 NA
BRANCH  17  18
ATOM     18  C   UNL d   1      33.241  19.344 -22.830  0.00  0.00     0.182 C 
BRANCH  18  19
ATOM     19  C   UNL d   1      32.524  18.902 -22.862  0.00  0.00     0.116 C 
BRANCH  19  20
ATOM     20  N   UNL d   1      32.537  18.121 -23.209  0.00  0.00    -0.297 N 
ATOM     21  C   UNL d   1      32.040  17.948 -23.852  0.00  0.00     0.107 A 
ATOM     22  C   UNL d   1      32.053  17.164 -24.200  0.00  0.00     0.142 A 
ATOM     23  O   UNL d   1      32.566  16.572 -23.893  0.00  0.00    -0.300 OA
ATOM     24  C   UNL d   1      33.072  16.754 -23.236  0.00  0.00     0.142 A 
ATOM     25  C   UNL d   1      33.061  17.530 -22.890  0.00  0.00     0.107 A 
ENDBRANCH  19  20
ENDBRANCH  18  19
ENDBRANCH  17  18
ENDBRANCH   6  17
TORSDOF 4
ENDMDL
MODEL 2
REMARK VINA RESULT:      -0.4      2.199      6.186
REMARK  4 active torsions:
REMARK  status: ('A' for Active; 'I' for Inactive)
REMARK    1  A    between atoms: N_15  and  C_6 
REMARK    2  A    between atoms: N_14  and  C_19 
REMARK    3  A    between atoms: C_18  and  N_15 
REMARK    4  A    between atoms: C_19  and  C_18 
ROOT
ATOM      1  N   UNL d   1      31.423  17.963 -23.959  0.00  0.00    -0.183 N 
ATOM      2  C   UNL d   1      31.227  17.250 -24.325  0.00  0.00     0.169 A 
ATOM      3  C   UNL d   1      30.449  17.038 -24.430  0.00  0.00     0.073 A 
ATOM      4  C   UNL d   1      29.868  17.543 -24.168  0.00  0.00     0.185 A 
ATOM      5  N   UNL d   1      30.064  18.256 -23.802  0.00  0.00    -0.142 NA
ATOM      6  C   UNL d   1      32.206  18.157 -23.862  0.00  0.00     0.218 A 
ATOM      7  N   UNL d   1      31.819  16.750 -24.584  0.00  0.00    -0.226 NA
ATOM      8  C   UNL d   1      30.255  16.332 -24.792  0.00  0.00     0.007 A 
ATOM      9  N   UNL d   1      29.075  17.342 -24.268  0.00  0.00    -0.225 NA
ATOM     10  C   UNL d   1      32.795  17.667 -24.117  0.00  0.00     0.071 A 
ATOM     11  C   UNL d   1      29.477  16.120 -24.898  0.00  0.00     0.019 A 
ATOM     12  C   UNL d   1      32.599  16.954 -24.482  0.00  0.00     0.087 A 
ATOM     13  C   UNL d   1      28.879  16.629 -24.634  0.00  0.00     0.083 A 
ATOM     14  C   UNL d   1      30.851  15.832 -25.052  0.00  0.00     0.000 C 
ATOM     15  C   UNL d   1      33.217  16.437 -24.751  0.00  0.00     0.021 C 
ATOM     16  C   UNL d   1      28.103  16.425 -24.736  0.00  0.00     0.021 C 
ENDROOT
BRANCH   6  17
ATOM     17  N   UNL d   1      32.399  18.896 -23.483  0.00  0.00    -0.379 NA
BRANCH  17  18
ATOM     18  C   UNL d   1      32.510  19.702 -23.291  0.00  0.00     0.182 C 
BRANCH  18  19
ATOM     19  C   UNL d   1      33.239  19.935 -22.937  0.00  0.00     0.116 C 
BRANCH  19  20
ATOM     20  N   UNL d   1      33.223  20.501 -22.298  0.00  0.00    -0.297 N 
ATOM     21  C   UNL d   1      33.231  21.315 -22.467  0.00  0.00     0.107 A 
ATOM     22  C   UNL d   1      33.215  21.882 -21.824  0.00  0.00     0.142 A 
ATOM     23  O   UNL d   1      33.193  21.619 -21.025  0.00  0.00    -0.300 OA
ATOM     24  C   UNL d   1      33.185  20.787 -20.857  0.00  0.00     0.142 A 
ATOM     25  C   UNL d   1      33.200  20.222 -21.493  0.00  0.00     0.107 A 
ENDBRANCH  19  20
ENDBRANCH  18  19
ENDBRANCH  17  18
ENDBRANCH   6  17
TORSDOF 4
ENDMDL
