MODEL 1
REMARK VINA RESULT:      67.2      0.000      0.000
REMARK  5 active torsions:
REMARK  status: ('A' for Active; 'I' for Inactive)
REMARK    1  A    between atoms: C_9  and  C_3 
REMARK    2  A    between atoms: N_11  and  C_4 
REMARK    3  A    between atoms: C_17  and  N_11 
REMARK    4  A    between atoms: O_19  and  C_13 
REMARK    5  A    between atoms: O_20  and  C_15 
ROOT
ATOM      1  N   UNL d   1     -54.815-101.380 -40.129  0.00  0.00    -0.184 N 
ATOM      2  C   UNL d   1     -54.796-100.972 -40.860  0.00  0.00     0.168 A 
ATOM      3  C   UNL d   1     -54.811-101.384 -41.570  0.00  0.00     0.055 A 
ATOM      4  C   UNL d   1     -54.799-100.949 -39.428  0.00  0.00     0.218 A 
ATOM      5  N   UNL d   1     -54.864-102.624 -40.825  0.00  0.00    -0.162 NA
ATOM      6  C   UNL d   1     -54.845-102.216 -41.556  0.00  0.00     0.104 A 
ATOM      7  N   UNL d   1     -54.762-100.141 -40.875  0.00  0.00    -0.227 NA
ATOM      8  C   UNL d   1     -54.765-100.125 -39.427  0.00  0.00     0.071 A 
ATOM      9  C   UNL d   1     -54.746 -99.717 -40.158  0.00  0.00     0.087 A 
ATOM     10  C   UNL d   1     -54.860-102.638 -42.256  0.00  0.00     0.023 C 
ATOM     11  C   UNL d   1     -54.711 -98.857 -40.171  0.00  0.00     0.021 C 
ENDROOT
BRANCH   3  12
ATOM     12  C   UNL d   1     -54.792-100.983 -42.290  0.00  0.00     0.007 A 
ATOM     13  C   UNL d   1     -54.774-101.413 -42.994  0.00  0.00     0.026 A 
ATOM     14  C   UNL d   1     -54.755-101.005 -43.724  0.00  0.00     0.116 A 
ATOM     15  C   UNL d   1     -54.755-100.175 -43.736  0.00  0.00     0.116 A 
ATOM     16  C   UNL d   1     -54.774 -99.762 -43.026  0.00  0.00     0.026 A 
ATOM     17  C   UNL d   1     -54.792-100.168 -42.299  0.00  0.00     0.002 A 
BRANCH  14  18
ATOM     18  O   UNL d   1     -54.736-101.432 -44.452  0.00  0.00    -0.326 OA
ATOM     19  C   UNL d   1     -55.062-102.238 -44.490  0.00  0.00     0.181 C 
ENDBRANCH  14  18
BRANCH  15  20
ATOM     20  O   UNL d   1     -54.735 -99.754 -44.489  0.00  0.00    -0.326 OA
ATOM     21  C   UNL d   1     -55.255 -99.072 -44.606  0.00  0.00     0.181 C 
ENDBRANCH  15  20
ENDBRANCH   3  12
BRANCH   4  22
ATOM     22  N   UNL d   1     -54.818-101.367 -38.679  0.00  0.00    -0.383 NA
BRANCH  22  23
ATOM     23  C   UNL d   1     -54.835-101.740 -38.012  0.00  0.00     0.134 A 
ATOM     24  C   UNL d   1     -54.840-102.505 -38.010  0.00  0.00     0.032 A 
ATOM     25  C   UNL d   1     -54.857-102.877 -37.344  0.00  0.00     0.003 A 
ATOM     26  C   UNL d   1     -54.865-101.727 -36.693  0.00  0.00     0.003 A 
ATOM     27  C   UNL d   1     -54.848-101.353 -37.362  0.00  0.00     0.032 A 
ENDBRANCH  22  23
ENDBRANCH   4  22
TORSDOF 5
ENDMDL
