MODEL 1
REMARK VINA RESULT:      32.2      0.000      0.000
REMARK  3 active torsions:
REMARK  status: ('A' for Active; 'I' for Inactive)
REMARK    1  A    between atoms: N_2  and  S_1 
REMARK    2  A    between atoms: C_3  and  S_1 
REMARK    3  A    between atoms: C_10  and  C_9 
ROOT
ATOM      1  C   UNL d   1      24.153  12.373  -1.598  0.00  0.00     0.104 A 
ATOM      2  C   UNL d   1      24.356  12.747  -3.201  0.00  0.00     0.000 A 
ATOM      3  C   UNL d   1      24.089  11.784  -2.171  0.00  0.00     0.013 A 
ATOM      4  C   UNL d   1      24.319  13.147  -1.824  0.00  0.00     0.013 A 
ATOM      5  C   UNL d   1      24.421  13.335  -2.629  0.00  0.00     0.001 A 
ATOM      6  C   UNL d   1      24.191  11.972  -2.976  0.00  0.00     0.001 A 
ENDROOT
BRANCH   1   7
ATOM      7  S   UNL d   1      24.051  12.182  -0.802  0.00  0.00     0.271 S 
ATOM      8  O   UNL d   1      24.768  11.785  -0.800  0.00  0.00    -0.200 OA
ATOM      9  O   UNL d   1      23.952  11.991  -0.014  0.00  0.00    -0.200 OA
BRANCH   7  10
ATOM     10  N   UNL d   1      23.336  12.577  -0.804  0.00  0.00    -0.226 N 
ATOM     11  C   UNL d   1      22.708  12.292  -1.255  0.00  0.00     0.111 A 
ATOM     12  C   UNL d   1      21.990  12.700  -1.248  0.00  0.00     0.100 A 
ATOM     13  N   UNL d   1      21.900  13.382  -0.801  0.00  0.00    -0.299 N 
ATOM     14  C   UNL d   1      22.524  13.670  -0.350  0.00  0.00     0.100 A 
ATOM     15  C   UNL d   1      21.178  13.782  -0.803  0.00  0.00     0.100 C 
ATOM     16  C   UNL d   1      23.251  13.268  -0.348  0.00  0.00     0.111 A 
ENDBRANCH   7  10
ENDBRANCH   1   7
BRANCH   2  17
ATOM     17  C   UNL d   1      24.456  12.926  -3.992  0.00  0.00     0.000 A 
ATOM     18  C   UNL d   1      24.364  13.707  -4.257  0.00  0.00     0.000 A 
ATOM     19  C   UNL d   1      24.465  13.884  -5.057  0.00  0.00     0.000 A 
ATOM     20  C   UNL d   1      24.657  13.287  -5.589  0.00  0.00     0.000 A 
ATOM     21  C   UNL d   1      24.751  12.501  -5.326  0.00  0.00     0.000 A 
ATOM     22  C   UNL d   1      24.759  13.464  -6.389  0.00  0.00     0.000 C 
ATOM     23  C   UNL d   1      24.648  12.329  -4.525  0.00  0.00     0.000 A 
ENDBRANCH   2  17
TORSDOF 3
ENDMDL
