MODEL 1
REMARK VINA RESULT:      51.2      0.000      0.000
REMARK  4 active torsions:
REMARK  status: ('A' for Active; 'I' for Inactive)
REMARK    1  A    between atoms: C_2  and  S_1 
REMARK    2  A    between atoms: N_3  and  S_1 
REMARK    3  A    between atoms: C_7  and  N_3 
REMARK    4  A    between atoms: C_8  and  C_4 
ROOT
ATOM      1  S   UNL d   1     -51.856  25.598  33.470  0.00  0.00     0.285 S 
ATOM      2  O   UNL d   1     -52.329  26.275  33.429  0.00  0.00    -0.198 OA
ATOM      3  O   UNL d   1     -51.381  24.914  33.512  0.00  0.00    -0.198 OA
ENDROOT
BRANCH   1   4
ATOM      4  C   UNL d   1     -51.170  26.070  33.416  0.00  0.00     0.105 A 
ATOM      5  C   UNL d   1     -50.429  25.709  33.389  0.00  0.00     0.012 A 
ATOM      6  C   UNL d   1     -49.748  26.169  33.335  0.00  0.00     0.001 A 
ATOM      7  C   UNL d   1     -50.360  24.876  33.415  0.00  0.00     0.001 C 
ATOM      8  C   UNL d   1     -49.006  25.808  33.308  0.00  0.00     0.000 C 
ATOM      9  C   UNL d   1     -49.811  27.004  33.309  0.00  0.00     0.000 A 
ATOM     10  C   UNL d   1     -50.559  27.359  33.336  0.00  0.00     0.001 A 
ATOM     11  C   UNL d   1     -51.238  26.893  33.390  0.00  0.00     0.012 A 
ATOM     12  C   UNL d   1     -50.628  28.193  33.310  0.00  0.00     0.000 C 
ATOM     13  C   UNL d   1     -51.985  27.243  33.418  0.00  0.00     0.001 C 
ENDBRANCH   1   4
BRANCH   1  14
ATOM     14  N   UNL d   1     -52.537  25.126  33.524  0.00  0.00    -0.158 NA
BRANCH  14  15
ATOM     15  C   UNL d   1     -52.803  24.866  34.264  0.00  0.00     0.100 A 
ATOM     16  C   UNL d   1     -53.081  24.089  34.356  0.00  0.00     0.083 A 
ATOM     17  C   UNL d   1     -53.345  23.828  35.090  0.00  0.00     0.008 A 
ATOM     18  C   UNL d   1     -53.334  24.338  35.738  0.00  0.00     0.000 A 
ATOM     19  C   UNL d   1     -53.060  25.108  35.652  0.00  0.00     0.002 A 
ATOM     20  C   UNL d   1     -52.792  25.376  34.912  0.00  0.00     0.020 A 
BRANCH  16  21
ATOM     21  C   UNL d   1     -53.093  23.575  33.710  0.00  0.00     0.212 C 
ATOM     22  O   UNL d   1     -52.403  23.200  33.464  0.00  0.00    -0.644 OA
ATOM     23  O   UNL d   1     -53.799  23.436  33.307  0.00  0.00    -0.644 OA
ENDBRANCH  16  21
ENDBRANCH  14  15
ENDBRANCH   1  14
TORSDOF 4
ENDMDL
