MODEL 1
REMARK VINA RESULT:      56.4      0.000      0.000
REMARK  8 active torsions:
REMARK  status: ('A' for Active; 'I' for Inactive)
REMARK    1  A    between atoms: N_10  and  C_4 
REMARK    2  A    between atoms: C_17  and  N_5 
REMARK    3  A    between atoms: C_16  and  N_10 
REMARK    4  A    between atoms: C_11  and  S_19 
REMARK    5  A    between atoms: C_20  and  C_16 
REMARK    6  A    between atoms: C_21  and  C_17 
REMARK    7  A    between atoms: S_19  and  C_26 
REMARK    8  A    between atoms: C_26  and  C_21 
ROOT
ATOM      1  C   UNL d   1      46.357 -18.140  43.748  0.00  0.00     0.191 A 
ATOM      2  C   UNL d   1      46.434 -18.101  42.927  0.00  0.00     0.174 A 
ATOM      3  N   UNL d   1      46.225 -17.373  44.035  0.00  0.00    -0.042 NA
ATOM      4  C   UNL d   1      46.225 -16.870  43.367  0.00  0.00     0.722 A 
ATOM      5  N   UNL d   1      46.347 -17.245  42.644  0.00  0.00    -0.132 N 
ATOM      6  N   UNL d   1      46.415 -18.865  44.134  0.00  0.00    -0.239 N 
ATOM      7  C   UNL d   1      46.555 -19.580  43.699  0.00  0.00     0.358 A 
ATOM      8  N   UNL d   1      46.632 -19.542  42.878  0.00  0.00    -0.152 NA
ATOM      9  C   UNL d   1      46.570 -18.788  42.493  0.00  0.00     0.303 A 
ATOM     10  O   UNL d   1      46.616 -20.325  44.084  0.00  0.00    -0.244 OA
ATOM     11  O   UNL d   1      46.647 -18.750  41.672  0.00  0.00    -0.263 OA
ATOM     12  C   UNL d   1      46.338 -18.903  44.954  0.00  0.00     0.105 C 
ENDROOT
BRANCH   5  13
ATOM     13  C   UNL d   1      46.426 -17.220  41.831  0.00  0.00     0.099 C 
BRANCH  13  14
ATOM     14  C   UNL d   1      45.800 -17.477  41.365  0.00  0.00     0.027 C 
BRANCH  14  15
ATOM     15  C   UNL d   1      45.855 -17.428  40.552  0.00  0.00     0.040 C 
BRANCH  15  16
ATOM     16  S   UNL d   1      45.195 -17.611  40.086  0.00  0.00    -0.048 SA
BRANCH  16  17
ATOM     17  C   UNL d   1      45.079 -17.218  39.370  0.00  0.00     0.194 A 
ATOM     18  N   UNL d   1      45.718 -16.869  38.985  0.00  0.00    -0.220 NA
ATOM     19  C   UNL d   1      45.597 -16.483  38.279  0.00  0.00     0.103 A 
ATOM     20  C   UNL d   1      44.839 -16.440  37.950  0.00  0.00     0.041 A 
ATOM     21  C   UNL d   1      44.193 -16.790  38.336  0.00  0.00     0.103 A 
ATOM     22  N   UNL d   1      44.321 -17.181  39.052  0.00  0.00    -0.220 NA
ENDBRANCH  16  17
ENDBRANCH  15  16
ENDBRANCH  14  15
ENDBRANCH  13  14
ENDBRANCH   5  13
BRANCH   4  23
ATOM     23  N   UNL d   1      46.112 -16.054  43.395  0.00  0.00    -0.137 N 
ATOM     24  C   UNL d   1      46.082 -15.617  42.706  0.00  0.00     0.118 C 
BRANCH  23  25
ATOM     25  C   UNL d   1      46.030 -15.672  44.120  0.00  0.00     0.098 C 
BRANCH  25  26
ATOM     26  C   UNL d   1      45.596 -14.973  44.173  0.00  0.00     0.018 A 
ATOM     27  C   UNL d   1      45.889 -14.279  43.822  0.00  0.00     0.002 A 
ATOM     28  C   UNL d   1      45.460 -13.581  43.873  0.00  0.00     0.000 A 
ATOM     29  C   UNL d   1      44.734 -13.569  44.274  0.00  0.00     0.000 A 
ATOM     30  C   UNL d   1      44.445 -14.267  44.623  0.00  0.00     0.000 A 
ATOM     31  C   UNL d   1      44.877 -14.963  44.571  0.00  0.00     0.002 A 
ENDBRANCH  25  26
ENDBRANCH  23  25
ENDBRANCH   4  23
TORSDOF 8
ENDMDL
