MODEL 1
REMARK VINA RESULT:      66.4      0.000      0.000
REMARK  5 active torsions:
REMARK  status: ('A' for Active; 'I' for Inactive)
REMARK    1  A    between atoms: N_3  and  S_1 
REMARK    2  A    between atoms: C_13  and  S_1 
REMARK    3  A    between atoms: C_2  and  N_3 
REMARK    4  A    between atoms: N_9  and  C_4 
REMARK       I    between atoms: C_8  and  N_10 
REMARK    5  A    between atoms: C_19  and  C_8 
ROOT
ATOM      1  C   UNL d   1      46.447 -18.068  42.356  0.00  0.00     0.110 A 
ATOM      2  C   UNL d   1      46.214 -17.584  43.273  0.00  0.00     0.083 A 
ATOM      3  C   UNL d   1      46.389 -18.858  42.567  0.00  0.00     0.020 A 
ATOM      4  C   UNL d   1      46.077 -18.212  43.790  0.00  0.00     0.018 A 
ATOM      5  C   UNL d   1      46.186 -18.901  43.352  0.00  0.00     0.003 A 
ATOM      6  C   UNL d   1      46.089 -19.637  43.712  0.00  0.00     0.000 A 
ATOM      7  C   UNL d   1      46.502 -19.545  42.113  0.00  0.00     0.002 A 
ATOM      8  C   UNL d   1      45.874 -18.256  44.574  0.00  0.00     0.002 A 
ATOM      9  C   UNL d   1      46.401 -20.282  42.490  0.00  0.00     0.000 A 
ATOM     10  C   UNL d   1      45.772 -18.994  44.955  0.00  0.00     0.000 A 
ATOM     11  C   UNL d   1      46.196 -20.328  43.282  0.00  0.00     0.000 A 
ATOM     12  C   UNL d   1      45.884 -19.681  44.505  0.00  0.00     0.000 A 
ENDROOT
BRANCH   2  13
ATOM     13  N   UNL d   1      46.148 -16.815  43.544  0.00  0.00    -0.300 N 
ATOM     14  C   UNL d   1      46.647 -16.552  44.144  0.00  0.00     0.100 A 
ATOM     15  C   UNL d   1      46.576 -15.804  44.401  0.00  0.00     0.102 A 
ATOM     16  N   UNL d   1      46.009 -15.256  44.091  0.00  0.00    -0.269 N 
ATOM     17  C   UNL d   1      45.931 -14.478  44.354  0.00  0.00     0.265 C 
ATOM     18  C   UNL d   1      45.515 -15.518  43.497  0.00  0.00     0.102 A 
ATOM     19  O   UNL d   1      46.406 -14.158  44.955  0.00  0.00    -0.267 OA
ATOM     20  C   UNL d   1      45.588 -16.336  43.210  0.00  0.00     0.100 A 
BRANCH  17  21
ATOM     21  C   UNL d   1      45.361 -14.005  44.007  0.00  0.00     0.057 A 
ATOM     22  C   UNL d   1      45.538 -13.530  43.346  0.00  0.00     0.005 A 
ATOM     23  C   UNL d   1      44.954 -13.052  42.998  0.00  0.00     0.000 A 
ATOM     24  C   UNL d   1      44.180 -13.046  43.312  0.00  0.00     0.000 A 
ATOM     25  C   UNL d   1      44.007 -13.519  43.969  0.00  0.00     0.000 A 
ATOM     26  C   UNL d   1      44.594 -13.994  44.312  0.00  0.00     0.005 A 
ENDBRANCH  17  21
ENDBRANCH   2  13
BRANCH   1  27
ATOM     27  N   UNL d   1      46.644 -17.840  41.599  0.00  0.00    -0.157 NA
BRANCH  27  28
ATOM     28  S   UNL d   1      46.072 -17.753  41.013  0.00  0.00     0.285 S 
ATOM     29  O   UNL d   1      45.556 -18.214  41.461  0.00  0.00    -0.198 OA
ATOM     30  O   UNL d   1      46.589 -17.296  40.574  0.00  0.00    -0.198 OA
BRANCH  28  31
ATOM     31  C   UNL d   1      45.502 -17.671  40.435  0.00  0.00     0.105 A 
ATOM     32  C   UNL d   1      44.702 -17.602  40.639  0.00  0.00     0.013 A 
ATOM     33  C   UNL d   1      44.134 -17.520  40.056  0.00  0.00     0.001 A 
ATOM     34  C   UNL d   1      44.351 -17.504  39.270  0.00  0.00     0.000 A 
ATOM     35  C   UNL d   1      45.158 -17.572  39.045  0.00  0.00     0.001 A 
ATOM     36  C   UNL d   1      45.720 -17.655  39.644  0.00  0.00     0.013 A 
ENDBRANCH  28  31
ENDBRANCH  27  28
ENDBRANCH   1  27
TORSDOF 5
ENDMDL
