MODEL 1
REMARK VINA RESULT:      -7.7      0.000      0.000
REMARK  3 active torsions:
REMARK  status: ('A' for Active; 'I' for Inactive)
REMARK    1  A    between atoms: C_7  and  C_1 
REMARK    2  A    between atoms: C_9  and  C_6 
REMARK    3  A    between atoms: O_13  and  C_7 
ROOT
ATOM      1  C   UNL d   1     -48.279  13.784  22.778  0.00  0.00     0.097 A 
ATOM      2  C   UNL d   1     -47.505  14.058  22.769  0.00  0.00     0.073 A 
ATOM      3  C   UNL d   1     -47.040  12.761  23.142  0.00  0.00     0.206 A 
ATOM      4  N   UNL d   1     -46.882  13.553  22.949  0.00  0.00    -0.280 N 
ATOM      5  N   UNL d   1     -47.815  12.487  23.151  0.00  0.00    -0.218 NA
ATOM      6  C   UNL d   1     -48.448  12.998  22.968  0.00  0.00     0.090 A 
ATOM      7  S   UNL d   1     -46.416  12.252  23.323  0.00  0.00    -0.038 SA
ATOM      8  C   UNL d   1     -47.350  14.861  22.573  0.00  0.00     0.019 C 
ATOM      9  C   UNL d   1     -46.103  13.829  22.940  0.00  0.00     0.101 C 
ENDROOT
BRANCH   6  10
ATOM     10  C   UNL d   1     -49.232  12.720  22.978  0.00  0.00     0.018 A 
ATOM     11  C   UNL d   1     -49.654  12.718  23.687  0.00  0.00     0.002 A 
ATOM     12  C   UNL d   1     -50.429  12.444  23.697  0.00  0.00     0.000 A 
ATOM     13  C   UNL d   1     -50.782  12.171  22.997  0.00  0.00     0.000 A 
ATOM     14  C   UNL d   1     -50.352  12.177  22.297  0.00  0.00     0.000 A 
ATOM     15  C   UNL d   1     -49.577  12.452  22.287  0.00  0.00     0.002 A 
ENDBRANCH   6  10
BRANCH   1  16
ATOM     16  C   UNL d   1     -48.916  14.305  22.592  0.00  0.00     0.299 C 
ATOM     17  O   UNL d   1     -49.243  14.309  21.828  0.00  0.00    -0.259 OA
BRANCH  16  18
ATOM     18  O   UNL d   1     -49.209  14.811  23.181  0.00  0.00    -0.296 OA
ATOM     19  C   UNL d   1     -49.565  15.525  22.983  0.00  0.00     0.185 C 
ENDBRANCH  16  18
ENDBRANCH   1  16
TORSDOF 3
ENDMDL
MODEL 2
REMARK VINA RESULT:      -7.4      1.393      2.110
REMARK  3 active torsions:
REMARK  status: ('A' for Active; 'I' for Inactive)
REMARK    1  A    between atoms: C_7  and  C_1 
REMARK    2  A    between atoms: C_9  and  C_6 
REMARK    3  A    between atoms: O_13  and  C_7 
ROOT
ATOM      1  C   UNL d   1     -48.578  12.665  22.908  0.00  0.00     0.097 A 
ATOM      2  C   UNL d   1     -47.863  12.333  23.140  0.00  0.00     0.073 A 
ATOM      3  C   UNL d   1     -47.214  13.587  22.932  0.00  0.00     0.206 A 
ATOM      4  N   UNL d   1     -47.178  12.788  23.154  0.00  0.00    -0.280 N 
ATOM      5  N   UNL d   1     -47.929  13.918  22.699  0.00  0.00    -0.218 NA
ATOM      6  C   UNL d   1     -48.625  13.458  22.684  0.00  0.00     0.090 A 
ATOM      7  S   UNL d   1     -46.528  14.045  22.945  0.00  0.00    -0.038 SA
ATOM      8  C   UNL d   1     -47.833  11.524  23.365  0.00  0.00     0.019 C 
ATOM      9  C   UNL d   1     -46.460  12.455  23.388  0.00  0.00     0.101 C 
ENDROOT
BRANCH   6  10
ATOM     10  C   UNL d   1     -49.348  13.794  22.449  0.00  0.00     0.018 A 
ATOM     11  C   UNL d   1     -49.795  14.220  22.995  0.00  0.00     0.002 A 
ATOM     12  C   UNL d   1     -50.511  14.552  22.763  0.00  0.00     0.000 A 
ATOM     13  C   UNL d   1     -50.779  14.457  21.983  0.00  0.00     0.000 A 
ATOM     14  C   UNL d   1     -50.325  14.030  21.448  0.00  0.00     0.000 A 
ATOM     15  C   UNL d   1     -49.610  13.698  21.680  0.00  0.00     0.002 A 
ENDBRANCH   6  10
BRANCH   1  16
ATOM     16  C   UNL d   1     -49.279  12.194  22.895  0.00  0.00     0.299 C 
ATOM     17  O   UNL d   1     -49.536  11.848  22.184  0.00  0.00    -0.259 OA
BRANCH  16  18
ATOM     18  O   UNL d   1     -49.705  12.084  23.598  0.00  0.00    -0.296 OA
ATOM     19  C   UNL d   1     -50.189  11.428  23.698  0.00  0.00     0.185 C 
ENDBRANCH  16  18
ENDBRANCH   1  16
TORSDOF 3
ENDMDL
MODEL 3
REMARK VINA RESULT:      -7.2      1.777      3.289
REMARK  3 active torsions:
REMARK  status: ('A' for Active; 'I' for Inactive)
REMARK    1  A    between atoms: C_7  and  C_1 
REMARK    2  A    between atoms: C_9  and  C_6 
REMARK    3  A    between atoms: O_13  and  C_7 
ROOT
ATOM      1  C   UNL d   1     -48.861  13.200  22.924  0.00  0.00     0.097 A 
ATOM      2  C   UNL d   1     -49.657  13.368  23.042  0.00  0.00     0.073 A 
ATOM      3  C   UNL d   1     -49.378  14.763  22.943  0.00  0.00     0.206 A 
ATOM      4  N   UNL d   1     -49.921  14.146  23.053  0.00  0.00    -0.280 N 
ATOM      5  N   UNL d   1     -48.582  14.595  22.825  0.00  0.00    -0.218 NA
ATOM      6  C   UNL d   1     -48.312  13.807  22.813  0.00  0.00     0.090 A 
ATOM      7  S   UNL d   1     -49.641  15.546  22.954  0.00  0.00    -0.038 SA
ATOM      8  C   UNL d   1     -50.203  12.739  23.153  0.00  0.00     0.019 C 
ATOM      9  C   UNL d   1     -50.721  14.315  23.172  0.00  0.00     0.101 C 
ENDROOT
BRANCH   6  10
ATOM     10  C   UNL d   1     -47.507  13.637  22.694  0.00  0.00     0.018 A 
ATOM     11  C   UNL d   1     -46.986  13.666  23.333  0.00  0.00     0.002 A 
ATOM     12  C   UNL d   1     -46.190  13.498  23.214  0.00  0.00     0.000 A 
ATOM     13  C   UNL d   1     -45.915  13.301  22.457  0.00  0.00     0.000 A 
ATOM     14  C   UNL d   1     -46.443  13.275  21.828  0.00  0.00     0.000 A 
ATOM     15  C   UNL d   1     -47.239  13.443  21.946  0.00  0.00     0.002 A 
ENDBRANCH   6  10
BRANCH   1  16
ATOM     16  C   UNL d   1     -48.594  12.399  22.914  0.00  0.00     0.299 C 
ATOM     17  O   UNL d   1     -48.488  12.004  22.190  0.00  0.00    -0.259 OA
BRANCH  16  18
ATOM     18  O   UNL d   1     -48.439  12.016  23.633  0.00  0.00    -0.296 OA
ATOM     19  C   UNL d   1     -48.511  11.200  23.698  0.00  0.00     0.185 C 
ENDBRANCH  16  18
ENDBRANCH   1  16
TORSDOF 3
ENDMDL
MODEL 4
REMARK VINA RESULT:      -7.1      1.821      2.456
REMARK  3 active torsions:
REMARK  status: ('A' for Active; 'I' for Inactive)
REMARK    1  A    between atoms: C_7  and  C_1 
REMARK    2  A    between atoms: C_9  and  C_6 
REMARK    3  A    between atoms: O_13  and  C_7 
ROOT
ATOM      1  C   UNL d   1     -48.681  14.033  22.806  0.00  0.00     0.097 A 
ATOM      2  C   UNL d   1     -48.930  14.815  22.841  0.00  0.00     0.073 A 
ATOM      3  C   UNL d   1     -50.174  14.393  23.400  0.00  0.00     0.206 A 
ATOM      4  N   UNL d   1     -49.674  15.002  23.137  0.00  0.00    -0.280 N 
ATOM      5  N   UNL d   1     -49.924  13.611  23.365  0.00  0.00    -0.218 NA
ATOM      6  C   UNL d   1     -49.170  13.420  23.065  0.00  0.00     0.090 A 
ATOM      7  S   UNL d   1     -50.921  14.579  23.698  0.00  0.00    -0.038 SA
ATOM      8  C   UNL d   1     -48.421  15.427  22.573  0.00  0.00     0.019 C 
ATOM      9  C   UNL d   1     -49.925  15.788  23.172  0.00  0.00     0.101 C 
ENDROOT
BRANCH   6  10
ATOM     10  C   UNL d   1     -48.918  12.629  23.029  0.00  0.00     0.018 A 
ATOM     11  C   UNL d   1     -48.573  12.281  23.694  0.00  0.00     0.002 A 
ATOM     12  C   UNL d   1     -48.323  11.498  23.658  0.00  0.00     0.000 A 
ATOM     13  C   UNL d   1     -48.418  11.063  22.958  0.00  0.00     0.000 A 
ATOM     14  C   UNL d   1     -48.763  11.420  22.303  0.00  0.00     0.000 A 
ATOM     15  C   UNL d   1     -49.012  12.202  22.338  0.00  0.00     0.002 A 
ENDBRANCH   6  10
BRANCH   1  16
ATOM     16  C   UNL d   1     -47.916  13.845  22.501  0.00  0.00     0.299 C 
ATOM     17  O   UNL d   1     -47.829  13.609  21.709  0.00  0.00    -0.259 OA
BRANCH  16  18
ATOM     18  O   UNL d   1     -47.258  13.899  23.003  0.00  0.00    -0.296 OA
ATOM     19  C   UNL d   1     -46.511  14.062  22.700  0.00  0.00     0.185 C 
ENDBRANCH  16  18
ENDBRANCH   1  16
TORSDOF 3
ENDMDL
MODEL 5
REMARK VINA RESULT:      -7.0      1.152      2.772
REMARK  3 active torsions:
REMARK  status: ('A' for Active; 'I' for Inactive)
REMARK    1  A    between atoms: C_7  and  C_1 
REMARK    2  A    between atoms: C_9  and  C_6 
REMARK    3  A    between atoms: O_13  and  C_7 
ROOT
ATOM      1  C   UNL d   1     -48.974  13.392  22.714  0.00  0.00     0.097 A 
ATOM      2  C   UNL d   1     -49.750  13.149  22.836  0.00  0.00     0.073 A 
ATOM      3  C   UNL d   1     -49.278  11.913  23.370  0.00  0.00     0.206 A 
ATOM      4  N   UNL d   1     -49.908  12.412  23.163  0.00  0.00    -0.280 N 
ATOM      5  N   UNL d   1     -48.502  12.156  23.248  0.00  0.00    -0.218 NA
ATOM      6  C   UNL d   1     -48.339  12.904  22.917  0.00  0.00     0.090 A 
ATOM      7  S   UNL d   1     -49.435  11.172  23.698  0.00  0.00    -0.038 SA
ATOM      8  C   UNL d   1     -50.383  13.658  22.624  0.00  0.00     0.019 C 
ATOM      9  C   UNL d   1     -50.687  12.167  23.285  0.00  0.00     0.101 C 
ENDROOT
BRANCH   6  10
ATOM     10  C   UNL d   1     -47.555  13.150  22.794  0.00  0.00     0.018 A 
ATOM     11  C   UNL d   1     -47.143  13.518  23.407  0.00  0.00     0.002 A 
ATOM     12  C   UNL d   1     -46.368  13.761  23.285  0.00  0.00     0.000 A 
ATOM     13  C   UNL d   1     -46.003  13.637  22.550  0.00  0.00     0.000 A 
ATOM     14  C   UNL d   1     -46.423  13.269  21.947  0.00  0.00     0.000 A 
ATOM     15  C   UNL d   1     -47.199  13.026  22.069  0.00  0.00     0.002 A 
ENDBRANCH   6  10
BRANCH   1  16
ATOM     16  C   UNL d   1     -48.815  14.151  22.378  0.00  0.00     0.299 C 
ATOM     17  O   UNL d   1     -48.664  14.223  21.565  0.00  0.00    -0.259 OA
BRANCH  16  18
ATOM     18  O   UNL d   1     -48.812  14.818  22.871  0.00  0.00    -0.296 OA
ATOM     19  C   UNL d   1     -49.040  15.553  22.584  0.00  0.00     0.185 C 
ENDBRANCH  16  18
ENDBRANCH   1  16
TORSDOF 3
ENDMDL
MODEL 6
REMARK VINA RESULT:      -6.1      1.595      2.860
REMARK  3 active torsions:
REMARK  status: ('A' for Active; 'I' for Inactive)
REMARK    1  A    between atoms: C_7  and  C_1 
REMARK    2  A    between atoms: C_9  and  C_6 
REMARK    3  A    between atoms: O_13  and  C_7 
ROOT
ATOM      1  C   UNL d   1     -48.379  12.918  23.112  0.00  0.00     0.097 A 
ATOM      2  C   UNL d   1     -48.332  12.124  23.322  0.00  0.00     0.073 A 
ATOM      3  C   UNL d   1     -49.753  12.071  23.442  0.00  0.00     0.206 A 
ATOM      4  N   UNL d   1     -49.014  11.696  23.488  0.00  0.00    -0.280 N 
ATOM      5  N   UNL d   1     -49.800  12.864  23.233  0.00  0.00    -0.218 NA
ATOM      6  C   UNL d   1     -49.110  13.300  23.064  0.00  0.00     0.090 A 
ATOM      7  S   UNL d   1     -50.438  11.642  23.608  0.00  0.00    -0.038 SA
ATOM      8  C   UNL d   1     -47.581  11.750  23.366  0.00  0.00     0.019 C 
ATOM      9  C   UNL d   1     -48.966  10.899  23.698  0.00  0.00     0.101 C 
ENDROOT
BRANCH   6  10
ATOM     10  C   UNL d   1     -49.158  14.102  22.852  0.00  0.00     0.018 A 
ATOM     11  C   UNL d   1     -49.234  14.310  22.057  0.00  0.00     0.002 A 
ATOM     12  C   UNL d   1     -49.282  15.103  21.847  0.00  0.00     0.000 A 
ATOM     13  C   UNL d   1     -49.254  15.690  22.433  0.00  0.00     0.000 A 
ATOM     14  C   UNL d   1     -49.178  15.472  23.222  0.00  0.00     0.000 A 
ATOM     15  C   UNL d   1     -49.130  14.679  23.431  0.00  0.00     0.002 A 
ENDBRANCH   6  10
BRANCH   1  16
ATOM     16  C   UNL d   1     -47.677  13.354  22.942  0.00  0.00     0.299 C 
ATOM     17  O   UNL d   1     -47.364  13.878  23.507  0.00  0.00    -0.259 OA
BRANCH  16  18
ATOM     18  O   UNL d   1     -47.307  13.253  22.207  0.00  0.00    -0.296 OA
ATOM     19  C   UNL d   1     -46.496  13.362  22.127  0.00  0.00     0.185 C 
ENDBRANCH  16  18
ENDBRANCH   1  16
TORSDOF 3
ENDMDL
MODEL 7
REMARK VINA RESULT:      -5.5      8.858     10.228
REMARK  3 active torsions:
REMARK  status: ('A' for Active; 'I' for Inactive)
REMARK    1  A    between atoms: C_7  and  C_1 
REMARK    2  A    between atoms: C_9  and  C_6 
REMARK    3  A    between atoms: O_13  and  C_7 
ROOT
ATOM      1  C   UNL d   1     -39.579  14.509  17.782  0.00  0.00     0.097 A 
ATOM      2  C   UNL d   1     -39.153  14.203  17.149  0.00  0.00     0.073 A 
ATOM      3  C   UNL d   1     -38.512  13.279  18.028  0.00  0.00     0.206 A 
ATOM      4  N   UNL d   1     -38.619  13.589  17.265  0.00  0.00    -0.280 N 
ATOM      5  N   UNL d   1     -38.937  13.585  18.661  0.00  0.00    -0.218 NA
ATOM      6  C   UNL d   1     -39.480  14.208  18.545  0.00  0.00     0.090 A 
ATOM      7  S   UNL d   1     -37.976  12.662  18.146  0.00  0.00    -0.038 SA
ATOM      8  C   UNL d   1     -39.266  14.520  16.380  0.00  0.00     0.019 C 
ATOM      9  C   UNL d   1     -38.191  13.281  16.629  0.00  0.00     0.101 C 
ENDROOT
BRANCH   6  10
ATOM     10  C   UNL d   1     -39.910  14.518  19.185  0.00  0.00     0.018 A 
ATOM     11  C   UNL d   1     -40.619  14.159  19.411  0.00  0.00     0.002 A 
ATOM     12  C   UNL d   1     -41.044  14.465  20.044  0.00  0.00     0.000 A 
ATOM     13  C   UNL d   1     -40.762  15.130  20.452  0.00  0.00     0.000 A 
ATOM     14  C   UNL d   1     -40.055  15.479  20.218  0.00  0.00     0.000 A 
ATOM     15  C   UNL d   1     -39.629  15.173  19.585  0.00  0.00     0.002 A 
ENDBRANCH   6  10
BRANCH   1  16
ATOM     16  C   UNL d   1     -40.127  15.140  17.659  0.00  0.00     0.299 C 
ATOM     17  O   UNL d   1     -39.910  15.921  17.839  0.00  0.00    -0.259 OA
BRANCH  16  18
ATOM     18  O   UNL d   1     -40.880  14.967  17.359  0.00  0.00    -0.296 OA
ATOM     19  C   UNL d   1     -41.292  15.521  16.913  0.00  0.00     0.185 C 
ENDBRANCH  16  18
ENDBRANCH   1  16
TORSDOF 3
ENDMDL
