MODEL 1
REMARK VINA RESULT:      -3.3      0.000      0.000
REMARK  9 active torsions:
REMARK  status: ('A' for Active; 'I' for Inactive)
REMARK       I    between atoms: N_2  and  C_1 
REMARK    1  A    between atoms: C_16  and  C_1 
REMARK    2  A    between atoms: C_8  and  N_2 
REMARK    3  A    between atoms: N_4  and  C_3 
REMARK    4  A    between atoms: C_17  and  N_4 
REMARK    5  A    between atoms: C_18  and  N_4 
REMARK    6  A    between atoms: C_12  and  O_14 
REMARK    7  A    between atoms: O_14  and  C_21 
REMARK    8  A    between atoms: C_23  and  C_16 
REMARK    9  A    between atoms: C_21  and  C_23 
ROOT
ATOM      1  C   UNL d   1      32.893  18.891 -22.537  0.00  0.00     0.328 C 
ATOM      2  N   UNL d   1      32.877  19.659 -22.210  0.00  0.00    -0.365 NA
ATOM      3  O   UNL d   1      33.238  18.279 -22.116  0.00  0.00    -0.251 OA
ENDROOT
BRANCH   1   4
ATOM      4  C   UNL d   1      32.565  18.752 -23.273  0.00  0.00     0.078 C 
BRANCH   4   5
ATOM      5  C   UNL d   1      32.391  17.988 -23.511  0.00  0.00     0.033 C 
BRANCH   5   6
ATOM      6  C   UNL d   1      31.681  17.817 -23.910  0.00  0.00     0.123 C 
BRANCH   6   7
ATOM      7  O   UNL d   1      31.485  17.035 -24.090  0.00  0.00    -0.305 OA
BRANCH   7   8
ATOM      8  C   UNL d   1      30.704  16.850 -24.267  0.00  0.00     0.100 A 
ATOM      9  C   UNL d   1      30.198  17.450 -24.588  0.00  0.00     0.025 A 
ATOM     10  C   UNL d   1      29.405  17.256 -24.766  0.00  0.00     0.002 A 
ATOM     11  C   UNL d   1      28.926  17.847 -25.077  0.00  0.00     0.000 C 
ATOM     12  C   UNL d   1      29.112  16.502 -24.637  0.00  0.00     0.000 A 
ATOM     13  C   UNL d   1      29.602  15.917 -24.325  0.00  0.00     0.002 A 
ATOM     14  C   UNL d   1      30.406  16.085 -24.136  0.00  0.00     0.025 A 
ENDBRANCH   7   8
ENDBRANCH   6   7
ENDBRANCH   5   6
ENDBRANCH   4   5
ENDBRANCH   1   4
BRANCH   2  15
ATOM     15  C   UNL d   1      32.857  20.417 -21.895  0.00  0.00     0.135 A 
ATOM     16  C   UNL d   1      32.759  20.540 -21.083  0.00  0.00     0.034 A 
ATOM     17  C   UNL d   1      32.741  21.292 -20.779  0.00  0.00     0.020 A 
ATOM     18  C   UNL d   1      32.818  21.946 -21.270  0.00  0.00     0.064 A 
ATOM     19  C   UNL d   1      32.917  21.835 -22.092  0.00  0.00     0.020 A 
ATOM     20  C   UNL d   1      32.937  21.072 -22.407  0.00  0.00     0.034 A 
BRANCH  18  21
ATOM     21  N   UNL d   1      32.800  22.715 -20.964  0.00  0.00    -0.304 N 
BRANCH  21  22
ATOM     22  C   UNL d   1      32.473  23.330 -21.425  0.00  0.00     0.080 C 
ATOM     23  C   UNL d   1      31.773  23.697 -21.188  0.00  0.00     0.021 C 
ENDBRANCH  21  22
BRANCH  21  24
ATOM     24  C   UNL d   1      33.097  22.882 -20.218  0.00  0.00     0.080 C 
ATOM     25  C   UNL d   1      33.237  23.660 -19.999  0.00  0.00     0.021 C 
ENDBRANCH  21  24
ENDBRANCH  18  21
ENDBRANCH   2  15
TORSDOF 9
ENDMDL
