MODEL 1
REMARK VINA RESULT:       0.7      0.000      0.000
REMARK  7 active torsions:
REMARK  status: ('A' for Active; 'I' for Inactive)
REMARK    1  A    between atoms: C_11  and  C_1 
REMARK    2  A    between atoms: C_12  and  C_3 
REMARK    3  A    between atoms: C_10  and  C_5 
REMARK    4  A    between atoms: O_21  and  C_11 
REMARK    5  A    between atoms: O_22  and  C_12 
REMARK    6  A    between atoms: O_23  and  C_14 
REMARK    7  A    between atoms: O_24  and  C_17 
ROOT
ATOM      1  C   UNL d   1      58.329  -0.822  30.312  0.00  0.00     0.075 A 
ATOM      2  C   UNL d   1      59.465   0.269  29.840  0.00  0.00     0.121 A 
ATOM      3  C   UNL d   1      58.337  -0.057  30.631  0.00  0.00     0.099 A 
ATOM      4  C   UNL d   1      59.465  -0.492  29.516  0.00  0.00     0.058 A 
ATOM      5  C   UNL d   1      58.891  -1.037  29.757  0.00  0.00     0.014 A 
ATOM      6  S   UNL d   1      58.904   0.485  30.394  0.00  0.00    -0.062 SA
ATOM      7  N   UNL d   1      60.091   0.682  29.499  0.00  0.00    -0.195 NA
ATOM      8  C   UNL d   1      60.476   0.187  28.971  0.00  0.00     0.311 A 
ATOM      9  S   UNL d   1      60.089  -0.543  28.979  0.00  0.00    -0.024 SA
ATOM     10  O   UNL d   1      61.133   0.375  28.509  0.00  0.00    -0.258 OA
ENDROOT
BRANCH   5  11
ATOM     11  C   UNL d   1      58.892  -1.795  29.434  0.00  0.00     0.003 A 
ATOM     12  C   UNL d   1      59.510  -2.305  29.589  0.00  0.00     0.026 A 
ATOM     13  C   UNL d   1      59.506  -3.064  29.263  0.00  0.00     0.116 A 
ATOM     14  C   UNL d   1      58.879  -3.302  28.782  0.00  0.00     0.116 A 
ATOM     15  C   UNL d   1      58.257  -2.782  28.628  0.00  0.00     0.026 A 
ATOM     16  C   UNL d   1      58.261  -2.032  28.952  0.00  0.00     0.002 A 
BRANCH  13  17
ATOM     17  O   UNL d   1      60.130  -3.581  29.418  0.00  0.00    -0.326 OA
ATOM     18  C   UNL d   1      60.907  -3.298  29.427  0.00  0.00     0.181 C 
ENDBRANCH  13  17
BRANCH  14  19
ATOM     19  O   UNL d   1      58.875  -4.062  28.455  0.00  0.00    -0.326 OA
ATOM     20  C   UNL d   1      59.088  -4.710  28.917  0.00  0.00     0.181 C 
ENDBRANCH  14  19
ENDBRANCH   5  11
BRANCH   1  21
ATOM     21  C   UNL d   1      57.759  -1.364  30.551  0.00  0.00     0.296 C 
ATOM     22  O   UNL d   1      57.375  -1.836  29.993  0.00  0.00    -0.259 OA
BRANCH  21  23
ATOM     23  O   UNL d   1      57.569  -1.437  31.351  0.00  0.00    -0.296 OA
ATOM     24  C   UNL d   1      56.894  -1.849  31.572  0.00  0.00     0.185 C 
ENDBRANCH  21  23
ENDBRANCH   1  21
BRANCH   3  25
ATOM     25  C   UNL d   1      57.775   0.158  31.186  0.00  0.00     0.302 C 
ATOM     26  O   UNL d   1      57.004   0.336  30.956  0.00  0.00    -0.259 OA
BRANCH  25  27
ATOM     27  O   UNL d   1      57.980   0.200  31.984  0.00  0.00    -0.295 OA
ATOM     28  C   UNL d   1      57.533   0.667  32.498  0.00  0.00     0.185 C 
ENDBRANCH  25  27
ENDBRANCH   3  25
TORSDOF 7
ENDMDL
MODEL 2
REMARK VINA RESULT:       1.1      2.095      3.999
REMARK  7 active torsions:
REMARK  status: ('A' for Active; 'I' for Inactive)
REMARK    1  A    between atoms: C_11  and  C_1 
REMARK    2  A    between atoms: C_12  and  C_3 
REMARK    3  A    between atoms: C_10  and  C_5 
REMARK    4  A    between atoms: O_21  and  C_11 
REMARK    5  A    between atoms: O_22  and  C_12 
REMARK    6  A    between atoms: O_23  and  C_14 
REMARK    7  A    between atoms: O_24  and  C_17 
ROOT
ATOM      1  C   UNL d   1      59.113   0.045  30.317  0.00  0.00     0.075 A 
ATOM      2  C   UNL d   1      58.182   0.355  28.997  0.00  0.00     0.121 A 
ATOM      3  C   UNL d   1      59.457   0.112  29.566  0.00  0.00     0.099 A 
ATOM      4  C   UNL d   1      57.831   0.290  29.743  0.00  0.00     0.058 A 
ATOM      5  C   UNL d   1      58.305   0.134  30.405  0.00  0.00     0.014 A 
ATOM      6  S   UNL d   1      58.990   0.266  28.909  0.00  0.00    -0.062 SA
ATOM      7  N   UNL d   1      57.581   0.509  28.455  0.00  0.00    -0.195 NA
ATOM      8  C   UNL d   1      56.867   0.540  28.856  0.00  0.00     0.311 A 
ATOM      9  S   UNL d   1      57.019   0.404  29.657  0.00  0.00    -0.024 SA
ATOM     10  O   UNL d   1      56.123   0.681  28.527  0.00  0.00    -0.258 OA
ENDROOT
BRANCH   5  11
ATOM     11  C   UNL d   1      57.954   0.069  31.147  0.00  0.00     0.003 A 
ATOM     12  C   UNL d   1      57.493  -0.580  31.326  0.00  0.00     0.026 A 
ATOM     13  C   UNL d   1      57.143  -0.640  32.072  0.00  0.00     0.116 A 
ATOM     14  C   UNL d   1      57.261  -0.045  32.632  0.00  0.00     0.116 A 
ATOM     15  C   UNL d   1      57.729   0.610  32.445  0.00  0.00     0.026 A 
ATOM     16  C   UNL d   1      58.074   0.668  31.706  0.00  0.00     0.002 A 
BRANCH  13  17
ATOM     17  O   UNL d   1      56.677  -1.295  32.256  0.00  0.00    -0.326 OA
ATOM     18  C   UNL d   1      55.855  -1.252  32.173  0.00  0.00     0.181 C 
ENDBRANCH  13  17
BRANCH  14  19
ATOM     19  O   UNL d   1      56.911  -0.105  33.379  0.00  0.00    -0.326 OA
ATOM     20  C   UNL d   1      56.436   0.506  33.661  0.00  0.00     0.181 C 
ENDBRANCH  14  19
ENDBRANCH   5  11
BRANCH   1  21
ATOM     21  C   UNL d   1      59.583  -0.109  30.973  0.00  0.00     0.296 C 
ATOM     22  O   UNL d   1      59.619  -0.873  31.286  0.00  0.00    -0.259 OA
BRANCH  21  23
ATOM     23  O   UNL d   1      60.020   0.498  31.321  0.00  0.00    -0.296 OA
ATOM     24  C   UNL d   1      60.452   0.349  32.003  0.00  0.00     0.185 C 
ENDBRANCH  21  23
ENDBRANCH   1  21
BRANCH   3  25
ATOM     25  C   UNL d   1      60.265   0.024  29.478  0.00  0.00     0.302 C 
ATOM     26  O   UNL d   1      60.751   0.682  29.380  0.00  0.00    -0.259 OA
BRANCH  25  27
ATOM     27  O   UNL d   1      60.600  -0.731  29.487  0.00  0.00    -0.295 OA
ATOM     28  C   UNL d   1      61.072  -0.977  28.855  0.00  0.00     0.185 C 
ENDBRANCH  25  27
ENDBRANCH   3  25
TORSDOF 7
ENDMDL
MODEL 3
REMARK VINA RESULT:       2.7      2.244      4.298
REMARK  7 active torsions:
REMARK  status: ('A' for Active; 'I' for Inactive)
REMARK    1  A    between atoms: C_11  and  C_1 
REMARK    2  A    between atoms: C_12  and  C_3 
REMARK    3  A    between atoms: C_10  and  C_5 
REMARK    4  A    between atoms: O_21  and  C_11 
REMARK    5  A    between atoms: O_22  and  C_12 
REMARK    6  A    between atoms: O_23  and  C_14 
REMARK    7  A    between atoms: O_24  and  C_17 
ROOT
ATOM      1  C   UNL d   1      58.139   0.062  31.285  0.00  0.00     0.075 A 
ATOM      2  C   UNL d   1      59.351   0.387  32.347  0.00  0.00     0.121 A 
ATOM      3  C   UNL d   1      58.918   0.157  31.018  0.00  0.00     0.099 A 
ATOM      4  C   UNL d   1      58.577   0.293  32.622  0.00  0.00     0.058 A 
ATOM      5  C   UNL d   1      57.970   0.130  32.082  0.00  0.00     0.014 A 
ATOM      6  S   UNL d   1      59.521   0.319  31.550  0.00  0.00    -0.062 SA
ATOM      7  N   UNL d   1      59.827   0.543  33.001  0.00  0.00    -0.195 NA
ATOM      8  C   UNL d   1      59.357   0.547  33.673  0.00  0.00     0.311 A 
ATOM      9  S   UNL d   1      58.580   0.392  33.440  0.00  0.00    -0.024 SA
ATOM     10  O   UNL d   1      59.607   0.681  34.448  0.00  0.00    -0.258 OA
ENDROOT
BRANCH   5  11
ATOM     11  C   UNL d   1      57.199   0.037  32.357  0.00  0.00     0.003 A 
ATOM     12  C   UNL d   1      56.960  -0.679  32.668  0.00  0.00     0.026 A 
ATOM     13  C   UNL d   1      56.185  -0.767  32.942  0.00  0.00     0.116 A 
ATOM     14  C   UNL d   1      55.659  -0.133  32.900  0.00  0.00     0.116 A 
ATOM     15  C   UNL d   1      55.907   0.588  32.584  0.00  0.00     0.026 A 
ATOM     16  C   UNL d   1      56.673   0.674  32.313  0.00  0.00     0.002 A 
BRANCH  13  17
ATOM     17  O   UNL d   1      55.941  -1.490  33.257  0.00  0.00    -0.326 OA
ATOM     18  C   UNL d   1      56.210  -2.196  32.923  0.00  0.00     0.181 C 
ENDBRANCH  13  17
BRANCH  14  19
ATOM     19  O   UNL d   1      54.883  -0.221  33.174  0.00  0.00    -0.326 OA
ATOM     20  C   UNL d   1      54.499   0.413  33.533  0.00  0.00     0.181 C 
ENDBRANCH  14  19
ENDBRANCH   5  11
BRANCH   1  21
ATOM     21  C   UNL d   1      57.537  -0.101  30.749  0.00  0.00     0.296 C 
ATOM     22  O   UNL d   1      57.210   0.507  30.296  0.00  0.00    -0.259 OA
BRANCH  21  23
ATOM     23  O   UNL d   1      57.258  -0.873  30.664  0.00  0.00    -0.296 OA
ATOM     24  C   UNL d   1      56.982  -1.127  29.933  0.00  0.00     0.185 C 
ENDBRANCH  21  23
ENDBRANCH   1  21
BRANCH   3  25
ATOM     25  C   UNL d   1      59.087   0.089  30.221  0.00  0.00     0.302 C 
ATOM     26  O   UNL d   1      58.781  -0.536  29.778  0.00  0.00    -0.259 OA
BRANCH  25  27
ATOM     27  O   UNL d   1      59.569   0.649  29.853  0.00  0.00    -0.295 OA
ATOM     28  C   UNL d   1      59.843   0.513  29.085  0.00  0.00     0.185 C 
ENDBRANCH  25  27
ENDBRANCH   3  25
TORSDOF 7
ENDMDL
