MODEL 1
REMARK VINA RESULT:      22.2      0.000      0.000
REMARK  2 active torsions:
REMARK  status: ('A' for Active; 'I' for Inactive)
REMARK    1  A    between atoms: C_7  and  C_1 
REMARK    2  A    between atoms: C_5  and  C_3 
ROOT
ATOM      1  C   UNL d   1     -50.693  24.702  33.379  0.00  0.00     0.067 A 
ATOM      2  N   UNL d   1     -51.747  25.972  33.394  0.00  0.00    -0.244 NA
ATOM      3  C   UNL d   1     -50.936  26.117  33.395  0.00  0.00     0.104 A 
ATOM      4  C   UNL d   1     -50.408  25.485  33.387  0.00  0.00     0.027 A 
ATOM      5  C   UNL d   1     -51.504  24.559  33.378  0.00  0.00     0.024 A 
ATOM      6  C   UNL d   1     -52.032  25.190  33.385  0.00  0.00     0.082 A 
ATOM      7  C   UNL d   1     -51.786  23.784  33.369  0.00  0.00     0.002 A 
ATOM      8  C   UNL d   1     -52.850  25.049  33.384  0.00  0.00     0.019 A 
ATOM      9  C   UNL d   1     -52.597  23.640  33.368  0.00  0.00     0.000 A 
ATOM     10  C   UNL d   1     -53.133  24.274  33.376  0.00  0.00     0.002 A 
ENDROOT
BRANCH   3  11
ATOM     11  C   UNL d   1     -50.652  26.895  33.403  0.00  0.00     0.118 A 
ATOM     12  O   UNL d   1     -49.872  27.156  33.458  0.00  0.00    -0.304 OA
ATOM     13  C   UNL d   1     -49.885  27.982  33.443  0.00  0.00     0.123 A 
ATOM     14  C   UNL d   1     -50.660  28.225  33.381  0.00  0.00     0.029 A 
ATOM     15  C   UNL d   1     -51.134  27.551  33.356  0.00  0.00     0.028 A 
ENDBRANCH   3  11
BRANCH   1  16
ATOM     16  C   UNL d   1     -50.155  24.062  33.371  0.00  0.00     0.211 C 
ATOM     17  O   UNL d   1     -49.344  24.215  33.404  0.00  0.00    -0.644 OA
ATOM     18  O   UNL d   1     -50.434  23.285  33.331  0.00  0.00    -0.644 OA
ENDBRANCH   1  16
TORSDOF 2
ENDMDL
