MODEL 1
REMARK VINA RESULT:      -9.0      0.000      0.000
REMARK  3 active torsions:
REMARK  status: ('A' for Active; 'I' for Inactive)
REMARK    1  A    between atoms: N_2  and  C_1 
REMARK    2  A    between atoms: C_5  and  C_1 
REMARK    3  A    between atoms: C_3  and  N_2 
ROOT
ATOM      1  N   UNL d   1      52.652  32.771  53.234  0.00  0.00    -0.233 NA
ENDROOT
BRANCH   1   2
ATOM      2  C   UNL d   1      53.308  32.289  53.289  0.00  0.00     0.153 C 
ATOM      3  S   UNL d   1      54.068  32.614  53.323  0.00  0.00    -0.056 SA
BRANCH   2   4
ATOM      4  C   UNL d   1      53.218  31.470  53.312  0.00  0.00     0.109 A 
ATOM      5  N   UNL d   1      52.731  31.092  52.760  0.00  0.00    -0.242 NA
ATOM      6  C   UNL d   1      52.641  30.275  52.783  0.00  0.00     0.099 A 
ATOM      7  C   UNL d   1      53.036  29.831  53.355  0.00  0.00     0.021 A 
ATOM      8  C   UNL d   1      53.525  30.200  53.910  0.00  0.00     0.003 A 
ATOM      9  C   UNL d   1      53.617  31.022  53.889  0.00  0.00     0.021 A 
ENDBRANCH   2   4
ENDBRANCH   1   2
BRANCH   1  10
ATOM     10  C   UNL d   1      52.689  33.552  53.515  0.00  0.00     0.082 A 
ATOM     11  C   UNL d   1      52.309  34.150  53.091  0.00  0.00     0.018 A 
ATOM     12  C   UNL d   1      52.346  34.931  53.373  0.00  0.00     0.002 A 
ATOM     13  C   UNL d   1      51.899  33.979  52.399  0.00  0.00     0.002 C 
ATOM     14  C   UNL d   1      52.757  35.102  54.065  0.00  0.00     0.000 A 
ATOM     15  C   UNL d   1      53.133  34.490  54.478  0.00  0.00     0.002 A 
ATOM     16  C   UNL d   1      53.097  33.717  54.202  0.00  0.00     0.019 A 
ATOM     17  C   UNL d   1      53.547  34.655  55.176  0.00  0.00     0.000 C 
ENDBRANCH   1  10
TORSDOF 3
ENDMDL
MODEL 2
REMARK VINA RESULT:      -8.4      1.362      3.196
REMARK  3 active torsions:
REMARK  status: ('A' for Active; 'I' for Inactive)
REMARK    1  A    between atoms: N_2  and  C_1 
REMARK    2  A    between atoms: C_5  and  C_1 
REMARK    3  A    between atoms: C_3  and  N_2 
ROOT
ATOM      1  N   UNL d   1      52.260  33.157  53.400  0.00  0.00    -0.233 NA
ENDROOT
BRANCH   1   2
ATOM      2  C   UNL d   1      52.114  33.916  53.140  0.00  0.00     0.153 C 
ATOM      3  S   UNL d   1      52.684  34.509  53.230  0.00  0.00    -0.056 SA
BRANCH   2   4
ATOM      4  C   UNL d   1      51.394  34.099  52.784  0.00  0.00     0.109 A 
ATOM      5  N   UNL d   1      51.332  34.111  51.959  0.00  0.00    -0.242 NA
ATOM      6  C   UNL d   1      50.612  34.294  51.604  0.00  0.00     0.099 A 
ATOM      7  C   UNL d   1      49.952  34.465  52.069  0.00  0.00     0.021 A 
ATOM      8  C   UNL d   1      50.005  34.456  52.894  0.00  0.00     0.003 A 
ATOM      9  C   UNL d   1      50.728  34.272  53.254  0.00  0.00     0.021 A 
ENDBRANCH   2   4
ENDBRANCH   1   2
BRANCH   1  10
ATOM     10  C   UNL d   1      52.992  32.973  53.748  0.00  0.00     0.082 A 
ATOM     11  C   UNL d   1      53.369  32.268  53.546  0.00  0.00     0.018 A 
ATOM     12  C   UNL d   1      54.100  32.085  53.894  0.00  0.00     0.002 A 
ATOM     13  C   UNL d   1      53.027  31.750  53.005  0.00  0.00     0.002 C 
ATOM     14  C   UNL d   1      54.441  32.603  54.435  0.00  0.00     0.000 A 
ATOM     15  C   UNL d   1      54.050  33.308  54.628  0.00  0.00     0.002 A 
ATOM     16  C   UNL d   1      53.327  33.490  54.284  0.00  0.00     0.019 A 
ATOM     17  C   UNL d   1      54.388  33.834  55.171  0.00  0.00     0.000 C 
ENDBRANCH   1  10
TORSDOF 3
ENDMDL
MODEL 3
REMARK VINA RESULT:      -7.7      1.282      3.558
REMARK  3 active torsions:
REMARK  status: ('A' for Active; 'I' for Inactive)
REMARK    1  A    between atoms: N_2  and  C_1 
REMARK    2  A    between atoms: C_5  and  C_1 
REMARK    3  A    between atoms: C_3  and  N_2 
ROOT
ATOM      1  N   UNL d   1      53.180  32.202  53.832  0.00  0.00    -0.233 NA
ENDROOT
BRANCH   1   2
ATOM      2  C   UNL d   1      53.923  32.538  53.835  0.00  0.00     0.153 C 
ATOM      3  S   UNL d   1      54.506  32.275  53.310  0.00  0.00    -0.056 SA
BRANCH   2   4
ATOM      4  C   UNL d   1      54.101  33.145  54.364  0.00  0.00     0.109 A 
ATOM      5  N   UNL d   1      53.533  33.722  54.536  0.00  0.00    -0.242 NA
ATOM      6  C   UNL d   1      53.711  34.328  55.064  0.00  0.00     0.099 A 
ATOM      7  C   UNL d   1      54.453  34.360  55.422  0.00  0.00     0.021 A 
ATOM      8  C   UNL d   1      55.026  33.788  55.256  0.00  0.00     0.003 A 
ATOM      9  C   UNL d   1      54.850  33.178  54.725  0.00  0.00     0.021 A 
ENDBRANCH   2   4
ENDBRANCH   1   2
BRANCH   1  10
ATOM     10  C   UNL d   1      53.086  31.407  53.608  0.00  0.00     0.082 A 
ATOM     11  C   UNL d   1      52.617  31.227  52.954  0.00  0.00     0.018 A 
ATOM     12  C   UNL d   1      52.524  30.433  52.730  0.00  0.00     0.002 A 
ATOM     13  C   UNL d   1      52.245  31.823  52.526  0.00  0.00     0.002 C 
ATOM     14  C   UNL d   1      52.896  29.836  53.157  0.00  0.00     0.000 A 
ATOM     15  C   UNL d   1      53.364  30.034  53.812  0.00  0.00     0.002 A 
ATOM     16  C   UNL d   1      53.457  30.819  54.035  0.00  0.00     0.019 A 
ATOM     17  C   UNL d   1      53.741  29.439  54.247  0.00  0.00     0.000 C 
ENDBRANCH   1  10
TORSDOF 3
ENDMDL
