MODEL 1
REMARK VINA RESULT:      -7.7      0.000      0.000
REMARK  7 active torsions:
REMARK  status: ('A' for Active; 'I' for Inactive)
REMARK    1  A    between atoms: C_10  and  C_3 
REMARK    2  A    between atoms: N_12  and  C_4 
REMARK    3  A    between atoms: O_23  and  C_11 
REMARK    4  A    between atoms: C_25  and  N_12 
REMARK    5  A    between atoms: O_26  and  C_13 
REMARK    6  A    between atoms: C_18  and  C_28 
REMARK    7  A    between atoms: C_28  and  C_25 
ROOT
ATOM      1  C   UNL d   1      48.126  35.485  52.555  0.00  0.00     0.168 A 
ATOM      2  N   UNL d   1      48.867  35.370  52.929  0.00  0.00    -0.184 N 
ATOM      3  C   UNL d   1      47.553  35.902  52.923  0.00  0.00     0.057 A 
ATOM      4  C   UNL d   1      49.427  34.952  52.550  0.00  0.00     0.218 A 
ATOM      5  N   UNL d   1      48.410  36.106  54.030  0.00  0.00    -0.160 NA
ATOM      6  N   UNL d   1      47.994  35.174  51.827  0.00  0.00    -0.227 NA
ATOM      7  C   UNL d   1      49.302  34.635  51.813  0.00  0.00     0.071 A 
ATOM      8  C   UNL d   1      47.692  36.217  53.667  0.00  0.00     0.124 A 
ATOM      9  C   UNL d   1      48.572  34.748  51.445  0.00  0.00     0.087 A 
ATOM     10  C   UNL d   1      48.434  34.420  50.676  0.00  0.00     0.021 C 
ENDROOT
BRANCH   4  11
ATOM     11  N   UNL d   1      50.176  34.834  52.925  0.00  0.00    -0.380 NA
BRANCH  11  12
ATOM     12  C   UNL d   1      50.820  34.459  53.321  0.00  0.00     0.163 C 
BRANCH  12  13
ATOM     13  C   UNL d   1      51.556  34.394  52.922  0.00  0.00     0.035 C 
BRANCH  13  14
ATOM     14  C   UNL d   1      52.216  34.072  53.339  0.00  0.00     0.005 A 
ATOM     15  C   UNL d   1      52.432  33.256  53.204  0.00  0.00     0.026 A 
ATOM     16  C   UNL d   1      53.099  32.923  53.622  0.00  0.00     0.116 A 
ATOM     17  C   UNL d   1      53.540  33.411  54.169  0.00  0.00     0.116 A 
ATOM     18  C   UNL d   1      53.318  34.209  54.292  0.00  0.00     0.026 A 
ATOM     19  C   UNL d   1      52.649  34.539  53.871  0.00  0.00     0.002 A 
BRANCH  16  20
ATOM     20  O   UNL d   1      53.317  32.128  53.497  0.00  0.00    -0.326 OA
ATOM     21  C   UNL d   1      52.886  31.650  52.955  0.00  0.00     0.181 C 
ENDBRANCH  16  20
BRANCH  17  22
ATOM     22  O   UNL d   1      54.196  33.084  54.580  0.00  0.00    -0.326 OA
ATOM     23  C   UNL d   1      54.831  33.579  54.841  0.00  0.00     0.181 C 
ENDBRANCH  17  22
ENDBRANCH  13  14
ENDBRANCH  12  13
ENDBRANCH  11  12
ENDBRANCH   4  11
BRANCH   3  24
ATOM     24  C   UNL d   1      46.835  36.013  52.560  0.00  0.00     0.005 A 
ATOM     25  C   UNL d   1      46.748  36.597  52.016  0.00  0.00     0.001 A 
ATOM     26  C   UNL d   1      46.030  36.708  51.654  0.00  0.00     0.011 A 
ATOM     27  C   UNL d   1      45.410  36.234  51.840  0.00  0.00     0.058 A 
ATOM     28  C   UNL d   1      45.509  35.649  52.390  0.00  0.00     0.011 A 
ATOM     29 CL   UNL d   1      44.658  36.351  51.461  0.00  0.00    -0.082 Cl
ATOM     30  C   UNL d   1      46.215  35.539  52.747  0.00  0.00     0.001 A 
ENDBRANCH   3  24
TORSDOF 7
ENDMDL
MODEL 2
REMARK VINA RESULT:      -7.7      3.148      6.597
REMARK  7 active torsions:
REMARK  status: ('A' for Active; 'I' for Inactive)
REMARK    1  A    between atoms: C_10  and  C_3 
REMARK    2  A    between atoms: N_12  and  C_4 
REMARK    3  A    between atoms: O_23  and  C_11 
REMARK    4  A    between atoms: C_25  and  N_12 
REMARK    5  A    between atoms: O_26  and  C_13 
REMARK    6  A    between atoms: C_18  and  C_28 
REMARK    7  A    between atoms: C_28  and  C_25 
ROOT
ATOM      1  C   UNL d   1      52.381  34.071  53.658  0.00  0.00     0.168 A 
ATOM      2  N   UNL d   1      51.675  34.373  53.322  0.00  0.00    -0.184 N 
ATOM      3  C   UNL d   1      52.849  34.546  54.097  0.00  0.00     0.057 A 
ATOM      4  C   UNL d   1      51.219  33.889  52.889  0.00  0.00     0.218 A 
ATOM      5  N   UNL d   1      51.955  35.622  53.892  0.00  0.00    -0.160 NA
ATOM      6  N   UNL d   1      52.583  33.304  53.538  0.00  0.00    -0.227 NA
ATOM      7  C   UNL d   1      51.416  33.111  52.762  0.00  0.00     0.071 A 
ATOM      8  C   UNL d   1      52.639  35.329  54.217  0.00  0.00     0.124 A 
ATOM      9  C   UNL d   1      52.111  32.813  53.093  0.00  0.00     0.087 A 
ATOM     10  C   UNL d   1      52.324  32.003  52.965  0.00  0.00     0.021 C 
ENDROOT
BRANCH   4  11
ATOM     11  N   UNL d   1      50.506  34.191  52.548  0.00  0.00    -0.380 NA
BRANCH  11  12
ATOM     12  C   UNL d   1      49.686  34.305  52.384  0.00  0.00     0.163 C 
BRANCH  12  13
ATOM     13  C   UNL d   1      49.463  34.908  51.843  0.00  0.00     0.035 C 
BRANCH  13  14
ATOM     14  C   UNL d   1      48.659  35.164  51.830  0.00  0.00     0.005 A 
ATOM     15  C   UNL d   1      48.388  35.705  52.434  0.00  0.00     0.026 A 
ATOM     16  C   UNL d   1      47.575  35.969  52.428  0.00  0.00     0.116 A 
ATOM     17  C   UNL d   1      47.046  35.689  51.819  0.00  0.00     0.116 A 
ATOM     18  C   UNL d   1      47.323  35.159  51.233  0.00  0.00     0.026 A 
ATOM     19  C   UNL d   1      48.138  34.897  51.242  0.00  0.00     0.002 A 
BRANCH  16  20
ATOM     20  O   UNL d   1      47.303  36.497  53.014  0.00  0.00    -0.326 OA
ATOM     21  C   UNL d   1      47.800  36.709  53.659  0.00  0.00     0.181 C 
ENDBRANCH  16  20
BRANCH  17  22
ATOM     22  O   UNL d   1      46.246  35.949  51.814  0.00  0.00    -0.326 OA
ATOM     23  C   UNL d   1      45.703  35.659  51.232  0.00  0.00     0.181 C 
ENDBRANCH  17  22
ENDBRANCH  13  14
ENDBRANCH  12  13
ENDBRANCH  11  12
ENDBRANCH   4  11
BRANCH   3  24
ATOM     24  C   UNL d   1      53.533  34.252  54.423  0.00  0.00     0.005 A 
ATOM     25  C   UNL d   1      53.518  33.923  55.154  0.00  0.00     0.001 A 
ATOM     26  C   UNL d   1      54.202  33.629  55.480  0.00  0.00     0.011 A 
ATOM     27  C   UNL d   1      54.890  33.670  55.069  0.00  0.00     0.058 A 
ATOM     28  C   UNL d   1      54.894  34.005  54.332  0.00  0.00     0.011 A 
ATOM     29 CL   UNL d   1      55.606  33.363  55.410  0.00  0.00    -0.082 Cl
ATOM     30  C   UNL d   1      54.221  34.293  54.012  0.00  0.00     0.001 A 
ENDBRANCH   3  24
TORSDOF 7
ENDMDL
MODEL 3
REMARK VINA RESULT:      -7.2      3.185      6.762
REMARK  7 active torsions:
REMARK  status: ('A' for Active; 'I' for Inactive)
REMARK    1  A    between atoms: C_10  and  C_3 
REMARK    2  A    between atoms: N_12  and  C_4 
REMARK    3  A    between atoms: O_23  and  C_11 
REMARK    4  A    between atoms: C_25  and  N_12 
REMARK    5  A    between atoms: O_26  and  C_13 
REMARK    6  A    between atoms: C_18  and  C_28 
REMARK    7  A    between atoms: C_28  and  C_25 
ROOT
ATOM      1  C   UNL d   1      52.461  33.629  53.466  0.00  0.00     0.168 A 
ATOM      2  N   UNL d   1      51.760  33.537  53.017  0.00  0.00    -0.184 N 
ATOM      3  C   UNL d   1      52.987  33.029  53.513  0.00  0.00     0.057 A 
ATOM      4  C   UNL d   1      51.247  34.143  52.979  0.00  0.00     0.218 A 
ATOM      5  N   UNL d   1      52.158  32.235  52.686  0.00  0.00    -0.160 NA
ATOM      6  N   UNL d   1      52.603  34.320  53.848  0.00  0.00    -0.227 NA
ATOM      7  C   UNL d   1      51.383  34.846  53.363  0.00  0.00     0.071 A 
ATOM      8  C   UNL d   1      52.838  32.324  53.121  0.00  0.00     0.124 A 
ATOM      9  C   UNL d   1      52.073  34.936  53.805  0.00  0.00     0.087 A 
ATOM     10  C   UNL d   1      52.222  35.666  54.208  0.00  0.00     0.021 C 
ENDROOT
BRANCH   4  11
ATOM     11  N   UNL d   1      50.538  34.054  52.526  0.00  0.00    -0.380 NA
BRANCH  11  12
ATOM     12  C   UNL d   1      49.737  34.136  52.274  0.00  0.00     0.163 C 
BRANCH  12  13
ATOM     13  C   UNL d   1      49.552  34.720  51.699  0.00  0.00     0.035 C 
BRANCH  13  14
ATOM     14  C   UNL d   1      48.753  34.978  51.626  0.00  0.00     0.005 A 
ATOM     15  C   UNL d   1      48.452  35.555  52.182  0.00  0.00     0.026 A 
ATOM     16  C   UNL d   1      47.643  35.822  52.114  0.00  0.00     0.116 A 
ATOM     17  C   UNL d   1      47.146  35.508  51.493  0.00  0.00     0.116 A 
ATOM     18  C   UNL d   1      47.452  34.943  50.956  0.00  0.00     0.026 A 
ATOM     19  C   UNL d   1      48.263  34.678  51.026  0.00  0.00     0.002 A 
BRANCH  16  20
ATOM     20  O   UNL d   1      47.341  36.384  52.651  0.00  0.00    -0.326 OA
ATOM     21  C   UNL d   1      47.828  36.685  53.268  0.00  0.00     0.181 C 
ENDBRANCH  16  20
BRANCH  17  22
ATOM     22  O   UNL d   1      46.350  35.770  51.427  0.00  0.00    -0.326 OA
ATOM     23  C   UNL d   1      45.837  35.444  50.838  0.00  0.00     0.181 C 
ENDBRANCH  17  22
ENDBRANCH  13  14
ENDBRANCH  12  13
ENDBRANCH  11  12
ENDBRANCH   4  11
BRANCH   3  24
ATOM     24  C   UNL d   1      53.666  33.118  53.949  0.00  0.00     0.005 A 
ATOM     25  C   UNL d   1      53.656  32.977  54.739  0.00  0.00     0.001 A 
ATOM     26  C   UNL d   1      54.336  33.066  55.174  0.00  0.00     0.011 A 
ATOM     27  C   UNL d   1      55.015  33.294  54.813  0.00  0.00     0.058 A 
ATOM     28  C   UNL d   1      55.014  33.434  54.016  0.00  0.00     0.011 A 
ATOM     29 CL   UNL d   1      55.726  33.387  55.269  0.00  0.00    -0.082 Cl
ATOM     30  C   UNL d   1      54.345  33.347  53.588  0.00  0.00     0.001 A 
ENDBRANCH   3  24
TORSDOF 7
ENDMDL
MODEL 4
REMARK VINA RESULT:      -7.0      0.753      1.517
REMARK  7 active torsions:
REMARK  status: ('A' for Active; 'I' for Inactive)
REMARK    1  A    between atoms: C_10  and  C_3 
REMARK    2  A    between atoms: N_12  and  C_4 
REMARK    3  A    between atoms: O_23  and  C_11 
REMARK    4  A    between atoms: C_25  and  N_12 
REMARK    5  A    between atoms: O_26  and  C_13 
REMARK    6  A    between atoms: C_18  and  C_28 
REMARK    7  A    between atoms: C_28  and  C_25 
ROOT
ATOM      1  C   UNL d   1      47.872  35.293  52.036  0.00  0.00     0.168 A 
ATOM      2  N   UNL d   1      48.631  34.936  52.016  0.00  0.00    -0.184 N 
ATOM      3  C   UNL d   1      47.368  35.193  51.425  0.00  0.00     0.057 A 
ATOM      4  C   UNL d   1      49.122  35.044  52.631  0.00  0.00     0.218 A 
ATOM      5  N   UNL d   1      48.328  34.397  50.759  0.00  0.00    -0.160 NA
ATOM      6  N   UNL d   1      47.656  35.733  52.671  0.00  0.00    -0.227 NA
ATOM      7  C   UNL d   1      48.911  35.489  53.277  0.00  0.00     0.071 A 
ATOM      8  C   UNL d   1      47.593  34.742  50.779  0.00  0.00     0.124 A 
ATOM      9  C   UNL d   1      48.164  35.839  53.297  0.00  0.00     0.087 A 
ATOM     10  C   UNL d   1      47.936  36.304  53.968  0.00  0.00     0.021 C 
ENDROOT
BRANCH   4  11
ATOM     11  N   UNL d   1      49.888  34.686  52.613  0.00  0.00    -0.380 NA
BRANCH  11  12
ATOM     12  C   UNL d   1      50.703  34.538  52.773  0.00  0.00     0.163 C 
BRANCH  12  13
ATOM     13  C   UNL d   1      50.952  33.745  52.900  0.00  0.00     0.035 C 
BRANCH  13  14
ATOM     14  C   UNL d   1      51.746  33.604  53.146  0.00  0.00     0.005 A 
ATOM     15  C   UNL d   1      52.045  32.803  53.139  0.00  0.00     0.026 A 
ATOM     16  C   UNL d   1      52.849  32.652  53.386  0.00  0.00     0.116 A 
ATOM     17  C   UNL d   1      53.342  33.304  53.637  0.00  0.00     0.116 A 
ATOM     18  C   UNL d   1      53.038  34.084  53.639  0.00  0.00     0.026 A 
ATOM     19  C   UNL d   1      52.232  34.232  53.390  0.00  0.00     0.002 A 
BRANCH  16  20
ATOM     20  O   UNL d   1      53.149  31.874  53.383  0.00  0.00    -0.326 OA
ATOM     21  C   UNL d   1      52.827  31.298  52.861  0.00  0.00     0.181 C 
ENDBRANCH  16  20
BRANCH  17  22
ATOM     22  O   UNL d   1      54.133  33.155  53.880  0.00  0.00    -0.326 OA
ATOM     23  C   UNL d   1      54.550  33.717  54.357  0.00  0.00     0.181 C 
ENDBRANCH  17  22
ENDBRANCH  13  14
ENDBRANCH  12  13
ENDBRANCH  11  12
ENDBRANCH   4  11
BRANCH   3  24
ATOM     24  C   UNL d   1      46.633  35.538  51.446  0.00  0.00     0.005 A 
ATOM     25  C   UNL d   1      45.992  35.103  51.656  0.00  0.00     0.001 A 
ATOM     26  C   UNL d   1      45.258  35.448  51.676  0.00  0.00     0.011 A 
ATOM     27  C   UNL d   1      45.175  36.223  51.486  0.00  0.00     0.058 A 
ATOM     28  C   UNL d   1      45.827  36.653  51.275  0.00  0.00     0.011 A 
ATOM     29 CL   UNL d   1      44.406  36.585  51.507  0.00  0.00    -0.082 Cl
ATOM     30  C   UNL d   1      46.550  36.313  51.255  0.00  0.00     0.001 A 
ENDBRANCH   3  24
TORSDOF 7
ENDMDL
MODEL 5
REMARK VINA RESULT:      -5.1      3.598      6.996
REMARK  7 active torsions:
REMARK  status: ('A' for Active; 'I' for Inactive)
REMARK    1  A    between atoms: C_10  and  C_3 
REMARK    2  A    between atoms: N_12  and  C_4 
REMARK    3  A    between atoms: O_23  and  C_11 
REMARK    4  A    between atoms: C_25  and  N_12 
REMARK    5  A    between atoms: O_26  and  C_13 
REMARK    6  A    between atoms: C_18  and  C_28 
REMARK    7  A    between atoms: C_28  and  C_25 
ROOT
ATOM      1  C   UNL d   1      53.079  31.475  53.572  0.00  0.00     0.168 A 
ATOM      2  N   UNL d   1      52.790  32.137  53.147  0.00  0.00    -0.184 N 
ATOM      3  C   UNL d   1      52.944  30.737  53.301  0.00  0.00     0.057 A 
ATOM      4  C   UNL d   1      52.932  32.866  53.430  0.00  0.00     0.218 A 
ATOM      5  N   UNL d   1      52.241  31.269  52.195  0.00  0.00    -0.160 NA
ATOM      6  N   UNL d   1      53.492  31.587  54.251  0.00  0.00    -0.227 NA
ATOM      7  C   UNL d   1      53.349  32.988  54.116  0.00  0.00     0.071 A 
ATOM      8  C   UNL d   1      52.521  30.627  52.606  0.00  0.00     0.124 A 
ATOM      9  C   UNL d   1      53.634  32.336  54.534  0.00  0.00     0.087 A 
ATOM     10  C   UNL d   1      54.070  32.454  55.251  0.00  0.00     0.021 C 
ENDROOT
BRANCH   4  11
ATOM     11  N   UNL d   1      52.641  33.536  53.003  0.00  0.00    -0.380 NA
BRANCH  11  12
ATOM     12  C   UNL d   1      52.144  34.025  52.528  0.00  0.00     0.163 C 
BRANCH  12  13
ATOM     13  C   UNL d   1      51.550  34.484  52.904  0.00  0.00     0.035 C 
BRANCH  13  14
ATOM     14  C   UNL d   1      50.806  34.579  52.518  0.00  0.00     0.005 A 
ATOM     15  C   UNL d   1      50.154  34.921  52.954  0.00  0.00     0.026 A 
ATOM     16  C   UNL d   1      49.397  35.021  52.570  0.00  0.00     0.116 A 
ATOM     17  C   UNL d   1      49.303  34.778  51.755  0.00  0.00     0.116 A 
ATOM     18  C   UNL d   1      49.949  34.445  51.339  0.00  0.00     0.026 A 
ATOM     19  C   UNL d   1      50.706  34.346  51.728  0.00  0.00     0.002 A 
BRANCH  16  20
ATOM     20  O   UNL d   1      48.756  35.353  52.987  0.00  0.00    -0.326 OA
ATOM     21  C   UNL d   1      48.850  35.590  53.790  0.00  0.00     0.181 C 
ENDBRANCH  16  20
BRANCH  17  22
ATOM     22  O   UNL d   1      48.559  34.876  51.378  0.00  0.00    -0.326 OA
ATOM     23  C   UNL d   1      48.372  34.441  50.676  0.00  0.00     0.181 C 
ENDBRANCH  17  22
ENDBRANCH  13  14
ENDBRANCH  12  13
ENDBRANCH  11  12
ENDBRANCH   4  11
BRANCH   3  24
ATOM     24  C   UNL d   1      53.224  30.095  53.713  0.00  0.00     0.005 A 
ATOM     25  C   UNL d   1      52.774  29.760  54.287  0.00  0.00     0.001 A 
ATOM     26  C   UNL d   1      53.055  29.119  54.698  0.00  0.00     0.011 A 
ATOM     27  C   UNL d   1      53.782  28.823  54.530  0.00  0.00     0.058 A 
ATOM     28  C   UNL d   1      54.227  29.168  53.949  0.00  0.00     0.011 A 
ATOM     29 CL   UNL d   1      54.075  28.152  54.961  0.00  0.00    -0.082 Cl
ATOM     30  C   UNL d   1      53.951  29.799  53.544  0.00  0.00     0.001 A 
ENDBRANCH   3  24
TORSDOF 7
ENDMDL
MODEL 6
REMARK VINA RESULT:      -4.8      3.270      6.740
REMARK  7 active torsions:
REMARK  status: ('A' for Active; 'I' for Inactive)
REMARK    1  A    between atoms: C_10  and  C_3 
REMARK    2  A    between atoms: N_12  and  C_4 
REMARK    3  A    between atoms: O_23  and  C_11 
REMARK    4  A    between atoms: C_25  and  N_12 
REMARK    5  A    between atoms: O_26  and  C_13 
REMARK    6  A    between atoms: C_18  and  C_28 
REMARK    7  A    between atoms: C_28  and  C_25 
ROOT
ATOM      1  C   UNL d   1      52.214  32.277  53.234  0.00  0.00     0.168 A 
ATOM      2  N   UNL d   1      51.587  32.821  53.121  0.00  0.00    -0.184 N 
ATOM      3  C   UNL d   1      52.060  31.494  53.284  0.00  0.00     0.057 A 
ATOM      4  C   UNL d   1      51.756  33.595  53.074  0.00  0.00     0.218 A 
ATOM      5  N   UNL d   1      50.680  31.753  53.115  0.00  0.00    -0.160 NA
ATOM      6  N   UNL d   1      52.969  32.544  53.292  0.00  0.00    -0.227 NA
ATOM      7  C   UNL d   1      52.516  33.874  53.131  0.00  0.00     0.071 A 
ATOM      8  C   UNL d   1      51.288  31.226  53.224  0.00  0.00     0.124 A 
ATOM      9  C   UNL d   1      53.134  33.339  53.243  0.00  0.00     0.087 A 
ATOM     10  C   UNL d   1      53.930  33.621  53.304  0.00  0.00     0.021 C 
ENDROOT
BRANCH   4  11
ATOM     11  N   UNL d   1      51.125  34.148  52.959  0.00  0.00    -0.380 NA
BRANCH  11  12
ATOM     12  C   UNL d   1      50.439  34.520  52.639  0.00  0.00     0.163 C 
BRANCH  12  13
ATOM     13  C   UNL d   1      49.895  34.885  53.165  0.00  0.00     0.035 C 
BRANCH  13  14
ATOM     14  C   UNL d   1      49.180  35.203  52.852  0.00  0.00     0.005 A 
ATOM     15  C   UNL d   1      48.732  35.758  53.324  0.00  0.00     0.026 A 
ATOM     16  C   UNL d   1      48.006  36.085  53.013  0.00  0.00     0.116 A 
ATOM     17  C   UNL d   1      47.739  35.853  52.235  0.00  0.00     0.116 A 
ATOM     18  C   UNL d   1      48.186  35.308  51.783  0.00  0.00     0.026 A 
ATOM     19  C   UNL d   1      48.912  34.983  52.097  0.00  0.00     0.002 A 
BRANCH  16  20
ATOM     20  O   UNL d   1      47.563  36.627  53.467  0.00  0.00    -0.326 OA
ATOM     21  C   UNL d   1      47.709  36.709  54.292  0.00  0.00     0.181 C 
ENDBRANCH  16  20
BRANCH  17  22
ATOM     22  O   UNL d   1      47.024  36.175  51.930  0.00  0.00    -0.326 OA
ATOM     23  C   UNL d   1      46.536  35.720  51.409  0.00  0.00     0.181 C 
ENDBRANCH  17  22
ENDBRANCH  13  14
ENDBRANCH  12  13
ENDBRANCH  11  12
ENDBRANCH   4  11
BRANCH   3  24
ATOM     24  C   UNL d   1      52.668  30.967  53.394  0.00  0.00     0.005 A 
ATOM     25  C   UNL d   1      52.908  30.782  54.137  0.00  0.00     0.001 A 
ATOM     26  C   UNL d   1      53.516  30.255  54.247  0.00  0.00     0.011 A 
ATOM     27  C   UNL d   1      53.875  29.921  53.612  0.00  0.00     0.058 A 
ATOM     28  C   UNL d   1      53.625  30.114  52.866  0.00  0.00     0.011 A 
ATOM     29 CL   UNL d   1      54.511  29.369  53.726  0.00  0.00    -0.082 Cl
ATOM     30  C   UNL d   1      53.027  30.633  52.759  0.00  0.00     0.001 A 
ENDBRANCH   3  24
TORSDOF 7
ENDMDL
