MODEL 1
REMARK VINA RESULT:      55.5      0.000      0.000
REMARK  4 active torsions:
REMARK  status: ('A' for Active; 'I' for Inactive)
REMARK    1  A    between atoms: C_6  and  N_1 
REMARK    2  A    between atoms: C_8  and  C_14 
REMARK    3  A    between atoms: O_20  and  C_8 
REMARK    4  A    between atoms: C_22  and  O_20 
ROOT
ATOM      1  N   UNL d   1     -50.713  26.364  33.723  0.00  0.00    -0.242 N 
ATOM      2  C   UNL d   1     -50.445  25.558  33.711  0.00  0.00     0.267 A 
ATOM      3  C   UNL d   1     -51.436  26.425  33.623  0.00  0.00     0.267 A 
ATOM      4  C   UNL d   1     -51.137  25.127  33.583  0.00  0.00     0.061 A 
ATOM      5  C   UNL d   1     -51.766  25.677  33.527  0.00  0.00     0.061 A 
ATOM      6  C   UNL d   1     -52.552  25.425  33.397  0.00  0.00     0.005 A 
ATOM      7  C   UNL d   1     -51.301  24.332  33.508  0.00  0.00     0.005 A 
ATOM      8  O   UNL d   1     -49.692  25.255  33.800  0.00  0.00    -0.267 OA
ATOM      9  O   UNL d   1     -51.854  27.145  33.608  0.00  0.00    -0.267 OA
ATOM     10  C   UNL d   1     -52.675  24.617  33.327  0.00  0.00     0.000 A 
ATOM     11  C   UNL d   1     -52.046  24.067  33.383  0.00  0.00     0.000 A 
ATOM     12  C   UNL d   1     -52.210  23.272  33.308  0.00  0.00     0.000 C 
ENDROOT
BRANCH   1  13
ATOM     13  C   UNL d   1     -50.240  27.029  33.835  0.00  0.00     0.070 A 
ATOM     14  C   UNL d   1     -49.704  27.069  34.465  0.00  0.00     0.018 A 
ATOM     15  C   UNL d   1     -49.230  27.735  34.576  0.00  0.00     0.007 A 
ATOM     16  C   UNL d   1     -49.277  28.377  34.065  0.00  0.00     0.064 A 
ATOM     17  C   UNL d   1     -49.833  28.351  33.401  0.00  0.00     0.007 A 
ATOM     18  C   UNL d   1     -50.317  27.642  33.308  0.00  0.00     0.018 A 
BRANCH  16  19
ATOM     19  C   UNL d   1     -48.782  29.024  34.217  0.00  0.00     0.300 C 
ATOM     20  O   UNL d   1     -48.921  29.754  33.806  0.00  0.00    -0.259 OA
BRANCH  19  21
ATOM     21  O   UNL d   1     -48.198  28.940  34.737  0.00  0.00    -0.271 OA
BRANCH  21  22
ATOM     22  C   UNL d   1     -47.990  29.562  35.189  0.00  0.00     0.126 C 
ATOM     23  C   UNL d   1     -47.220  29.914  35.121  0.00  0.00     0.029 C 
ENDBRANCH  21  22
ENDBRANCH  19  21
ENDBRANCH  16  19
ENDBRANCH   1  13
TORSDOF 4
ENDMDL
