MODEL 1
REMARK VINA RESULT:      34.8      0.000      0.000
REMARK  5 active torsions:
REMARK  status: ('A' for Active; 'I' for Inactive)
REMARK    1  A    between atoms: C_7  and  C_1 
REMARK       I    between atoms: C_3  and  N_8 
REMARK       I    between atoms: N_10  and  C_3 
REMARK    2  A    between atoms: N_8  and  C_6 
REMARK    3  A    between atoms: O_14  and  C_7 
REMARK    4  A    between atoms: C_13  and  N_10 
REMARK    5  A    between atoms: C_23  and  O_14 
ROOT
ATOM      1  C   UNL d   1      15.379  14.279  -0.669  0.00  0.00     0.083 A 
ATOM      2  N   UNL d   1      15.913  12.982  -0.427  0.00  0.00    -0.244 NA
ATOM      3  C   UNL d   1      15.973  13.797  -0.373  0.00  0.00     0.087 A 
ATOM      4  C   UNL d   1      14.721  13.949  -1.022  0.00  0.00     0.028 A 
ATOM      5  C   UNL d   1      14.650  13.126  -1.082  0.00  0.00     0.104 A 
ATOM      6  C   UNL d   1      15.244  12.644  -0.785  0.00  0.00     0.099 A 
ATOM      7  C   UNL d   1      16.642  14.134  -0.014  0.00  0.00     0.021 C 
ATOM      8  C   UNL d   1      15.177  11.818  -0.843  0.00  0.00     0.022 C 
ENDROOT
BRANCH   5   9
ATOM      9  N   UNL d   1      13.981  12.789  -1.441  0.00  0.00    -0.189 NA
ATOM     10  C   UNL d   1      13.908  12.781  -2.256  0.00  0.00     0.369 C 
ATOM     11  N   UNL d   1      13.248  12.449  -2.621  0.00  0.00    -0.191 NA
ATOM     12  O   UNL d   1      14.506  13.113  -2.730  0.00  0.00    -0.242 OA
BRANCH  11  13
ATOM     13  C   UNL d   1      13.178  12.443  -3.432  0.00  0.00     0.086 A 
ATOM     14  C   UNL d   1      13.430  11.785  -3.861  0.00  0.00     0.020 A 
ATOM     15  C   UNL d   1      13.356  11.783  -4.689  0.00  0.00     0.008 A 
ATOM     16  C   UNL d   1      13.033  12.436  -5.077  0.00  0.00     0.035 A 
ATOM     17  C   UNL d   1      12.782  13.093  -4.647  0.00  0.00     0.008 A 
ATOM     18 BR   UNL d   1      12.963  12.430  -5.888  0.00  0.00    -0.049 Br
ATOM     19  C   UNL d   1      12.852  13.101  -3.823  0.00  0.00     0.020 A 
ENDBRANCH  11  13
ENDBRANCH   5   9
BRANCH   1  20
ATOM     20  C   UNL d   1      15.447  15.096  -0.611  0.00  0.00     0.302 C 
ATOM     21  O   UNL d   1      16.001  15.423  -0.115  0.00  0.00    -0.259 OA
BRANCH  20  22
ATOM     22  O   UNL d   1      14.959  15.571  -1.051  0.00  0.00    -0.271 OA
BRANCH  22  23
ATOM     23  C   UNL d   1      15.175  16.346  -1.194  0.00  0.00     0.126 C 
ATOM     24  C   UNL d   1      14.849  16.752  -1.831  0.00  0.00     0.029 C 
ENDBRANCH  22  23
ENDBRANCH  20  22
ENDBRANCH   1  20
TORSDOF 5
ENDMDL
