MODEL 1
REMARK VINA RESULT:      -8.4      0.000      0.000
REMARK  9 active torsions:
REMARK  status: ('A' for Active; 'I' for Inactive)
REMARK       I    between atoms: C_9  and  N_1 
REMARK       I    between atoms: N_2  and  C_10 
REMARK    1  A    between atoms: C_17  and  C_9 
REMARK    2  A    between atoms: C_10  and  C_18 
REMARK    3  A    between atoms: C_21  and  C_17 
REMARK    4  A    between atoms: C_18  and  C_22 
REMARK    5  A    between atoms: C_24  and  C_21 
REMARK    6  A    between atoms: C_22  and  C_23 
REMARK    7  A    between atoms: C_23  and  C_26 
REMARK    8  A    between atoms: C_25  and  C_24 
REMARK    9  A    between atoms: C_26  and  C_25 
ROOT
ATOM      1  C   UNL d   1      49.965  34.529  52.107  0.00  0.00     0.000 C 
ENDROOT
BRANCH   1   2
ATOM      2  C   UNL d   1      49.213  34.853  52.253  0.00  0.00     0.000 C 
BRANCH   2   3
ATOM      3  C   UNL d   1      48.653  34.876  51.651  0.00  0.00     0.005 C 
BRANCH   3   4
ATOM      4  C   UNL d   1      47.958  35.310  51.747  0.00  0.00     0.063 C 
BRANCH   4   5
ATOM      5  C   UNL d   1      47.303  35.148  51.273  0.00  0.00     0.280 C 
ATOM      6  N   UNL d   1      46.601  35.562  51.383  0.00  0.00    -0.195 N 
ATOM      7  N   UNL d   1      45.945  35.403  50.912  0.00  0.00    -0.163 NA
ATOM      8  C   UNL d   1      46.387  36.159  51.911  0.00  0.00     0.088 A 
ATOM      9  C   UNL d   1      45.330  35.897  51.145  0.00  0.00     0.103 A 
ATOM     10  C   UNL d   1      44.570  35.919  50.816  0.00  0.00     0.022 C 
ATOM     11  C   UNL d   1      45.609  36.364  51.765  0.00  0.00     0.040 A 
ATOM     12  C   UNL d   1      46.876  36.492  52.486  0.00  0.00     0.021 C 
ATOM     13  O   UNL d   1      47.341  34.569  50.683  0.00  0.00    -0.265 OA
ENDBRANCH   4   5
ENDBRANCH   3   4
ENDBRANCH   2   3
ENDBRANCH   1   2
BRANCH   1  14
ATOM     14  C   UNL d   1      50.437  34.291  52.740  0.00  0.00     0.000 C 
BRANCH  14  15
ATOM     15  C   UNL d   1      51.248  34.145  52.627  0.00  0.00     0.000 C 
BRANCH  15  16
ATOM     16  C   UNL d   1      51.808  34.524  53.096  0.00  0.00     0.005 C 
BRANCH  16  17
ATOM     17  C   UNL d   1      52.458  34.104  53.384  0.00  0.00     0.063 C 
BRANCH  17  18
ATOM     18  C   UNL d   1      52.959  34.445  53.937  0.00  0.00     0.280 C 
ATOM     19  N   UNL d   1      53.597  34.019  54.241  0.00  0.00    -0.195 N 
ATOM     20  N   UNL d   1      54.145  34.283  54.795  0.00  0.00    -0.163 NA
ATOM     21  C   UNL d   1      53.806  33.239  54.040  0.00  0.00     0.088 A 
ATOM     22  C   UNL d   1      54.687  33.678  54.939  0.00  0.00     0.103 A 
ATOM     23  C   UNL d   1      55.327  33.716  55.460  0.00  0.00     0.022 C 
ATOM     24  C   UNL d   1      54.474  33.032  54.468  0.00  0.00     0.040 A 
ATOM     25  C   UNL d   1      53.403  32.757  53.497  0.00  0.00     0.021 C 
ATOM     26  O   UNL d   1      52.824  35.219  54.193  0.00  0.00    -0.265 OA
ENDBRANCH  17  18
ENDBRANCH  16  17
ENDBRANCH  15  16
ENDBRANCH  14  15
ENDBRANCH   1  14
TORSDOF 9
ENDMDL
MODEL 2
REMARK VINA RESULT:      -8.3      0.181      7.535
REMARK  9 active torsions:
REMARK  status: ('A' for Active; 'I' for Inactive)
REMARK       I    between atoms: C_9  and  N_1 
REMARK       I    between atoms: N_2  and  C_10 
REMARK    1  A    between atoms: C_17  and  C_9 
REMARK    2  A    between atoms: C_10  and  C_18 
REMARK    3  A    between atoms: C_21  and  C_17 
REMARK    4  A    between atoms: C_18  and  C_22 
REMARK    5  A    between atoms: C_24  and  C_21 
REMARK    6  A    between atoms: C_22  and  C_23 
REMARK    7  A    between atoms: C_23  and  C_26 
REMARK    8  A    between atoms: C_25  and  C_24 
REMARK    9  A    between atoms: C_26  and  C_25 
ROOT
ATOM      1  C   UNL d   1      50.439  34.503  52.772  0.00  0.00     0.000 C 
ENDROOT
BRANCH   1   2
ATOM      2  C   UNL d   1      51.181  34.158  52.616  0.00  0.00     0.000 C 
BRANCH   2   3
ATOM      3  C   UNL d   1      51.862  34.490  52.937  0.00  0.00     0.005 C 
BRANCH   3   4
ATOM      4  C   UNL d   1      52.405  34.014  53.336  0.00  0.00     0.063 C 
BRANCH   4   5
ATOM      5  C   UNL d   1      52.945  34.356  53.858  0.00  0.00     0.280 C 
ATOM      6  N   UNL d   1      53.537  33.897  54.199  0.00  0.00    -0.195 N 
ATOM      7  N   UNL d   1      54.077  34.234  54.720  0.00  0.00    -0.163 NA
ATOM      8  C   UNL d   1      53.727  33.097  54.129  0.00  0.00     0.088 A 
ATOM      9  C   UNL d   1      54.598  33.649  54.971  0.00  0.00     0.103 A 
ATOM     10  C   UNL d   1      55.229  33.751  55.498  0.00  0.00     0.022 C 
ATOM     11  C   UNL d   1      54.377  32.946  54.602  0.00  0.00     0.040 A 
ATOM     12  C   UNL d   1      53.329  32.546  53.661  0.00  0.00     0.021 C 
ATOM     13  O   UNL d   1      52.900  35.160  54.045  0.00  0.00    -0.265 OA
ENDBRANCH   4   5
ENDBRANCH   3   4
ENDBRANCH   2   3
ENDBRANCH   1   2
BRANCH   1  14
ATOM     14  C   UNL d   1      49.853  34.487  52.192  0.00  0.00     0.000 C 
BRANCH  14  15
ATOM     15  C   UNL d   1      49.134  34.888  52.313  0.00  0.00     0.000 C 
BRANCH  15  16
ATOM     16  C   UNL d   1      48.562  34.906  51.722  0.00  0.00     0.005 C 
BRANCH  16  17
ATOM     17  C   UNL d   1      47.867  35.337  51.831  0.00  0.00     0.063 C 
BRANCH  17  18
ATOM     18  C   UNL d   1      47.233  35.239  51.319  0.00  0.00     0.280 C 
ATOM     19  N   UNL d   1      46.529  35.649  51.443  0.00  0.00    -0.195 N 
ATOM     20  N   UNL d   1      45.849  35.610  50.981  0.00  0.00    -0.163 NA
ATOM     21  C   UNL d   1      46.374  36.182  52.063  0.00  0.00     0.088 A 
ATOM     22  C   UNL d   1      45.279  36.110  51.307  0.00  0.00     0.103 A 
ATOM     23  C   UNL d   1      44.517  36.232  51.012  0.00  0.00     0.022 C 
ATOM     24  C   UNL d   1      45.609  36.463  51.979  0.00  0.00     0.040 A 
ATOM     25  C   UNL d   1      46.909  36.390  52.664  0.00  0.00     0.021 C 
ATOM     26  O   UNL d   1      47.301  34.726  50.673  0.00  0.00    -0.265 OA
ENDBRANCH  17  18
ENDBRANCH  16  17
ENDBRANCH  15  16
ENDBRANCH  14  15
ENDBRANCH   1  14
TORSDOF 9
ENDMDL
MODEL 3
REMARK VINA RESULT:      -7.8      1.909      2.464
REMARK  9 active torsions:
REMARK  status: ('A' for Active; 'I' for Inactive)
REMARK       I    between atoms: C_9  and  N_1 
REMARK       I    between atoms: N_2  and  C_10 
REMARK    1  A    between atoms: C_17  and  C_9 
REMARK    2  A    between atoms: C_10  and  C_18 
REMARK    3  A    between atoms: C_21  and  C_17 
REMARK    4  A    between atoms: C_18  and  C_22 
REMARK    5  A    between atoms: C_24  and  C_21 
REMARK    6  A    between atoms: C_22  and  C_23 
REMARK    7  A    between atoms: C_23  and  C_26 
REMARK    8  A    between atoms: C_25  and  C_24 
REMARK    9  A    between atoms: C_26  and  C_25 
ROOT
ATOM      1  C   UNL d   1      51.215  34.108  52.386  0.00  0.00     0.000 C 
ENDROOT
BRANCH   1   2
ATOM      2  C   UNL d   1      50.483  34.437  52.608  0.00  0.00     0.000 C 
BRANCH   2   3
ATOM      3  C   UNL d   1      49.861  34.452  52.070  0.00  0.00     0.005 C 
BRANCH   3   4
ATOM      4  C   UNL d   1      49.191  34.907  52.223  0.00  0.00     0.063 C 
BRANCH   4   5
ATOM      5  C   UNL d   1      48.549  34.883  51.705  0.00  0.00     0.280 C 
ATOM      6  N   UNL d   1      47.875  35.328  51.861  0.00  0.00    -0.195 N 
ATOM      7  N   UNL d   1      47.233  35.306  51.346  0.00  0.00    -0.163 NA
ATOM      8  C   UNL d   1      47.680  35.840  52.478  0.00  0.00     0.088 A 
ATOM      9  C   UNL d   1      46.646  35.800  51.641  0.00  0.00     0.103 A 
ATOM     10  C   UNL d   1      45.906  35.939  51.294  0.00  0.00     0.022 C 
ATOM     11  C   UNL d   1      46.927  36.129  52.342  0.00  0.00     0.040 A 
ATOM     12  C   UNL d   1      48.163  36.027  53.120  0.00  0.00     0.021 C 
ATOM     13  O   UNL d   1      48.574  34.413  51.025  0.00  0.00    -0.265 OA
ENDBRANCH   4   5
ENDBRANCH   3   4
ENDBRANCH   2   3
ENDBRANCH   1   2
BRANCH   1  14
ATOM     14  C   UNL d   1      51.738  33.848  52.969  0.00  0.00     0.000 C 
BRANCH  14  15
ATOM     15  C   UNL d   1      52.367  33.341  52.770  0.00  0.00     0.000 C 
BRANCH  15  16
ATOM     16  C   UNL d   1      52.766  32.924  53.356  0.00  0.00     0.005 C 
BRANCH  16  17
ATOM     17  C   UNL d   1      52.974  32.135  53.232  0.00  0.00     0.063 C 
BRANCH  17  18
ATOM     18  C   UNL d   1      53.293  31.689  53.844  0.00  0.00     0.280 C 
ATOM     19  N   UNL d   1      53.267  30.865  53.818  0.00  0.00    -0.195 N 
ATOM     20  N   UNL d   1      53.561  30.346  54.385  0.00  0.00    -0.163 NA
ATOM     21  C   UNL d   1      52.936  30.404  53.210  0.00  0.00     0.088 A 
ATOM     22  C   UNL d   1      53.416  29.574  54.135  0.00  0.00     0.103 A 
ATOM     23  C   UNL d   1      53.623  28.886  54.544  0.00  0.00     0.022 C 
ATOM     24  C   UNL d   1      53.028  29.614  53.405  0.00  0.00     0.040 A 
ATOM     25  C   UNL d   1      52.574  30.701  52.523  0.00  0.00     0.021 C 
ATOM     26  O   UNL d   1      53.643  32.069  54.490  0.00  0.00    -0.265 OA
ENDBRANCH  17  18
ENDBRANCH  16  17
ENDBRANCH  15  16
ENDBRANCH  14  15
ENDBRANCH   1  14
TORSDOF 9
ENDMDL
MODEL 4
REMARK VINA RESULT:      -7.7      1.865      7.292
REMARK  9 active torsions:
REMARK  status: ('A' for Active; 'I' for Inactive)
REMARK       I    between atoms: C_9  and  N_1 
REMARK       I    between atoms: N_2  and  C_10 
REMARK    1  A    between atoms: C_17  and  C_9 
REMARK    2  A    between atoms: C_10  and  C_18 
REMARK    3  A    between atoms: C_21  and  C_17 
REMARK    4  A    between atoms: C_18  and  C_22 
REMARK    5  A    between atoms: C_24  and  C_21 
REMARK    6  A    between atoms: C_22  and  C_23 
REMARK    7  A    between atoms: C_23  and  C_26 
REMARK    8  A    between atoms: C_25  and  C_24 
REMARK    9  A    between atoms: C_26  and  C_25 
ROOT
ATOM      1  C   UNL d   1      51.701  33.957  52.995  0.00  0.00     0.000 C 
ENDROOT
BRANCH   1   2
ATOM      2  C   UNL d   1      52.331  33.449  52.801  0.00  0.00     0.000 C 
BRANCH   2   3
ATOM      3  C   UNL d   1      52.681  32.988  53.386  0.00  0.00     0.005 C 
BRANCH   3   4
ATOM      4  C   UNL d   1      52.985  32.244  53.202  0.00  0.00     0.063 C 
BRANCH   4   5
ATOM      5  C   UNL d   1      53.278  31.759  53.801  0.00  0.00     0.280 C 
ATOM      6  N   UNL d   1      53.232  30.941  53.730  0.00  0.00    -0.195 N 
ATOM      7  N   UNL d   1      53.523  30.454  54.326  0.00  0.00    -0.163 NA
ATOM      8  C   UNL d   1      52.930  30.453  53.137  0.00  0.00     0.088 A 
ATOM      9  C   UNL d   1      53.403  29.671  54.105  0.00  0.00     0.103 A 
ATOM     10  C   UNL d   1      53.615  29.002  54.546  0.00  0.00     0.022 C 
ATOM     11  C   UNL d   1      53.035  29.675  53.368  0.00  0.00     0.040 A 
ATOM     12  C   UNL d   1      52.582  30.707  52.434  0.00  0.00     0.021 C 
ATOM     13  O   UNL d   1      53.621  32.086  54.479  0.00  0.00    -0.265 OA
ENDBRANCH   4   5
ENDBRANCH   3   4
ENDBRANCH   2   3
ENDBRANCH   1   2
BRANCH   1  14
ATOM     14  C   UNL d   1      51.198  34.227  52.400  0.00  0.00     0.000 C 
BRANCH  14  15
ATOM     15  C   UNL d   1      50.411  34.428  52.578  0.00  0.00     0.000 C 
BRANCH  15  16
ATOM     16  C   UNL d   1      49.861  34.533  51.974  0.00  0.00     0.005 C 
BRANCH  16  17
ATOM     17  C   UNL d   1      49.148  34.920  52.127  0.00  0.00     0.063 C 
BRANCH  17  18
ATOM     18  C   UNL d   1      48.523  34.860  51.599  0.00  0.00     0.280 C 
ATOM     19  N   UNL d   1      47.820  35.270  51.735  0.00  0.00    -0.195 N 
ATOM     20  N   UNL d   1      47.148  35.265  51.260  0.00  0.00    -0.163 NA
ATOM     21  C   UNL d   1      47.661  35.768  52.383  0.00  0.00     0.088 A 
ATOM     22  C   UNL d   1      46.578  35.752  51.605  0.00  0.00     0.103 A 
ATOM     23  C   UNL d   1      45.822  35.900  51.305  0.00  0.00     0.022 C 
ATOM     24  C   UNL d   1      46.900  36.062  52.302  0.00  0.00     0.040 A 
ATOM     25  C   UNL d   1      48.187  35.935  53.003  0.00  0.00     0.021 C 
ATOM     26  O   UNL d   1      48.596  34.385  50.926  0.00  0.00    -0.265 OA
ENDBRANCH  17  18
ENDBRANCH  16  17
ENDBRANCH  15  16
ENDBRANCH  14  15
ENDBRANCH   1  14
TORSDOF 9
ENDMDL
