MODEL 1
REMARK VINA RESULT:      -5.5      0.000      0.000
REMARK  6 active torsions:
REMARK  status: ('A' for Active; 'I' for Inactive)
REMARK    1  A    between atoms: C_3  and  C_1 
REMARK    2  A    between atoms: S_2  and  C_3 
REMARK    3  A    between atoms: C_8  and  S_2 
REMARK    4  A    between atoms: C_9  and  C_3 
REMARK    5  A    between atoms: N_7  and  C_4 
REMARK    6  A    between atoms: C_25  and  N_16 
ROOT
ATOM      1  C   UNL d   1      52.615  33.043  53.179  0.00  0.00     0.128 A 
ATOM      2  C   UNL d   1      52.604  33.584  53.796  0.00  0.00     0.166 A 
ATOM      3  N   UNL d   1      51.991  33.009  52.649  0.00  0.00    -0.240 NA
ATOM      4  N   UNL d   1      51.969  34.090  53.884  0.00  0.00    -0.225 NA
ATOM      5  C   UNL d   1      51.356  33.518  52.740  0.00  0.00     0.099 A 
ATOM      6  C   UNL d   1      51.342  34.060  53.357  0.00  0.00     0.101 A 
ATOM      7  C   UNL d   1      50.699  34.569  53.442  0.00  0.00     0.021 A 
ATOM      8  C   UNL d   1      50.729  33.482  52.205  0.00  0.00     0.021 A 
ATOM      9  C   UNL d   1      50.086  33.991  52.291  0.00  0.00     0.002 A 
ATOM     10  C   UNL d   1      50.075  34.533  52.909  0.00  0.00     0.002 A 
ENDROOT
BRANCH   1  11
ATOM     11  C   UNL d   1      53.251  32.534  53.087  0.00  0.00     0.129 C 
BRANCH  11  12
ATOM     12  S   UNL d   1      53.085  31.683  52.853  0.00  0.00     0.213 S 
ATOM     13  O   UNL d   1      52.984  32.133  52.155  0.00  0.00    -0.217 OA
ATOM     14  O   UNL d   1      52.869  31.519  52.007  0.00  0.00    -0.217 OA
BRANCH  12  15
ATOM     15  C   UNL d   1      53.089  30.968  53.282  0.00  0.00     0.088 A 
ATOM     16  C   UNL d   1      52.375  30.583  53.448  0.00  0.00     0.011 A 
ATOM     17  C   UNL d   1      52.377  29.877  53.872  0.00  0.00     0.001 A 
ATOM     18  C   UNL d   1      51.670  29.492  54.039  0.00  0.00     0.000 C 
ATOM     19  C   UNL d   1      53.096  29.552  54.132  0.00  0.00     0.000 A 
ATOM     20  C   UNL d   1      53.806  29.941  53.964  0.00  0.00     0.001 A 
ATOM     21  C   UNL d   1      53.100  28.843  54.558  0.00  0.00     0.000 C 
ATOM     22  C   UNL d   1      53.807  30.649  53.539  0.00  0.00     0.011 A 
ENDBRANCH  12  15
ENDBRANCH  11  12
BRANCH  11  23
ATOM     23  C   UNL d   1      54.104  32.672  53.181  0.00  0.00     0.135 C 
ATOM     24  N   UNL d   1      54.728  32.683  52.554  0.00  0.00    -0.146 N 
ENDBRANCH  11  23
ENDBRANCH   1  11
BRANCH   2  25
ATOM     25  N   UNL d   1      53.247  33.608  54.329  0.00  0.00    -0.285 N 
ATOM     26  C   UNL d   1      53.243  33.144  55.011  0.00  0.00     0.101 A 
ATOM     27  C   UNL d   1      53.888  33.176  55.535  0.00  0.00     0.100 A 
ATOM     28  N   UNL d   1      54.535  33.675  55.370  0.00  0.00    -0.300 N 
ATOM     29  C   UNL d   1      54.536  34.142  54.681  0.00  0.00     0.100 A 
ATOM     30  C   UNL d   1      53.894  34.107  54.164  0.00  0.00     0.101 A 
BRANCH  28  31
ATOM     31  C   UNL d   1      55.185  33.704  55.901  0.00  0.00     0.080 C 
ATOM     32  C   UNL d   1      55.885  34.091  55.665  0.00  0.00     0.021 C 
ENDBRANCH  28  31
ENDBRANCH   2  25
TORSDOF 6
ENDMDL
MODEL 2
REMARK VINA RESULT:      -5.3      1.050      3.521
REMARK  6 active torsions:
REMARK  status: ('A' for Active; 'I' for Inactive)
REMARK    1  A    between atoms: C_3  and  C_1 
REMARK    2  A    between atoms: S_2  and  C_3 
REMARK    3  A    between atoms: C_8  and  S_2 
REMARK    4  A    between atoms: C_9  and  C_3 
REMARK    5  A    between atoms: N_7  and  C_4 
REMARK    6  A    between atoms: C_25  and  N_16 
ROOT
ATOM      1  C   UNL d   1      53.445  31.533  53.762  0.00  0.00     0.128 A 
ATOM      2  C   UNL d   1      53.681  31.653  54.539  0.00  0.00     0.166 A 
ATOM      3  N   UNL d   1      53.230  30.785  53.506  0.00  0.00    -0.240 NA
ATOM      4  N   UNL d   1      53.703  31.024  55.060  0.00  0.00    -0.225 NA
ATOM      5  C   UNL d   1      53.253  30.157  54.032  0.00  0.00     0.099 A 
ATOM      6  C   UNL d   1      53.489  30.273  54.809  0.00  0.00     0.101 A 
ATOM      7  C   UNL d   1      53.510  29.636  55.332  0.00  0.00     0.021 A 
ATOM      8  C   UNL d   1      53.037  29.404  53.772  0.00  0.00     0.021 A 
ATOM      9  C   UNL d   1      53.058  28.768  54.295  0.00  0.00     0.002 A 
ATOM     10  C   UNL d   1      53.295  28.887  55.073  0.00  0.00     0.002 A 
ENDROOT
BRANCH   1  11
ATOM     11  C   UNL d   1      53.421  32.161  53.236  0.00  0.00     0.129 C 
BRANCH  11  12
ATOM     12  S   UNL d   1      52.677  32.282  52.749  0.00  0.00     0.213 S 
ATOM     13  O   UNL d   1      53.096  31.665  52.370  0.00  0.00    -0.217 OA
ATOM     14  O   UNL d   1      52.557  31.767  52.035  0.00  0.00    -0.217 OA
BRANCH  12  15
ATOM     15  C   UNL d   1      52.032  32.805  52.825  0.00  0.00     0.088 A 
ATOM     16  C   UNL d   1      52.097  33.583  52.547  0.00  0.00     0.011 A 
ATOM     17  C   UNL d   1      51.460  34.101  52.620  0.00  0.00     0.001 A 
ATOM     18  C   UNL d   1      51.521  34.873  52.345  0.00  0.00     0.000 C 
ATOM     19  C   UNL d   1      50.755  33.842  52.973  0.00  0.00     0.000 A 
ATOM     20  C   UNL d   1      50.695  33.065  53.249  0.00  0.00     0.001 A 
ATOM     21  C   UNL d   1      50.115  34.360  53.048  0.00  0.00     0.000 C 
ATOM     22  C   UNL d   1      51.331  32.543  53.177  0.00  0.00     0.011 A 
ENDBRANCH  12  15
ENDBRANCH  11  12
BRANCH  11  23
ATOM     23  C   UNL d   1      54.018  32.767  53.052  0.00  0.00     0.135 C 
ATOM     24  N   UNL d   1      54.663  32.733  52.448  0.00  0.00    -0.146 N 
ENDBRANCH  11  23
ENDBRANCH   1  11
BRANCH   2  25
ATOM     25  N   UNL d   1      53.897  32.421  54.786  0.00  0.00    -0.285 N 
ATOM     26  C   UNL d   1      54.644  32.722  54.610  0.00  0.00     0.101 A 
ATOM     27  C   UNL d   1      54.849  33.488  54.861  0.00  0.00     0.100 A 
ATOM     28  N   UNL d   1      54.300  33.948  55.288  0.00  0.00    -0.300 N 
ATOM     29  C   UNL d   1      53.547  33.641  55.464  0.00  0.00     0.100 A 
ATOM     30  C   UNL d   1      53.348  32.881  55.213  0.00  0.00     0.101 A 
BRANCH  28  31
ATOM     31  C   UNL d   1      54.510  34.721  55.540  0.00  0.00     0.080 C 
ATOM     32  C   UNL d   1      54.038  35.367  55.305  0.00  0.00     0.021 C 
ENDBRANCH  28  31
ENDBRANCH   2  25
TORSDOF 6
ENDMDL
MODEL 3
REMARK VINA RESULT:      -5.1      0.852      3.283
REMARK  6 active torsions:
REMARK  status: ('A' for Active; 'I' for Inactive)
REMARK    1  A    between atoms: C_3  and  C_1 
REMARK    2  A    between atoms: S_2  and  C_3 
REMARK    3  A    between atoms: C_8  and  S_2 
REMARK    4  A    between atoms: C_9  and  C_3 
REMARK    5  A    between atoms: N_7  and  C_4 
REMARK    6  A    between atoms: C_25  and  N_16 
ROOT
ATOM      1  C   UNL d   1      52.663  32.860  53.685  0.00  0.00     0.128 A 
ATOM      2  C   UNL d   1      52.464  33.654  53.618  0.00  0.00     0.166 A 
ATOM      3  N   UNL d   1      53.312  32.633  54.132  0.00  0.00    -0.240 NA
ATOM      4  N   UNL d   1      52.913  34.221  53.999  0.00  0.00    -0.225 NA
ATOM      5  C   UNL d   1      53.759  33.204  54.512  0.00  0.00     0.099 A 
ATOM      6  C   UNL d   1      53.563  33.999  54.448  0.00  0.00     0.101 A 
ATOM      7  C   UNL d   1      54.018  34.568  54.833  0.00  0.00     0.021 A 
ATOM      8  C   UNL d   1      54.411  32.974  54.962  0.00  0.00     0.021 A 
ATOM      9  C   UNL d   1      54.866  33.543  55.347  0.00  0.00     0.002 A 
ATOM     10  C   UNL d   1      54.667  34.338  55.281  0.00  0.00     0.002 A 
ENDROOT
BRANCH   1  11
ATOM     11  C   UNL d   1      52.215  32.289  53.305  0.00  0.00     0.129 C 
BRANCH  11  12
ATOM     12  S   UNL d   1      52.633  31.557  52.994  0.00  0.00     0.213 S 
ATOM     13  O   UNL d   1      52.607  32.092  52.351  0.00  0.00    -0.217 OA
ATOM     14  O   UNL d   1      52.904  31.560  52.147  0.00  0.00    -0.217 OA
BRANCH  12  15
ATOM     15  C   UNL d   1      52.835  30.830  53.348  0.00  0.00     0.088 A 
ATOM     16  C   UNL d   1      53.601  30.528  53.261  0.00  0.00     0.011 A 
ATOM     17  C   UNL d   1      53.802  29.809  53.609  0.00  0.00     0.001 A 
ATOM     18  C   UNL d   1      54.562  29.507  53.525  0.00  0.00     0.000 C 
ATOM     19  C   UNL d   1      53.236  29.388  54.047  0.00  0.00     0.000 A 
ATOM     20  C   UNL d   1      52.472  29.694  54.131  0.00  0.00     0.001 A 
ATOM     21  C   UNL d   1      53.436  28.667  54.398  0.00  0.00     0.000 C 
ATOM     22  C   UNL d   1      52.267  30.414  53.783  0.00  0.00     0.011 A 
ENDBRANCH  12  15
ENDBRANCH  11  12
BRANCH  11  23
ATOM     23  C   UNL d   1      51.363  32.258  53.137  0.00  0.00     0.135 C 
ATOM     24  N   UNL d   1      50.770  31.670  53.426  0.00  0.00    -0.146 N 
ENDBRANCH  11  23
ENDBRANCH   1  11
BRANCH   2  25
ATOM     25  N   UNL d   1      51.801  33.871  53.159  0.00  0.00    -0.285 N 
ATOM     26  C   UNL d   1      51.046  33.878  53.492  0.00  0.00     0.101 A 
ATOM     27  C   UNL d   1      50.393  34.096  53.026  0.00  0.00     0.100 A 
ATOM     28  N   UNL d   1      50.502  34.306  52.226  0.00  0.00    -0.300 N 
ATOM     29  C   UNL d   1      51.265  34.298  51.893  0.00  0.00     0.100 A 
ATOM     30  C   UNL d   1      51.910  34.081  52.360  0.00  0.00     0.101 A 
BRANCH  28  31
ATOM     31  C   UNL d   1      49.840  34.525  51.758  0.00  0.00     0.080 C 
ATOM     32  C   UNL d   1      49.180  34.876  52.128  0.00  0.00     0.021 C 
ENDBRANCH  28  31
ENDBRANCH   2  25
TORSDOF 6
ENDMDL
MODEL 4
REMARK VINA RESULT:      -4.5      1.246      4.088
REMARK  6 active torsions:
REMARK  status: ('A' for Active; 'I' for Inactive)
REMARK    1  A    between atoms: C_3  and  C_1 
REMARK    2  A    between atoms: S_2  and  C_3 
REMARK    3  A    between atoms: C_8  and  S_2 
REMARK    4  A    between atoms: C_9  and  C_3 
REMARK    5  A    between atoms: N_7  and  C_4 
REMARK    6  A    between atoms: C_25  and  N_16 
ROOT
ATOM      1  C   UNL d   1      52.620  32.606  52.964  0.00  0.00     0.128 A 
ATOM      2  C   UNL d   1      51.824  32.416  53.023  0.00  0.00     0.166 A 
ATOM      3  N   UNL d   1      53.189  32.018  53.013  0.00  0.00    -0.240 NA
ATOM      4  N   UNL d   1      51.596  31.639  53.131  0.00  0.00    -0.225 NA
ATOM      5  C   UNL d   1      52.957  31.241  53.122  0.00  0.00     0.099 A 
ATOM      6  C   UNL d   1      52.162  31.047  53.181  0.00  0.00     0.101 A 
ATOM      7  C   UNL d   1      51.936  30.262  53.291  0.00  0.00     0.021 A 
ATOM      8  C   UNL d   1      53.532  30.651  53.171  0.00  0.00     0.021 A 
ATOM      9  C   UNL d   1      53.306  29.865  53.280  0.00  0.00     0.002 A 
ATOM     10  C   UNL d   1      52.509  29.675  53.339  0.00  0.00     0.002 A 
ENDROOT
BRANCH   1  11
ATOM     11  C   UNL d   1      52.852  33.385  52.855  0.00  0.00     0.129 C 
BRANCH  11  12
ATOM     12  S   UNL d   1      53.584  33.675  53.286  0.00  0.00     0.213 S 
ATOM     13  O   UNL d   1      53.843  33.465  52.519  0.00  0.00    -0.217 OA
ATOM     14  O   UNL d   1      54.355  33.677  52.844  0.00  0.00    -0.217 OA
BRANCH  12  15
ATOM     15  C   UNL d   1      53.707  33.963  54.060  0.00  0.00     0.088 A 
ATOM     16  C   UNL d   1      54.162  33.524  54.595  0.00  0.00     0.011 A 
ATOM     17  C   UNL d   1      54.284  33.806  55.359  0.00  0.00     0.001 A 
ATOM     18  C   UNL d   1      54.735  33.374  55.893  0.00  0.00     0.000 C 
ATOM     19  C   UNL d   1      53.951  34.531  55.591  0.00  0.00     0.000 A 
ATOM     20  C   UNL d   1      53.497  34.965  55.053  0.00  0.00     0.001 A 
ATOM     21  C   UNL d   1      54.073  34.816  56.357  0.00  0.00     0.000 C 
ATOM     22  C   UNL d   1      53.373  34.685  54.286  0.00  0.00     0.011 A 
ENDBRANCH  12  15
ENDBRANCH  11  12
BRANCH  11  23
ATOM     23  C   UNL d   1      52.501  34.017  52.373  0.00  0.00     0.135 C 
ATOM     24  N   UNL d   1      52.896  34.526  51.767  0.00  0.00    -0.146 N 
ENDBRANCH  11  23
ENDBRANCH   1  11
BRANCH   2  25
ATOM     25  N   UNL d   1      51.254  33.025  52.971  0.00  0.00    -0.285 N 
ATOM     26  C   UNL d   1      51.026  33.323  52.237  0.00  0.00     0.101 A 
ATOM     27  C   UNL d   1      50.458  33.929  52.197  0.00  0.00     0.100 A 
ATOM     28  N   UNL d   1      50.122  34.233  52.897  0.00  0.00    -0.300 N 
ATOM     29  C   UNL d   1      50.354  33.931  53.636  0.00  0.00     0.100 A 
ATOM     30  C   UNL d   1      50.918  33.329  53.671  0.00  0.00     0.101 A 
BRANCH  28  31
ATOM     31  C   UNL d   1      49.549  34.845  52.853  0.00  0.00     0.080 C 
ATOM     32  C   UNL d   1      49.003  34.846  52.222  0.00  0.00     0.021 C 
ENDBRANCH  28  31
ENDBRANCH   2  25
TORSDOF 6
ENDMDL
MODEL 5
REMARK VINA RESULT:      -3.8      1.216      3.273
REMARK  6 active torsions:
REMARK  status: ('A' for Active; 'I' for Inactive)
REMARK    1  A    between atoms: C_3  and  C_1 
REMARK    2  A    between atoms: S_2  and  C_3 
REMARK    3  A    between atoms: C_8  and  S_2 
REMARK    4  A    between atoms: C_9  and  C_3 
REMARK    5  A    between atoms: N_7  and  C_4 
REMARK    6  A    between atoms: C_25  and  N_16 
ROOT
ATOM      1  C   UNL d   1      52.828  32.572  53.080  0.00  0.00     0.128 A 
ATOM      2  C   UNL d   1      52.278  31.986  53.245  0.00  0.00     0.166 A 
ATOM      3  N   UNL d   1      52.580  33.314  52.835  0.00  0.00    -0.240 NA
ATOM      4  N   UNL d   1      51.480  32.142  53.167  0.00  0.00    -0.225 NA
ATOM      5  C   UNL d   1      51.779  33.466  52.758  0.00  0.00     0.099 A 
ATOM      6  C   UNL d   1      51.226  32.882  52.923  0.00  0.00     0.101 A 
ATOM      7  C   UNL d   1      50.422  33.043  52.842  0.00  0.00     0.021 A 
ATOM      8  C   UNL d   1      51.532  34.214  52.511  0.00  0.00     0.021 A 
ATOM      9  C   UNL d   1      50.727  34.374  52.431  0.00  0.00     0.002 A 
ATOM     10  C   UNL d   1      50.176  33.787  52.597  0.00  0.00     0.002 A 
ENDROOT
BRANCH   1  11
ATOM     11  C   UNL d   1      53.630  32.420  53.157  0.00  0.00     0.129 C 
BRANCH  11  12
ATOM     12  S   UNL d   1      54.161  33.078  53.459  0.00  0.00     0.213 S 
ATOM     13  O   UNL d   1      54.273  33.061  52.630  0.00  0.00    -0.217 OA
ATOM     14  O   UNL d   1      54.647  33.527  52.865  0.00  0.00    -0.217 OA
BRANCH  12  15
ATOM     15  C   UNL d   1      54.309  33.379  54.222  0.00  0.00     0.088 A 
ATOM     16  C   UNL d   1      53.894  34.042  54.491  0.00  0.00     0.011 A 
ATOM     17  C   UNL d   1      54.038  34.342  55.245  0.00  0.00     0.001 A 
ATOM     18  C   UNL d   1      53.628  35.000  55.515  0.00  0.00     0.000 C 
ATOM     19  C   UNL d   1      54.601  33.976  55.734  0.00  0.00     0.000 A 
ATOM     20  C   UNL d   1      55.014  33.313  55.461  0.00  0.00     0.001 A 
ATOM     21  C   UNL d   1      54.748  34.274  56.491  0.00  0.00     0.000 C 
ATOM     22  C   UNL d   1      54.871  33.011  54.705  0.00  0.00     0.011 A 
ENDBRANCH  12  15
ENDBRANCH  11  12
BRANCH  11  23
ATOM     23  C   UNL d   1      54.087  31.699  52.992  0.00  0.00     0.135 C 
ATOM     24  N   UNL d   1      54.848  31.623  52.549  0.00  0.00    -0.146 N 
ENDBRANCH  11  23
ENDBRANCH   1  11
BRANCH   2  25
ATOM     25  N   UNL d   1      52.545  31.234  53.494  0.00  0.00    -0.285 N 
ATOM     26  C   UNL d   1      52.698  31.087  54.291  0.00  0.00     0.101 A 
ATOM     27  C   UNL d   1      52.963  30.335  54.527  0.00  0.00     0.100 A 
ATOM     28  N   UNL d   1      53.074  29.734  53.959  0.00  0.00    -0.300 N 
ATOM     29  C   UNL d   1      52.919  29.886  53.156  0.00  0.00     0.100 A 
ATOM     30  C   UNL d   1      52.656  30.633  52.926  0.00  0.00     0.101 A 
BRANCH  28  31
ATOM     31  C   UNL d   1      53.342  28.976  54.201  0.00  0.00     0.080 C 
ATOM     32  C   UNL d   1      53.368  28.795  55.015  0.00  0.00     0.021 C 
ENDBRANCH  28  31
ENDBRANCH   2  25
TORSDOF 6
ENDMDL
