MODEL 1
REMARK VINA RESULT:      -5.8      0.000      0.000
REMARK  3 active torsions:
REMARK  status: ('A' for Active; 'I' for Inactive)
REMARK       I    between atoms: C_6  and  N_1 
REMARK    1  A    between atoms: C_7  and  C_3 
REMARK    2  A    between atoms: C_8  and  C_4 
REMARK    3  A    between atoms: C_20  and  C_18 
ROOT
ATOM      1  N   UNL d   1      58.246  -1.122  29.996  0.00  0.00    -0.193 N 
ATOM      2  N   UNL d   1      57.687  -1.283  30.568  0.00  0.00    -0.163 NA
ATOM      3  C   UNL d   1      58.420  -0.315  30.019  0.00  0.00     0.110 A 
ATOM      4  C   UNL d   1      57.515  -0.572  30.947  0.00  0.00     0.103 A 
ATOM      5  C   UNL d   1      57.963   0.011  30.609  0.00  0.00     0.042 A 
ATOM      6  C   UNL d   1      58.594  -1.688  29.462  0.00  0.00     0.281 C 
ATOM      7  O   UNL d   1      59.142  -1.451  28.923  0.00  0.00    -0.265 OA
ATOM      8  C   UNL d   1      58.358  -2.477  29.512  0.00  0.00     0.068 C 
ENDROOT
BRANCH   4   9
ATOM      9  C   UNL d   1      56.977  -0.476  31.563  0.00  0.00     0.019 A 
ATOM     10  C   UNL d   1      56.750   0.280  31.805  0.00  0.00     0.002 A 
ATOM     11  C   UNL d   1      56.213   0.376  32.422  0.00  0.00     0.000 A 
ATOM     12  C   UNL d   1      55.898  -0.290  32.802  0.00  0.00     0.000 A 
ATOM     13  C   UNL d   1      56.123  -1.045  32.562  0.00  0.00     0.000 A 
ATOM     14  C   UNL d   1      56.663  -1.142  31.944  0.00  0.00     0.002 A 
BRANCH  12  15
ATOM     15  C   UNL d   1      55.359  -0.194  33.420  0.00  0.00     0.000 C 
ATOM     16  C   UNL d   1      55.380   0.485  33.889  0.00  0.00     0.000 C 
ENDBRANCH  12  15
ENDBRANCH   4   9
BRANCH   3  17
ATOM     17  C   UNL d   1      58.962   0.076  29.528  0.00  0.00     0.118 A 
ATOM     18  O   UNL d   1      58.827   0.304  28.751  0.00  0.00    -0.304 OA
ATOM     19  C   UNL d   1      59.515   0.682  28.455  0.00  0.00     0.123 A 
ATOM     20  C   UNL d   1      60.076   0.681  29.063  0.00  0.00     0.029 A 
ATOM     21  C   UNL d   1      59.718   0.301  29.724  0.00  0.00     0.028 A 
ENDBRANCH   3  17
TORSDOF 3
ENDMDL
MODEL 2
REMARK VINA RESULT:      -5.3      0.856      1.794
REMARK  3 active torsions:
REMARK  status: ('A' for Active; 'I' for Inactive)
REMARK       I    between atoms: C_6  and  N_1 
REMARK    1  A    between atoms: C_7  and  C_3 
REMARK    2  A    between atoms: C_8  and  C_4 
REMARK    3  A    between atoms: C_20  and  C_18 
ROOT
ATOM      1  N   UNL d   1      58.200  -0.434  29.692  0.00  0.00    -0.193 N 
ATOM      2  N   UNL d   1      57.763  -0.037  30.254  0.00  0.00    -0.163 NA
ATOM      3  C   UNL d   1      58.316  -1.209  29.950  0.00  0.00     0.110 A 
ATOM      4  C   UNL d   1      57.608  -0.569  30.864  0.00  0.00     0.103 A 
ATOM      5  C   UNL d   1      57.946  -1.279  30.672  0.00  0.00     0.042 A 
ATOM      6  C   UNL d   1      58.491  -0.107  28.961  0.00  0.00     0.281 C 
ATOM      7  O   UNL d   1      58.917  -0.564  28.455  0.00  0.00    -0.265 OA
ATOM      8  C   UNL d   1      58.325   0.682  28.785  0.00  0.00     0.068 C 
ENDROOT
BRANCH   4   9
ATOM      9  C   UNL d   1      57.180  -0.403  31.548  0.00  0.00     0.019 A 
ATOM     10  C   UNL d   1      56.616  -0.937  31.828  0.00  0.00     0.002 A 
ATOM     11  C   UNL d   1      56.189  -0.771  32.512  0.00  0.00     0.000 A 
ATOM     12  C   UNL d   1      56.326  -0.064  32.922  0.00  0.00     0.000 A 
ATOM     13  C   UNL d   1      56.888   0.471  32.645  0.00  0.00     0.000 A 
ATOM     14  C   UNL d   1      57.317   0.304  31.958  0.00  0.00     0.002 A 
BRANCH  12  15
ATOM     15  C   UNL d   1      55.897   0.103  33.608  0.00  0.00     0.000 C 
ATOM     16  C   UNL d   1      55.079   0.197  33.574  0.00  0.00     0.000 C 
ENDBRANCH  12  15
ENDBRANCH   4   9
BRANCH   3  17
ATOM     17  C   UNL d   1      58.734  -1.797  29.540  0.00  0.00     0.118 A 
ATOM     18  O   UNL d   1      58.414  -2.318  28.992  0.00  0.00    -0.304 OA
ATOM     19  C   UNL d   1      59.022  -2.821  28.708  0.00  0.00     0.123 A 
ATOM     20  C   UNL d   1      59.722  -2.600  29.091  0.00  0.00     0.029 A 
ATOM     21  C   UNL d   1      59.526  -1.962  29.605  0.00  0.00     0.028 A 
ENDBRANCH   3  17
TORSDOF 3
ENDMDL
MODEL 3
REMARK VINA RESULT:      -4.6      1.008      1.682
REMARK  3 active torsions:
REMARK  status: ('A' for Active; 'I' for Inactive)
REMARK       I    between atoms: C_6  and  N_1 
REMARK    1  A    between atoms: C_7  and  C_3 
REMARK    2  A    between atoms: C_8  and  C_4 
REMARK    3  A    between atoms: C_20  and  C_18 
ROOT
ATOM      1  N   UNL d   1      58.754   0.062  31.035  0.00  0.00    -0.193 N 
ATOM      2  N   UNL d   1      58.288   0.226  31.683  0.00  0.00    -0.163 NA
ATOM      3  C   UNL d   1      58.298  -0.344  30.480  0.00  0.00     0.110 A 
ATOM      4  C   UNL d   1      57.539  -0.081  31.529  0.00  0.00     0.103 A 
ATOM      5  C   UNL d   1      57.552  -0.425  30.796  0.00  0.00     0.042 A 
ATOM      6  C   UNL d   1      59.574   0.273  30.942  0.00  0.00     0.281 C 
ATOM      7  O   UNL d   1      59.969   0.076  30.270  0.00  0.00    -0.265 OA
ATOM      8  C   UNL d   1      59.951   0.681  31.553  0.00  0.00     0.068 C 
ENDROOT
BRANCH   4   9
ATOM      9  C   UNL d   1      56.891  -0.041  32.035  0.00  0.00     0.019 A 
ATOM     10  C   UNL d   1      56.715  -0.672  32.538  0.00  0.00     0.002 A 
ATOM     11  C   UNL d   1      56.067  -0.633  33.045  0.00  0.00     0.000 A 
ATOM     12  C   UNL d   1      55.588   0.044  33.051  0.00  0.00     0.000 A 
ATOM     13  C   UNL d   1      55.762   0.675  32.550  0.00  0.00     0.000 A 
ATOM     14  C   UNL d   1      56.412   0.636  32.042  0.00  0.00     0.002 A 
BRANCH  12  15
ATOM     15  C   UNL d   1      54.939   0.084  33.559  0.00  0.00     0.000 C 
ATOM     16  C   UNL d   1      55.009   0.447  34.296  0.00  0.00     0.000 C 
ENDBRANCH  12  15
ENDBRANCH   4   9
BRANCH   3  17
ATOM     17  C   UNL d   1      58.564  -0.613  29.741  0.00  0.00     0.118 A 
ATOM     18  O   UNL d   1      58.724  -0.142  29.089  0.00  0.00    -0.304 OA
ATOM     19  C   UNL d   1      58.978  -0.630  28.457  0.00  0.00     0.123 A 
ATOM     20  C   UNL d   1      58.971  -1.411  28.731  0.00  0.00     0.029 A 
ATOM     21  C   UNL d   1      58.711  -1.384  29.532  0.00  0.00     0.028 A 
ENDBRANCH   3  17
TORSDOF 3
ENDMDL
MODEL 4
REMARK VINA RESULT:      -3.8      2.309      4.783
REMARK  3 active torsions:
REMARK  status: ('A' for Active; 'I' for Inactive)
REMARK       I    between atoms: C_6  and  N_1 
REMARK    1  A    between atoms: C_7  and  C_3 
REMARK    2  A    between atoms: C_8  and  C_4 
REMARK    3  A    between atoms: C_20  and  C_18 
ROOT
ATOM      1  N   UNL d   1      56.953   0.305  33.290  0.00  0.00    -0.193 N 
ATOM      2  N   UNL d   1      57.512   0.290  32.697  0.00  0.00    -0.163 NA
ATOM      3  C   UNL d   1      56.220   0.107  32.965  0.00  0.00     0.110 A 
ATOM      4  C   UNL d   1      57.124   0.081  32.001  0.00  0.00     0.103 A 
ATOM      5  C   UNL d   1      56.340  -0.028  32.170  0.00  0.00     0.042 A 
ATOM      6  C   UNL d   1      57.096   0.493  34.108  0.00  0.00     0.281 C 
ATOM      7  O   UNL d   1      56.490   0.487  34.637  0.00  0.00    -0.265 OA
ATOM      8  C   UNL d   1      57.864   0.680  34.344  0.00  0.00     0.068 C 
ENDROOT
BRANCH   4   9
ATOM      9  C   UNL d   1      57.477  -0.000  31.261  0.00  0.00     0.019 A 
ATOM     10  C   UNL d   1      57.644  -0.750  30.959  0.00  0.00     0.002 A 
ATOM     11  C   UNL d   1      57.997  -0.832  30.220  0.00  0.00     0.000 A 
ATOM     12  C   UNL d   1      58.186  -0.158  29.776  0.00  0.00     0.000 A 
ATOM     13  C   UNL d   1      58.020   0.592  30.075  0.00  0.00     0.000 A 
ATOM     14  C   UNL d   1      57.665   0.674  30.817  0.00  0.00     0.002 A 
BRANCH  12  15
ATOM     15  C   UNL d   1      58.540  -0.240  29.034  0.00  0.00     0.000 C 
ATOM     16  C   UNL d   1      59.358  -0.326  28.972  0.00  0.00     0.000 C 
ENDBRANCH  12  15
ENDBRANCH   4   9
BRANCH   3  17
ATOM     17  C   UNL d   1      55.504   0.058  33.382  0.00  0.00     0.118 A 
ATOM     18  O   UNL d   1      55.124  -0.634  33.603  0.00  0.00    -0.304 OA
ATOM     19  C   UNL d   1      54.420  -0.439  34.013  0.00  0.00     0.123 A 
ATOM     20  C   UNL d   1      54.373   0.386  34.041  0.00  0.00     0.029 A 
ATOM     21  C   UNL d   1      55.055   0.682  33.644  0.00  0.00     0.028 A 
ENDBRANCH   3  17
TORSDOF 3
ENDMDL
