MODEL 1
REMARK VINA RESULT:      -2.1      0.000      0.000
REMARK  5 active torsions:
REMARK  status: ('A' for Active; 'I' for Inactive)
REMARK    1  A    between atoms: O_8  and  C_1 
REMARK    2  A    between atoms: C_12  and  C_5 
REMARK    3  A    between atoms: C_10  and  O_8 
REMARK    4  A    between atoms: N_16  and  C_12 
REMARK    5  A    between atoms: O_19  and  C_15 
ROOT
ATOM      1  C   UNL d   1      33.204  18.677 -23.661  0.00  0.00     0.161 A 
ATOM      2  C   UNL d   1      33.221  20.129 -22.855  0.00  0.00     0.108 A 
ATOM      3  C   UNL d   1      33.215  20.114 -23.692  0.00  0.00     0.064 A 
ATOM      4  C   UNL d   1      33.207  19.396 -24.092  0.00  0.00     0.222 A 
ATOM      5  C   UNL d   1      33.230  20.856 -22.452  0.00  0.00     0.079 A 
ATOM      6  O   UNL d   1      33.219  19.423 -22.421  0.00  0.00    -0.305 OA
ATOM      7  C   UNL d   1      33.210  18.692 -22.832  0.00  0.00     0.126 A 
ATOM      8  C   UNL d   1      33.218  20.834 -24.111  0.00  0.00     0.009 A 
ATOM      9  C   UNL d   1      33.232  21.562 -22.882  0.00  0.00     0.199 A 
ATOM     10  O   UNL d   1      33.201  19.377 -24.916  0.00  0.00    -0.284 OA
ATOM     11  C   UNL d   1      33.226  21.551 -23.707  0.00  0.00     0.042 A 
ATOM     12  O   UNL d   1      33.240  22.281 -22.471  0.00  0.00    -0.286 OA
ATOM     13  C   UNL d   1      33.208  17.985 -22.410  0.00  0.00     0.029 C 
ENDROOT
BRANCH   1  14
ATOM     14  O   UNL d   1      33.196  17.959 -24.064  0.00  0.00    -0.300 OA
BRANCH  14  15
ATOM     15  C   UNL d   1      32.478  17.599 -24.247  0.00  0.00     0.122 A 
ATOM     16  C   UNL d   1      32.469  16.845 -24.575  0.00  0.00     0.117 A 
ATOM     17  C   UNL d   1      31.752  16.485 -24.758  0.00  0.00     0.026 A 
ATOM     18  C   UNL d   1      31.042  16.881 -24.613  0.00  0.00     0.002 A 
ATOM     19  C   UNL d   1      31.057  17.646 -24.279  0.00  0.00     0.002 A 
ATOM     20  C   UNL d   1      31.771  17.999 -24.099  0.00  0.00     0.027 A 
BRANCH  16  21
ATOM     21  O   UNL d   1      33.178  16.450 -24.721  0.00  0.00    -0.326 OA
ATOM     22  C   UNL d   1      33.168  15.710 -25.079  0.00  0.00     0.181 C 
ENDBRANCH  16  21
ENDBRANCH  14  15
ENDBRANCH   1  14
BRANCH   5  23
ATOM     23  C   UNL d   1      33.236  20.867 -21.627  0.00  0.00     0.086 C 
BRANCH  23  24
ATOM     24  N   UNL d   1      32.729  21.370 -21.226  0.00  0.00    -0.300 N 
ATOM     25  C   UNL d   1      31.924  21.196 -21.185  0.00  0.00     0.100 C 
ATOM     26  C   UNL d   1      33.019  22.053 -20.860  0.00  0.00     0.100 C 
ENDBRANCH  23  24
ENDBRANCH   5  23
TORSDOF 5
ENDMDL
MODEL 2
REMARK VINA RESULT:      -0.7      1.068      1.838
REMARK  5 active torsions:
REMARK  status: ('A' for Active; 'I' for Inactive)
REMARK    1  A    between atoms: O_8  and  C_1 
REMARK    2  A    between atoms: C_12  and  C_5 
REMARK    3  A    between atoms: C_10  and  O_8 
REMARK    4  A    between atoms: N_16  and  C_12 
REMARK    5  A    between atoms: O_19  and  C_15 
ROOT
ATOM      1  C   UNL d   1      33.239  19.400 -23.034  0.00  0.00     0.161 A 
ATOM      2  C   UNL d   1      33.235  20.816 -22.165  0.00  0.00     0.108 A 
ATOM      3  C   UNL d   1      33.236  20.080 -21.766  0.00  0.00     0.064 A 
ATOM      4  C   UNL d   1      33.238  19.379 -22.196  0.00  0.00     0.222 A 
ATOM      5  C   UNL d   1      33.233  21.525 -21.730  0.00  0.00     0.079 A 
ATOM      6  O   UNL d   1      33.236  20.847 -22.993  0.00  0.00    -0.305 OA
ATOM      7  C   UNL d   1      33.238  20.130 -23.428  0.00  0.00     0.126 A 
ATOM      8  C   UNL d   1      33.236  20.069 -20.934  0.00  0.00     0.009 A 
ATOM      9  C   UNL d   1      33.233  21.497 -20.904  0.00  0.00     0.199 A 
ATOM     10  O   UNL d   1      33.240  18.651 -21.807  0.00  0.00    -0.284 OA
ATOM     11  C   UNL d   1      33.234  20.773 -20.508  0.00  0.00     0.042 A 
ATOM     12  O   UNL d   1      33.231  22.209 -20.480  0.00  0.00    -0.286 OA
ATOM     13  C   UNL d   1      33.238  20.150 -24.251  0.00  0.00     0.029 C 
ENDROOT
BRANCH   1  14
ATOM     14  O   UNL d   1      33.241  18.697 -23.461  0.00  0.00    -0.300 OA
BRANCH  14  15
ATOM     15  C   UNL d   1      32.528  18.341 -23.668  0.00  0.00     0.122 A 
ATOM     16  C   UNL d   1      32.466  17.521 -23.674  0.00  0.00     0.117 A 
ATOM     17  C   UNL d   1      31.753  17.164 -23.881  0.00  0.00     0.026 A 
ATOM     18  C   UNL d   1      31.103  17.629 -24.084  0.00  0.00     0.002 A 
ATOM     19  C   UNL d   1      31.171  18.461 -24.077  0.00  0.00     0.002 A 
ATOM     20  C   UNL d   1      31.880  18.810 -23.870  0.00  0.00     0.027 A 
BRANCH  16  21
ATOM     21  O   UNL d   1      33.116  17.055 -23.471  0.00  0.00    -0.326 OA
ATOM     22  C   UNL d   1      33.036  16.239 -23.424  0.00  0.00     0.181 C 
ENDBRANCH  16  21
ENDBRANCH  14  15
ENDBRANCH   1  14
BRANCH   5  23
ATOM     23  C   UNL d   1      33.232  22.248 -22.126  0.00  0.00     0.086 C 
BRANCH  23  24
ATOM     24  N   UNL d   1      32.588  22.748 -22.052  0.00  0.00    -0.300 N 
ATOM     25  C   UNL d   1      32.549  23.438 -22.502  0.00  0.00     0.100 C 
ATOM     26  C   UNL d   1      31.974  22.567 -21.528  0.00  0.00     0.100 C 
ENDBRANCH  23  24
ENDBRANCH   5  23
TORSDOF 5
ENDMDL
MODEL 3
REMARK VINA RESULT:      -0.2      2.072      4.577
REMARK  5 active torsions:
REMARK  status: ('A' for Active; 'I' for Inactive)
REMARK    1  A    between atoms: O_8  and  C_1 
REMARK    2  A    between atoms: C_12  and  C_5 
REMARK    3  A    between atoms: C_10  and  O_8 
REMARK    4  A    between atoms: N_16  and  C_12 
REMARK    5  A    between atoms: O_19  and  C_15 
ROOT
ATOM      1  C   UNL d   1      31.973  17.901 -24.477  0.00  0.00     0.161 A 
ATOM      2  C   UNL d   1      30.573  17.007 -24.471  0.00  0.00     0.108 A 
ATOM      3  C   UNL d   1      30.565  17.796 -24.749  0.00  0.00     0.064 A 
ATOM      4  C   UNL d   1      31.257  18.240 -24.752  0.00  0.00     0.222 A 
ATOM      5  C   UNL d   1      29.873  16.559 -24.468  0.00  0.00     0.079 A 
ATOM      6  O   UNL d   1      31.277  16.663 -24.197  0.00  0.00    -0.305 OA
ATOM      7  C   UNL d   1      31.981  17.119 -24.202  0.00  0.00     0.126 A 
ATOM      8  C   UNL d   1      29.849  18.123 -25.020  0.00  0.00     0.009 A 
ATOM      9  C   UNL d   1      29.170  16.898 -24.741  0.00  0.00     0.199 A 
ATOM     10  O   UNL d   1      31.253  19.018 -25.025  0.00  0.00    -0.284 OA
ATOM     11  C   UNL d   1      29.158  17.676 -25.015  0.00  0.00     0.042 A 
ATOM     12  O   UNL d   1      28.478  16.444 -24.734  0.00  0.00    -0.286 OA
ATOM     13  C   UNL d   1      32.685  16.787 -23.932  0.00  0.00     0.029 C 
ENDROOT
BRANCH   1  14
ATOM     14  O   UNL d   1      32.664  18.347 -24.481  0.00  0.00    -0.300 OA
BRANCH  14  15
ATOM     15  C   UNL d   1      32.808  18.888 -23.877  0.00  0.00     0.122 A 
ATOM     16  C   UNL d   1      33.095  19.637 -24.056  0.00  0.00     0.117 A 
ATOM     17  C   UNL d   1      33.239  20.177 -23.452  0.00  0.00     0.026 A 
ATOM     18  C   UNL d   1      33.096  19.967 -22.667  0.00  0.00     0.002 A 
ATOM     19  C   UNL d   1      32.805  19.205 -22.490  0.00  0.00     0.002 A 
ATOM     20  C   UNL d   1      32.663  18.672 -23.094  0.00  0.00     0.027 A 
BRANCH  16  21
ATOM     21  O   UNL d   1      33.239  19.848 -24.841  0.00  0.00    -0.326 OA
ATOM     22  C   UNL d   1      33.238  20.641 -25.058  0.00  0.00     0.181 C 
ENDBRANCH  16  21
ENDBRANCH  14  15
ENDBRANCH   1  14
BRANCH   5  23
ATOM     23  C   UNL d   1      29.885  15.781 -24.194  0.00  0.00     0.086 C 
BRANCH  23  24
ATOM     24  N   UNL d   1      29.626  15.616 -23.435  0.00  0.00    -0.300 N 
ATOM     25  C   UNL d   1      28.818  15.611 -23.269  0.00  0.00     0.100 C 
ATOM     26  C   UNL d   1      30.168  15.453 -22.832  0.00  0.00     0.100 C 
ENDBRANCH  23  24
ENDBRANCH   5  23
TORSDOF 5
ENDMDL
