MODEL 1
REMARK VINA RESULT:      -3.2      0.000      0.000
REMARK  4 active torsions:
REMARK  status: ('A' for Active; 'I' for Inactive)
REMARK    1  A    between atoms: S_4  and  C_1 
REMARK    2  A    between atoms: N_7  and  C_3 
REMARK    3  A    between atoms: C_11  and  S_4 
REMARK    4  A    between atoms: C_8  and  C_6 
ROOT
ATOM      1  C   UNL d   1      58.194  -1.294  30.281  0.00  0.00     0.210 A 
ATOM      2  N   UNL d   1      57.593  -1.396  30.831  0.00  0.00    -0.205 NA
ATOM      3  C   UNL d   1      58.414  -0.498  30.286  0.00  0.00     0.199 A 
ATOM      4  O   UNL d   1      57.944  -0.114  30.842  0.00  0.00    -0.268 OA
ATOM      5  C   UNL d   1      57.440  -0.665  31.178  0.00  0.00     0.208 A 
ENDROOT
BRANCH   1   6
ATOM      6  S   UNL d   1      58.472  -1.932  29.840  0.00  0.00     0.230 S 
ATOM      7  O   UNL d   1      58.102  -2.148  29.140  0.00  0.00    -0.215 OA
ATOM      8  O   UNL d   1      59.131  -2.361  30.107  0.00  0.00    -0.215 OA
BRANCH   6   9
ATOM      9  C   UNL d   1      58.756  -2.571  29.406  0.00  0.00     0.090 A 
ATOM     10  C   UNL d   1      58.252  -2.973  28.897  0.00  0.00     0.011 A 
ATOM     11  C   UNL d   1      58.528  -3.617  28.455  0.00  0.00     0.001 A 
ATOM     12  C   UNL d   1      59.317  -3.855  28.530  0.00  0.00     0.000 A 
ATOM     13  C   UNL d   1      59.826  -3.450  29.044  0.00  0.00     0.001 A 
ATOM     14  C   UNL d   1      59.544  -2.809  29.481  0.00  0.00     0.011 A 
ENDBRANCH   6   9
ENDBRANCH   1   6
BRANCH   3  15
ATOM     15  N   UNL d   1      58.997  -0.150  29.818  0.00  0.00    -0.283 N 
ATOM     16  C   UNL d   1      59.651  -0.081  30.108  0.00  0.00     0.082 A 
ATOM     17  C   UNL d   1      60.402   0.236  29.837  0.00  0.00     0.019 A 
ATOM     18  C   UNL d   1      60.623   0.546  29.208  0.00  0.00     0.002 A 
ATOM     19  C   UNL d   1      60.148   0.681  28.528  0.00  0.00     0.002 A 
ATOM     20  C   UNL d   1      59.291   0.470  28.455  0.00  0.00     0.019 A 
ATOM     21  C   UNL d   1      58.770   0.089  29.050  0.00  0.00     0.082 A 
ENDBRANCH   3  15
BRANCH   5  22
ATOM     22  C   UNL d   1      56.842  -0.767  31.725  0.00  0.00     0.141 A 
ATOM     23  O   UNL d   1      56.271  -1.290  31.995  0.00  0.00    -0.302 OA
ATOM     24  C   UNL d   1      55.868  -0.933  32.618  0.00  0.00     0.123 A 
ATOM     25  C   UNL d   1      56.195  -0.184  32.730  0.00  0.00     0.029 A 
ATOM     26  C   UNL d   1      56.796  -0.081  32.180  0.00  0.00     0.030 A 
ENDBRANCH   5  22
TORSDOF 4
ENDMDL
MODEL 2
REMARK VINA RESULT:      -1.1      0.935      2.754
REMARK  4 active torsions:
REMARK  status: ('A' for Active; 'I' for Inactive)
REMARK    1  A    between atoms: S_4  and  C_1 
REMARK    2  A    between atoms: N_7  and  C_3 
REMARK    3  A    between atoms: C_11  and  S_4 
REMARK    4  A    between atoms: C_8  and  C_6 
ROOT
ATOM      1  C   UNL d   1      58.428  -0.783  30.311  0.00  0.00     0.210 A 
ATOM      2  N   UNL d   1      57.960  -0.372  30.846  0.00  0.00    -0.205 NA
ATOM      3  C   UNL d   1      58.131  -1.551  30.247  0.00  0.00     0.199 A 
ATOM      4  O   UNL d   1      57.479  -1.608  30.746  0.00  0.00    -0.268 OA
ATOM      5  C   UNL d   1      57.373  -0.884  31.115  0.00  0.00     0.208 A 
ENDROOT
BRANCH   1   6
ATOM      6  S   UNL d   1      59.068  -0.415  29.945  0.00  0.00     0.230 S 
ATOM      7  O   UNL d   1      58.962   0.012  29.251  0.00  0.00    -0.215 OA
ATOM      8  O   UNL d   1      59.825  -0.475  30.279  0.00  0.00    -0.215 OA
BRANCH   6   9
ATOM      9  C   UNL d   1      59.711  -0.050  29.585  0.00  0.00     0.090 A 
ATOM     10  C   UNL d   1      60.435  -0.026  29.973  0.00  0.00     0.011 A 
ATOM     11  C   UNL d   1      61.089   0.339  29.618  0.00  0.00     0.001 A 
ATOM     12  C   UNL d   1      61.009   0.681  28.869  0.00  0.00     0.000 A 
ATOM     13  C   UNL d   1      60.279   0.657  28.478  0.00  0.00     0.001 A 
ATOM     14  C   UNL d   1      59.631   0.292  28.836  0.00  0.00     0.011 A 
ENDBRANCH   6   9
ENDBRANCH   1   6
BRANCH   3  15
ATOM     15  N   UNL d   1      58.433  -2.152  29.770  0.00  0.00    -0.283 N 
ATOM     16  C   UNL d   1      59.011  -2.502  30.011  0.00  0.00     0.082 A 
ATOM     17  C   UNL d   1      59.497  -3.145  29.713  0.00  0.00     0.019 A 
ATOM     18  C   UNL d   1      59.477  -3.552  29.102  0.00  0.00     0.002 A 
ATOM     19  C   UNL d   1      58.917  -3.485  28.478  0.00  0.00     0.002 A 
ATOM     20  C   UNL d   1      58.249  -2.904  28.455  0.00  0.00     0.019 A 
ATOM     21  C   UNL d   1      58.033  -2.296  29.050  0.00  0.00     0.082 A 
ENDBRANCH   3  15
BRANCH   5  22
ATOM     22  C   UNL d   1      56.907  -0.475  31.647  0.00  0.00     0.141 A 
ATOM     23  O   UNL d   1      56.505   0.228  31.774  0.00  0.00    -0.302 OA
ATOM     24  C   UNL d   1      56.149   0.192  32.515  0.00  0.00     0.123 A 
ATOM     25  C   UNL d   1      56.334  -0.542  32.845  0.00  0.00     0.029 A 
ATOM     26  C   UNL d   1      56.802  -0.953  32.310  0.00  0.00     0.030 A 
ENDBRANCH   5  22
TORSDOF 4
ENDMDL
