MODEL 1
REMARK VINA RESULT:      38.2      0.000      0.000
REMARK  2 active torsions:
REMARK  status: ('A' for Active; 'I' for Inactive)
REMARK    1  A    between atoms: C_8  and  N_1 
REMARK    2  A    between atoms: C_12  and  C_8 
ROOT
ATOM      1  N   UNL d   1      58.696  49.707  50.393  0.00  0.00    -0.238 N 
ATOM      2  C   UNL d   1      58.285  49.707  49.859  0.00  0.00     0.267 A 
ATOM      3  C   UNL d   1      58.474  49.707  51.145  0.00  0.00     0.267 A 
ATOM      4  C   UNL d   1      57.697  49.707  51.429  0.00  0.00     0.057 A 
ATOM      5  C   UNL d   1      57.489  49.707  49.760  0.00  0.00     0.057 A 
ATOM      6  C   UNL d   1      56.998  49.707  50.977  0.00  0.00     0.005 A 
ATOM      7  C   UNL d   1      56.955  49.707  50.203  0.00  0.00     0.005 A 
ATOM      8  O   UNL d   1      58.727  49.707  49.100  0.00  0.00    -0.267 OA
ATOM      9  O   UNL d   1      59.040  49.707  51.687  0.00  0.00    -0.267 OA
ATOM     10  C   UNL d   1      57.384  49.707  49.082  0.00  0.00     0.005 A 
ATOM     11  C   UNL d   1      57.673  49.707  52.255  0.00  0.00     0.005 A 
ATOM     12  C   UNL d   1      56.275  49.707  51.368  0.00  0.00     0.000 A 
ATOM     13  C   UNL d   1      56.302  49.707  49.954  0.00  0.00     0.000 A 
ATOM     14  C   UNL d   1      56.939  49.707  52.639  0.00  0.00     0.000 A 
ATOM     15  C   UNL d   1      56.241  49.707  52.193  0.00  0.00     0.000 A 
ATOM     16  C   UNL d   1      56.200  49.707  49.268  0.00  0.00     0.000 A 
ATOM     17  C   UNL d   1      56.736  49.707  48.833  0.00  0.00     0.000 A 
ENDROOT
BRANCH   1  18
ATOM     18  C   UNL d   1      59.569  49.707  50.234  0.00  0.00     0.111 C 
BRANCH  18  19
ATOM     19  C   UNL d   1      60.111  49.254  50.760  0.00  0.00     0.118 A 
ATOM     20  O   UNL d   1      60.159  48.375  50.816  0.00  0.00    -0.304 OA
ATOM     21  C   UNL d   1      60.776  48.174  51.412  0.00  0.00     0.123 A 
ATOM     22  C   UNL d   1      61.112  48.930  51.724  0.00  0.00     0.029 A 
ATOM     23  C   UNL d   1      60.698  49.595  51.319  0.00  0.00     0.028 A 
ENDBRANCH  18  19
ENDBRANCH   1  18
TORSDOF 2
ENDMDL
