MODEL 1
REMARK VINA RESULT:      -6.0      0.000      0.000
REMARK  5 active torsions:
REMARK  status: ('A' for Active; 'I' for Inactive)
REMARK    1  A    between atoms: N_4  and  C_1 
REMARK    2  A    between atoms: C_10  and  C_3 
REMARK       I    between atoms: C_7  and  N_4 
REMARK    3  A    between atoms: C_8  and  C_7 
REMARK    4  A    between atoms: C_9  and  C_8 
REMARK    5  A    between atoms: C_12  and  C_9 
ROOT
ATOM      1  C   UNL d   1     -41.438-122.642 -51.610  0.00  0.00     0.197 A 
ATOM      2  N   UNL d   1     -41.628-122.913 -52.361  0.00  0.00    -0.221 NA
ATOM      3  C   UNL d   1     -41.460-122.325 -52.902  0.00  0.00     0.090 A 
ATOM      4  S   UNL d   1     -41.152-121.885 -51.673  0.00  0.00    -0.046 SA
ATOM      5  C   UNL d   1     -41.164-121.683 -52.473  0.00  0.00     0.058 A 
ENDROOT
BRANCH   1   6
ATOM      6  N   UNL d   1     -41.529-123.082 -50.898  0.00  0.00    -0.183 NA
ATOM      7  C   UNL d   1     -42.020-122.794 -50.302  0.00  0.00     0.281 C 
ATOM      8  O   UNL d   1     -42.415-122.097 -50.393  0.00  0.00    -0.265 OA
BRANCH   7   9
ATOM      9  C   UNL d   1     -42.113-123.223 -49.601  0.00  0.00     0.063 C 
BRANCH   9  10
ATOM     10  C   UNL d   1     -42.486-122.885 -48.953  0.00  0.00     0.005 C 
BRANCH  10  11
ATOM     11  C   UNL d   1     -42.350-123.176 -48.192  0.00  0.00     0.000 A 
ATOM     12  C   UNL d   1     -42.954-123.532 -47.792  0.00  0.00     0.000 A 
ATOM     13  C   UNL d   1     -42.830-123.817 -47.053  0.00  0.00     0.000 A 
ATOM     14  C   UNL d   1     -42.077-123.750 -46.686  0.00  0.00     0.000 A 
ATOM     15  C   UNL d   1     -41.465-123.390 -47.087  0.00  0.00     0.000 A 
ATOM     16  C   UNL d   1     -41.601-123.099 -47.849  0.00  0.00     0.000 A 
ENDBRANCH  10  11
ENDBRANCH   9  10
ENDBRANCH   7   9
ENDBRANCH   1   6
BRANCH   3  17
ATOM     17  C   UNL d   1     -41.585-122.409 -53.716  0.00  0.00     0.018 A 
ATOM     18  C   UNL d   1     -41.169-122.956 -54.133  0.00  0.00     0.002 A 
ATOM     19  C   UNL d   1     -41.306-123.028 -54.947  0.00  0.00     0.000 A 
ATOM     20  C   UNL d   1     -41.854-122.550 -55.322  0.00  0.00     0.000 A 
ATOM     21  C   UNL d   1     -42.276-121.991 -54.890  0.00  0.00     0.000 A 
ATOM     22  C   UNL d   1     -42.143-121.922 -54.098  0.00  0.00     0.002 A 
ENDBRANCH   3  17
TORSDOF 5
ENDMDL
MODEL 2
REMARK VINA RESULT:      -5.2      0.808      5.676
REMARK  5 active torsions:
REMARK  status: ('A' for Active; 'I' for Inactive)
REMARK    1  A    between atoms: N_4  and  C_1 
REMARK    2  A    between atoms: C_10  and  C_3 
REMARK       I    between atoms: C_7  and  N_4 
REMARK    3  A    between atoms: C_8  and  C_7 
REMARK    4  A    between atoms: C_9  and  C_8 
REMARK    5  A    between atoms: C_12  and  C_9 
ROOT
ATOM      1  C   UNL d   1     -41.817-123.361 -50.610  0.00  0.00     0.197 A 
ATOM      2  N   UNL d   1     -42.265-123.232 -49.934  0.00  0.00    -0.221 NA
ATOM      3  C   UNL d   1     -41.852-123.512 -49.289  0.00  0.00     0.090 A 
ATOM      4  S   UNL d   1     -41.123-123.721 -50.394  0.00  0.00    -0.046 SA
ATOM      5  C   UNL d   1     -41.140-123.817 -49.575  0.00  0.00     0.058 A 
ENDROOT
BRANCH   1   6
ATOM      6  N   UNL d   1     -42.047-123.152 -51.393  0.00  0.00    -0.183 NA
ATOM      7  C   UNL d   1     -41.689-122.508 -51.762  0.00  0.00     0.281 C 
ATOM      8  O   UNL d   1     -41.123-122.077 -51.384  0.00  0.00    -0.265 OA
BRANCH   7   9
ATOM      9  C   UNL d   1     -41.911-122.298 -52.530  0.00  0.00     0.063 C 
BRANCH   9  10
ATOM     10  C   UNL d   1     -41.456-122.530 -53.174  0.00  0.00     0.005 C 
BRANCH  10  11
ATOM     11  C   UNL d   1     -41.725-122.404 -53.944  0.00  0.00     0.000 A 
ATOM     12  C   UNL d   1     -41.538-122.938 -54.519  0.00  0.00     0.000 A 
ATOM     13  C   UNL d   1     -41.794-122.824 -55.270  0.00  0.00     0.000 A 
ATOM     14  C   UNL d   1     -42.258-122.151 -55.468  0.00  0.00     0.000 A 
ATOM     15  C   UNL d   1     -42.449-121.610 -54.890  0.00  0.00     0.000 A 
ATOM     16  C   UNL d   1     -42.181-121.735 -54.118  0.00  0.00     0.000 A 
ENDBRANCH  10  11
ENDBRANCH   9  10
ENDBRANCH   7   9
ENDBRANCH   1   6
BRANCH   3  17
ATOM     17  C   UNL d   1     -42.142-123.472 -48.514  0.00  0.00     0.018 A 
ATOM     18  C   UNL d   1     -42.903-123.677 -48.356  0.00  0.00     0.002 A 
ATOM     19  C   UNL d   1     -43.176-123.631 -47.575  0.00  0.00     0.000 A 
ATOM     20  C   UNL d   1     -42.681-123.381 -46.973  0.00  0.00     0.000 A 
ATOM     21  C   UNL d   1     -41.903-123.173 -47.141  0.00  0.00     0.000 A 
ATOM     22  C   UNL d   1     -41.637-123.218 -47.901  0.00  0.00     0.002 A 
ENDBRANCH   3  17
TORSDOF 5
ENDMDL
MODEL 3
REMARK VINA RESULT:      -3.6      1.158      1.749
REMARK  5 active torsions:
REMARK  status: ('A' for Active; 'I' for Inactive)
REMARK    1  A    between atoms: N_4  and  C_1 
REMARK    2  A    between atoms: C_10  and  C_3 
REMARK       I    between atoms: C_7  and  N_4 
REMARK    3  A    between atoms: C_8  and  C_7 
REMARK    4  A    between atoms: C_9  and  C_8 
REMARK    5  A    between atoms: C_12  and  C_9 
ROOT
ATOM      1  C   UNL d   1     -41.568-123.353 -53.111  0.00  0.00     0.197 A 
ATOM      2  N   UNL d   1     -41.922-122.760 -53.556  0.00  0.00    -0.221 NA
ATOM      3  C   UNL d   1     -41.700-122.850 -54.336  0.00  0.00     0.090 A 
ATOM      4  S   UNL d   1     -41.125-123.817 -53.608  0.00  0.00    -0.046 SA
ATOM      5  C   UNL d   1     -41.203-123.509 -54.369  0.00  0.00     0.058 A 
ENDROOT
BRANCH   1   6
ATOM      6  N   UNL d   1     -41.656-123.456 -52.280  0.00  0.00    -0.183 NA
ATOM      7  C   UNL d   1     -41.429-122.850 -51.770  0.00  0.00     0.281 C 
ATOM      8  O   UNL d   1     -41.123-122.161 -52.056  0.00  0.00    -0.265 OA
BRANCH   7   9
ATOM      9  C   UNL d   1     -41.513-122.946 -50.953  0.00  0.00     0.063 C 
BRANCH   9  10
ATOM     10  C   UNL d   1     -42.244-122.837 -50.594  0.00  0.00     0.005 C 
BRANCH  10  11
ATOM     11  C   UNL d   1     -42.319-122.885 -49.773  0.00  0.00     0.000 A 
ATOM     12  C   UNL d   1     -43.044-123.033 -49.452  0.00  0.00     0.000 A 
ATOM     13  C   UNL d   1     -43.126-123.080 -48.656  0.00  0.00     0.000 A 
ATOM     14  C   UNL d   1     -42.463-122.978 -48.148  0.00  0.00     0.000 A 
ATOM     15  C   UNL d   1     -41.729-122.828 -48.470  0.00  0.00     0.000 A 
ATOM     16  C   UNL d   1     -41.654-122.780 -49.292  0.00  0.00     0.000 A 
ENDBRANCH  10  11
ENDBRANCH   9  10
ENDBRANCH   7   9
ENDBRANCH   1   6
BRANCH   3  17
ATOM     17  C   UNL d   1     -41.956-122.345 -54.940  0.00  0.00     0.018 A 
ATOM     18  C   UNL d   1     -42.673-122.459 -55.285  0.00  0.00     0.002 A 
ATOM     19  C   UNL d   1     -42.915-121.944 -55.888  0.00  0.00     0.000 A 
ATOM     20  C   UNL d   1     -42.432-121.330 -56.130  0.00  0.00     0.000 A 
ATOM     21  C   UNL d   1     -41.699-121.218 -55.774  0.00  0.00     0.000 A 
ATOM     22  C   UNL d   1     -41.464-121.718 -55.187  0.00  0.00     0.002 A 
ENDBRANCH   3  17
TORSDOF 5
ENDMDL
