MODEL 1
REMARK VINA RESULT:      -0.6      0.000      0.000
REMARK  5 active torsions:
REMARK  status: ('A' for Active; 'I' for Inactive)
REMARK    1  A    between atoms: C_11  and  N_1 
REMARK    2  A    between atoms: C_2  and  S_13 
REMARK       I    between atoms: C_12  and  N_14 
REMARK    3  A    between atoms: C_18  and  C_12 
REMARK    4  A    between atoms: S_13  and  C_18 
REMARK    5  A    between atoms: N_14  and  C_19 
ROOT
ATOM      1  C   UNL d   1      58.955   0.272  30.650  0.00  0.00     0.286 C 
ATOM      2  N   UNL d   1      58.771   0.681  31.343  0.00  0.00    -0.208 NA
ATOM      3  O   UNL d   1      59.659   0.433  30.251  0.00  0.00    -0.265 OA
ENDROOT
BRANCH   1   4
ATOM      4  C   UNL d   1      58.429  -0.299  30.358  0.00  0.00     0.101 C 
BRANCH   4   5
ATOM      5  S   UNL d   1      58.458  -0.507  29.555  0.00  0.00    -0.037 SA
BRANCH   5   6
ATOM      6  C   UNL d   1      58.671  -1.286  29.343  0.00  0.00     0.215 A 
ATOM      7  N   UNL d   1      59.434  -1.542  29.145  0.00  0.00    -0.214 NA
ATOM      8  C   UNL d   1      59.395  -2.350  28.973  0.00  0.00     0.107 A 
ATOM      9  C   UNL d   1      59.971  -2.889  28.747  0.00  0.00     0.021 A 
ATOM     10  C   UNL d   1      58.616  -2.588  29.064  0.00  0.00     0.120 A 
ATOM     11  C   UNL d   1      59.766  -3.677  28.610  0.00  0.00     0.002 A 
ATOM     12  C   UNL d   1      58.981  -3.921  28.700  0.00  0.00     0.002 A 
ATOM     13  C   UNL d   1      58.402  -3.373  28.929  0.00  0.00     0.026 A 
ATOM     14  O   UNL d   1      58.161  -1.936  29.293  0.00  0.00    -0.283 OA
ENDBRANCH   5   6
ENDBRANCH   4   5
ENDBRANCH   1   4
BRANCH   2  15
ATOM     15  C   UNL d   1      58.071   0.524  31.742  0.00  0.00     0.085 A 
ATOM     16  C   UNL d   1      57.337   0.659  31.363  0.00  0.00     0.021 A 
ATOM     17  C   UNL d   1      56.644   0.502  31.759  0.00  0.00     0.021 A 
ATOM     18  C   UNL d   1      56.651   0.211  32.533  0.00  0.00     0.086 A 
ATOM     19  C   UNL d   1      57.375   0.079  32.904  0.00  0.00     0.021 A 
ATOM     20  C   UNL d   1      58.087   0.236  32.507  0.00  0.00     0.021 A 
BRANCH  18  21
ATOM     21  N   UNL d   1      55.951   0.053  32.932  0.00  0.00    -0.189 N 
ATOM     22  N   UNL d   1      55.429   0.609  33.245  0.00  0.00    -0.038 NA
ATOM     23  N   UNL d   1      54.806   0.202  33.594  0.00  0.00    -0.022 NA
ATOM     24  N   UNL d   1      54.935  -0.604  33.502  0.00  0.00    -0.104 NA
ATOM     25  C   UNL d   1      55.647  -0.696  33.091  0.00  0.00     0.226 A 
ENDBRANCH  18  21
ENDBRANCH   2  15
TORSDOF 5
ENDMDL
