MODEL 1
REMARK VINA RESULT:      12.0      0.000      0.000
REMARK  3 active torsions:
REMARK  status: ('A' for Active; 'I' for Inactive)
REMARK    1  A    between atoms: N_5  and  C_2 
REMARK    2  A    between atoms: C_14  and  C_4 
REMARK       I    between atoms: C_7  and  N_5 
REMARK    3  A    between atoms: C_8  and  C_7 
ROOT
ATOM      1  S   UNL d   1      46.005 -15.347  44.303  0.00  0.00    -0.026 SA
ATOM      2  C   UNL d   1      45.745 -16.091  44.555  0.00  0.00     0.219 A 
ATOM      3  N   UNL d   1      44.878 -15.139  44.938  0.00  0.00    -0.139 NA
ATOM      4  C   UNL d   1      45.472 -14.774  44.541  0.00  0.00     0.135 A 
ATOM      5  N   UNL d   1      45.038 -15.960  44.953  0.00  0.00    -0.121 NA
ENDROOT
BRANCH   2   6
ATOM      6  N   UNL d   1      46.054 -16.858  44.474  0.00  0.00    -0.181 NA
ATOM      7  C   UNL d   1      45.849 -17.297  43.823  0.00  0.00     0.287 C 
ATOM      8  O   UNL d   1      45.343 -17.011  43.232  0.00  0.00    -0.265 OA
BRANCH   7   9
ATOM      9  C   UNL d   1      46.150 -18.039  43.749  0.00  0.00     0.087 A 
ATOM     10  S   UNL d   1      46.322 -18.530  44.372  0.00  0.00    -0.082 SA
ATOM     11  C   UNL d   1      46.623 -19.246  44.054  0.00  0.00     0.036 A 
ATOM     12  C   UNL d   1      46.626 -19.175  43.260  0.00  0.00     0.008 A 
ATOM     13  C   UNL d   1      46.344 -18.451  43.045  0.00  0.00     0.012 A 
ENDBRANCH   7   9
ENDBRANCH   2   6
BRANCH   4  14
ATOM     14  C   UNL d   1      45.550 -13.945  44.385  0.00  0.00     0.026 C 
ATOM     15  C   UNL d   1      45.170 -13.575  43.753  0.00  0.00     0.002 C 
ATOM     16  C   UNL d   1      46.030 -13.485  44.893  0.00  0.00     0.002 C 
ENDBRANCH   4  14
TORSDOF 3
ENDMDL
MODEL 2
REMARK VINA RESULT:      12.0      1.084      4.040
REMARK  3 active torsions:
REMARK  status: ('A' for Active; 'I' for Inactive)
REMARK    1  A    between atoms: N_5  and  C_2 
REMARK    2  A    between atoms: C_14  and  C_4 
REMARK       I    between atoms: C_7  and  N_5 
REMARK    3  A    between atoms: C_8  and  C_7 
ROOT
ATOM      1  S   UNL d   1      46.273 -17.917  43.212  0.00  0.00    -0.026 SA
ATOM      2  C   UNL d   1      46.253 -17.424  43.876  0.00  0.00     0.219 A 
ATOM      3  N   UNL d   1      46.362 -18.709  44.252  0.00  0.00    -0.139 NA
ATOM      4  C   UNL d   1      46.340 -18.696  43.450  0.00  0.00     0.135 A 
ATOM      5  N   UNL d   1      46.308 -17.921  44.528  0.00  0.00    -0.121 NA
ENDROOT
BRANCH   2   6
ATOM      6  N   UNL d   1      46.191 -16.601  43.971  0.00  0.00    -0.181 NA
ATOM      7  C   UNL d   1      45.651 -16.306  44.501  0.00  0.00     0.287 C 
ATOM      8  O   UNL d   1      45.156 -16.795  44.952  0.00  0.00    -0.265 OA
BRANCH   7   9
ATOM      9  C   UNL d   1      45.594 -15.509  44.590  0.00  0.00     0.087 A 
ATOM     10  S   UNL d   1      44.951 -15.126  44.905  0.00  0.00    -0.082 SA
ATOM     11  C   UNL d   1      45.119 -14.304  44.897  0.00  0.00     0.036 A 
ATOM     12  C   UNL d   1      45.846 -14.208  44.584  0.00  0.00     0.008 A 
ATOM     13  C   UNL d   1      46.160 -14.924  44.387  0.00  0.00     0.012 A 
ENDBRANCH   7   9
ENDBRANCH   2   6
BRANCH   4  14
ATOM     14  C   UNL d   1      46.378 -19.361  42.927  0.00  0.00     0.026 C 
ATOM     15  C   UNL d   1      46.296 -20.139  43.192  0.00  0.00     0.002 C 
ATOM     16  C   UNL d   1      46.503 -19.224  42.112  0.00  0.00     0.002 C 
ENDBRANCH   4  14
TORSDOF 3
ENDMDL
MODEL 3
REMARK VINA RESULT:      14.5      1.050      4.070
REMARK  3 active torsions:
REMARK  status: ('A' for Active; 'I' for Inactive)
REMARK    1  A    between atoms: N_5  and  C_2 
REMARK    2  A    between atoms: C_14  and  C_4 
REMARK       I    between atoms: C_7  and  N_5 
REMARK    3  A    between atoms: C_8  and  C_7 
ROOT
ATOM      1  S   UNL d   1      46.219 -16.641  43.691  0.00  0.00    -0.026 SA
ATOM      2  C   UNL d   1      46.097 -16.062  44.268  0.00  0.00     0.219 A 
ATOM      3  N   UNL d   1      45.896 -17.285  44.786  0.00  0.00    -0.139 NA
ATOM      4  C   UNL d   1      46.094 -17.382  44.015  0.00  0.00     0.135 A 
ATOM      5  N   UNL d   1      45.895 -16.466  44.955  0.00  0.00    -0.121 NA
ENDROOT
BRANCH   2   6
ATOM      6  N   UNL d   1      46.144 -15.232  44.259  0.00  0.00    -0.181 NA
ATOM      7  C   UNL d   1      45.474 -14.800  44.415  0.00  0.00     0.287 C 
ATOM      8  O   UNL d   1      44.744 -15.154  44.584  0.00  0.00    -0.265 OA
BRANCH   7   9
ATOM      9  C   UNL d   1      45.523 -13.998  44.406  0.00  0.00     0.087 A 
ATOM     10  S   UNL d   1      45.190 -13.523  43.837  0.00  0.00    -0.082 SA
ATOM     11  C   UNL d   1      45.371 -12.728  44.034  0.00  0.00     0.036 A 
ATOM     12  C   UNL d   1      45.802 -12.737  44.705  0.00  0.00     0.008 A 
ATOM     13  C   UNL d   1      45.910 -13.496  44.955  0.00  0.00     0.012 A 
ENDBRANCH   7   9
ENDBRANCH   2   6
BRANCH   4  14
ATOM     14  C   UNL d   1      46.166 -18.113  43.594  0.00  0.00     0.026 C 
ATOM     15  C   UNL d   1      46.197 -18.845  43.976  0.00  0.00     0.002 C 
ATOM     16  C   UNL d   1      46.208 -18.093  42.758  0.00  0.00     0.002 C 
ENDBRANCH   4  14
TORSDOF 3
ENDMDL
