MODEL 1
REMARK VINA RESULT:      -9.3      0.000      0.000
REMARK  4 active torsions:
REMARK  status: ('A' for Active; 'I' for Inactive)
REMARK    1  A    between atoms: C_6  and  C_1 
REMARK       I    between atoms: N_7  and  C_1 
REMARK    2  A    between atoms: N_3  and  C_5 
REMARK    3  A    between atoms: C_19  and  N_7 
REMARK    4  A    between atoms: C_8  and  C_10 
ROOT
ATOM      1  C   UNL d   1      50.967  34.077  52.774  0.00  0.00     0.019 A 
ATOM      2  C   UNL d   1      52.426  33.325  52.937  0.00  0.00     0.085 A 
ATOM      3  C   UNL d   1      51.617  34.342  52.354  0.00  0.00     0.003 A 
ATOM      4  C   UNL d   1      51.043  33.430  53.281  0.00  0.00     0.003 A 
ATOM      5  C   UNL d   1      52.347  33.966  52.436  0.00  0.00     0.019 A 
ATOM      6  C   UNL d   1      51.773  33.054  53.363  0.00  0.00     0.019 A 
ENDROOT
BRANCH   1   7
ATOM      7  C   UNL d   1      50.237  34.454  52.692  0.00  0.00     0.103 A 
ATOM      8  N   UNL d   1      49.940  34.914  53.305  0.00  0.00    -0.147 NA
ATOM      9  N   UNL d   1      49.211  35.290  53.223  0.00  0.00    -0.130 NA
ATOM     10  C   UNL d   1      48.778  35.207  52.529  0.00  0.00     0.169 A 
ATOM     11  C   UNL d   1      49.076  34.744  51.913  0.00  0.00     0.041 A 
ATOM     12  C   UNL d   1      49.805  34.368  51.994  0.00  0.00     0.024 A 
BRANCH  10  13
ATOM     13  N   UNL d   1      48.048  35.583  52.447  0.00  0.00    -0.288 N 
ATOM     14  C   UNL d   1      47.663  35.581  51.721  0.00  0.00     0.082 A 
ATOM     15  C   UNL d   1      46.933  35.957  51.640  0.00  0.00     0.019 A 
ATOM     16  C   UNL d   1      46.589  36.336  52.284  0.00  0.00     0.003 A 
ATOM     17  C   UNL d   1      46.976  36.338  53.013  0.00  0.00     0.019 A 
ATOM     18  C   UNL d   1      45.859  36.709  52.193  0.00  0.00     0.000 C 
ATOM     19  C   UNL d   1      47.705  35.962  53.095  0.00  0.00     0.082 A 
ENDBRANCH  10  13
ENDBRANCH   1   7
BRANCH   2  20
ATOM     20  N   UNL d   1      53.156  32.948  53.019  0.00  0.00    -0.206 NA
ATOM     21  C   UNL d   1      53.703  33.223  53.568  0.00  0.00     0.302 C 
ATOM     22  O   UNL d   1      54.436  32.845  53.650  0.00  0.00    -0.263 OA
BRANCH  21  23
ATOM     23  C   UNL d   1      53.521  33.877  54.038  0.00  0.00     0.158 A 
ATOM     24  O   UNL d   1      53.296  33.769  54.825  0.00  0.00    -0.300 OA
ATOM     25  C   UNL d   1      53.149  34.517  55.155  0.00  0.00     0.123 A 
ATOM     26  C   UNL d   1      53.283  35.081  54.568  0.00  0.00     0.029 A 
ATOM     27  C   UNL d   1      53.511  34.684  53.886  0.00  0.00     0.032 A 
ENDBRANCH  21  23
ENDBRANCH   2  20
TORSDOF 4
ENDMDL
MODEL 2
REMARK VINA RESULT:      -8.8      1.275      2.153
REMARK  4 active torsions:
REMARK  status: ('A' for Active; 'I' for Inactive)
REMARK    1  A    between atoms: C_6  and  C_1 
REMARK       I    between atoms: N_7  and  C_1 
REMARK    2  A    between atoms: N_3  and  C_5 
REMARK    3  A    between atoms: C_19  and  N_7 
REMARK    4  A    between atoms: C_8  and  C_10 
ROOT
ATOM      1  C   UNL d   1      52.182  34.522  53.626  0.00  0.00     0.019 A 
ATOM      2  C   UNL d   1      53.592  34.390  54.472  0.00  0.00     0.085 A 
ATOM      3  C   UNL d   1      52.193  34.154  54.356  0.00  0.00     0.003 A 
ATOM      4  C   UNL d   1      52.882  34.829  53.313  0.00  0.00     0.003 A 
ATOM      5  C   UNL d   1      52.898  34.088  54.779  0.00  0.00     0.019 A 
ATOM      6  C   UNL d   1      53.587  34.763  53.736  0.00  0.00     0.019 A 
ENDROOT
BRANCH   1   7
ATOM      7  C   UNL d   1      51.477  34.588  53.203  0.00  0.00     0.103 A 
ATOM      8  N   UNL d   1      50.852  35.026  53.509  0.00  0.00    -0.147 NA
ATOM      9  N   UNL d   1      50.147  35.092  53.086  0.00  0.00    -0.130 NA
ATOM     10  C   UNL d   1      50.066  34.720  52.357  0.00  0.00     0.169 A 
ATOM     11  C   UNL d   1      50.693  34.280  52.049  0.00  0.00     0.041 A 
ATOM     12  C   UNL d   1      51.399  34.214  52.472  0.00  0.00     0.024 A 
BRANCH  10  13
ATOM     13  N   UNL d   1      49.361  34.786  51.934  0.00  0.00    -0.288 N 
ATOM     14  C   UNL d   1      48.719  35.180  52.262  0.00  0.00     0.082 A 
ATOM     15  C   UNL d   1      48.014  35.246  51.839  0.00  0.00     0.019 A 
ATOM     16  C   UNL d   1      47.951  34.917  51.088  0.00  0.00     0.003 A 
ATOM     17  C   UNL d   1      48.595  34.521  50.757  0.00  0.00     0.019 A 
ATOM     18  C   UNL d   1      47.242  34.988  50.672  0.00  0.00     0.000 C 
ATOM     19  C   UNL d   1      49.300  34.455  51.180  0.00  0.00     0.082 A 
ENDBRANCH  10  13
ENDBRANCH   1   7
BRANCH   2  20
ATOM     20  N   UNL d   1      54.298  34.324  54.895  0.00  0.00    -0.206 NA
ATOM     21  C   UNL d   1      54.735  33.628  54.864  0.00  0.00     0.302 C 
ATOM     22  O   UNL d   1      55.443  33.562  55.289  0.00  0.00    -0.263 OA
BRANCH  21  23
ATOM     23  C   UNL d   1      54.466  32.995  54.407  0.00  0.00     0.158 A 
ATOM     24  O   UNL d   1      54.790  32.858  53.660  0.00  0.00    -0.300 OA
ATOM     25  C   UNL d   1      54.415  32.192  53.335  0.00  0.00     0.123 A 
ATOM     26  C   UNL d   1      53.863  31.922  53.886  0.00  0.00     0.029 A 
ATOM     27  C   UNL d   1      53.898  32.417  54.540  0.00  0.00     0.032 A 
ENDBRANCH  21  23
ENDBRANCH   2  20
TORSDOF 4
ENDMDL
MODEL 3
REMARK VINA RESULT:      -7.3      2.666      6.065
REMARK  4 active torsions:
REMARK  status: ('A' for Active; 'I' for Inactive)
REMARK    1  A    between atoms: C_6  and  C_1 
REMARK       I    between atoms: N_7  and  C_1 
REMARK    2  A    between atoms: N_3  and  C_5 
REMARK    3  A    between atoms: C_19  and  N_7 
REMARK    4  A    between atoms: C_8  and  C_10 
ROOT
ATOM      1  C   UNL d   1      48.064  35.454  52.142  0.00  0.00     0.019 A 
ATOM      2  C   UNL d   1      46.599  36.090  51.731  0.00  0.00     0.085 A 
ATOM      3  C   UNL d   1      47.874  36.221  52.351  0.00  0.00     0.003 A 
ATOM      4  C   UNL d   1      47.518  34.997  51.723  0.00  0.00     0.003 A 
ATOM      5  C   UNL d   1      47.141  36.540  52.146  0.00  0.00     0.019 A 
ATOM      6  C   UNL d   1      46.786  35.315  51.518  0.00  0.00     0.019 A 
ENDROOT
BRANCH   1   7
ATOM      7  C   UNL d   1      48.797  35.135  52.347  0.00  0.00     0.103 A 
ATOM      8  N   UNL d   1      49.094  35.240  53.107  0.00  0.00    -0.147 NA
ATOM      9  N   UNL d   1      49.826  34.922  53.312  0.00  0.00    -0.130 NA
ATOM     10  C   UNL d   1      50.263  34.499  52.758  0.00  0.00     0.169 A 
ATOM     11  C   UNL d   1      49.966  34.393  51.995  0.00  0.00     0.041 A 
ATOM     12  C   UNL d   1      49.233  34.711  51.790  0.00  0.00     0.024 A 
BRANCH  10  13
ATOM     13  N   UNL d   1      50.996  34.180  52.964  0.00  0.00    -0.288 N 
ATOM     14  C   UNL d   1      51.664  34.659  52.976  0.00  0.00     0.082 A 
ATOM     15  C   UNL d   1      52.397  34.340  53.181  0.00  0.00     0.019 A 
ATOM     16  C   UNL d   1      52.461  33.544  53.375  0.00  0.00     0.003 A 
ATOM     17  C   UNL d   1      51.791  33.062  53.363  0.00  0.00     0.019 A 
ATOM     18  C   UNL d   1      53.198  33.234  53.579  0.00  0.00     0.000 C 
ATOM     19  C   UNL d   1      51.058  33.381  53.157  0.00  0.00     0.082 A 
ENDBRANCH  10  13
ENDBRANCH   1   7
BRANCH   2  20
ATOM     20  N   UNL d   1      45.866  36.409  51.526  0.00  0.00    -0.206 NA
ATOM     21  C   UNL d   1      45.242  36.389  52.061  0.00  0.00     0.302 C 
ATOM     22  O   UNL d   1      44.506  36.709  51.855  0.00  0.00    -0.263 OA
BRANCH  21  23
ATOM     23  C   UNL d   1      45.351  36.050  52.806  0.00  0.00     0.158 A 
ATOM     24  O   UNL d   1      45.079  35.285  52.955  0.00  0.00    -0.300 OA
ATOM     25  C   UNL d   1      45.264  35.094  53.742  0.00  0.00     0.123 A 
ATOM     26  C   UNL d   1      45.650  35.744  54.073  0.00  0.00     0.029 A 
ATOM     27  C   UNL d   1      45.700  36.327  53.497  0.00  0.00     0.032 A 
ENDBRANCH  21  23
ENDBRANCH   2  20
TORSDOF 4
ENDMDL
MODEL 4
REMARK VINA RESULT:      -7.1      2.212      5.626
REMARK  4 active torsions:
REMARK  status: ('A' for Active; 'I' for Inactive)
REMARK    1  A    between atoms: C_6  and  C_1 
REMARK       I    between atoms: N_7  and  C_1 
REMARK    2  A    between atoms: N_3  and  C_5 
REMARK    3  A    between atoms: C_19  and  N_7 
REMARK    4  A    between atoms: C_8  and  C_10 
ROOT
ATOM      1  C   UNL d   1      49.975  34.299  52.199  0.00  0.00     0.019 A 
ATOM      2  C   UNL d   1      48.567  34.563  51.379  0.00  0.00     0.085 A 
ATOM      3  C   UNL d   1      49.266  34.013  52.491  0.00  0.00     0.003 A 
ATOM      4  C   UNL d   1      49.982  34.722  51.490  0.00  0.00     0.003 A 
ATOM      5  C   UNL d   1      48.563  34.145  52.082  0.00  0.00     0.019 A 
ATOM      6  C   UNL d   1      49.279  34.854  51.080  0.00  0.00     0.019 A 
ENDROOT
BRANCH   1   7
ATOM      7  C   UNL d   1      50.678  34.168  52.608  0.00  0.00     0.103 A 
ATOM      8  N   UNL d   1      50.682  33.693  53.279  0.00  0.00    -0.147 NA
ATOM      9  N   UNL d   1      51.386  33.561  53.689  0.00  0.00    -0.130 NA
ATOM     10  C   UNL d   1      52.086  33.904  53.428  0.00  0.00     0.169 A 
ATOM     11  C   UNL d   1      52.084  34.381  52.754  0.00  0.00     0.041 A 
ATOM     12  C   UNL d   1      51.380  34.513  52.344  0.00  0.00     0.024 A 
BRANCH  10  13
ATOM     13  N   UNL d   1      52.790  33.772  53.838  0.00  0.00    -0.288 N 
ATOM     14  C   UNL d   1      53.030  34.296  54.423  0.00  0.00     0.082 A 
ATOM     15  C   UNL d   1      53.734  34.164  54.833  0.00  0.00     0.019 A 
ATOM     16  C   UNL d   1      54.198  33.508  54.657  0.00  0.00     0.003 A 
ATOM     17  C   UNL d   1      53.957  32.981  54.069  0.00  0.00     0.019 A 
ATOM     18  C   UNL d   1      54.900  33.384  55.071  0.00  0.00     0.000 C 
ATOM     19  C   UNL d   1      53.253  33.113  53.659  0.00  0.00     0.082 A 
ENDBRANCH  10  13
ENDBRANCH   1   7
BRANCH   2  20
ATOM     20  N   UNL d   1      47.863  34.695  50.970  0.00  0.00    -0.206 NA
ATOM     21  C   UNL d   1      47.344  35.282  51.219  0.00  0.00     0.302 C 
ATOM     22  O   UNL d   1      46.637  35.415  50.807  0.00  0.00    -0.263 OA
BRANCH  21  23
ATOM     23  C   UNL d   1      47.529  35.740  51.880  0.00  0.00     0.158 A 
ATOM     24  O   UNL d   1      47.186  35.567  52.611  0.00  0.00    -0.300 OA
ATOM     25  C   UNL d   1      47.472  36.114  53.166  0.00  0.00     0.123 A 
ATOM     26  C   UNL d   1      47.990  36.622  52.773  0.00  0.00     0.029 A 
ATOM     27  C   UNL d   1      48.022  36.389  51.986  0.00  0.00     0.032 A 
ENDBRANCH  21  23
ENDBRANCH   2  20
TORSDOF 4
ENDMDL
