MODEL 1
REMARK VINA RESULT:      -3.6      0.000      0.000
REMARK  4 active torsions:
REMARK  status: ('A' for Active; 'I' for Inactive)
REMARK    1  A    between atoms: C_6  and  S_1 
REMARK    2  A    between atoms: N_8  and  S_1 
REMARK    3  A    between atoms: C_17  and  N_8 
REMARK    4  A    between atoms: N_16  and  C_15 
ROOT
ATOM      1  N   UNL d   1      33.229  21.742 -21.280  0.00  0.00    -0.273 N 
ATOM      2  C   UNL d   1      33.225  21.495 -20.476  0.00  0.00     0.265 A 
ATOM      3  C   UNL d   1      33.231  21.064 -21.750  0.00  0.00     0.067 A 
ATOM      4  C   UNL d   1      33.228  20.326 -21.398  0.00  0.00     0.022 A 
ATOM      5  C   UNL d   1      33.233  19.716 -22.690  0.00  0.00     0.105 A 
ATOM      6  C   UNL d   1      33.235  21.132 -22.572  0.00  0.00     0.017 A 
ATOM      7  C   UNL d   1      33.224  20.427 -20.565  0.00  0.00     0.063 A 
ATOM      8  C   UNL d   1      33.229  19.647 -21.868  0.00  0.00     0.015 A 
ATOM      9  C   UNL d   1      33.236  20.463 -23.042  0.00  0.00     0.014 A 
ATOM     10  O   UNL d   1      33.223  22.062 -19.873  0.00  0.00    -0.267 OA
ATOM     11  C   UNL d   1      33.232  22.489 -21.631  0.00  0.00     0.083 A 
ATOM     12  C   UNL d   1      33.237  21.878 -22.910  0.00  0.00     0.003 A 
ATOM     13  C   UNL d   1      33.236  22.557 -22.453  0.00  0.00     0.019 A 
ENDROOT
BRANCH   5  14
ATOM     14  S   UNL d   1      33.234  19.029 -23.161  0.00  0.00     0.285 S 
ATOM     15  O   UNL d   1      33.241  19.508 -23.834  0.00  0.00    -0.198 OA
ATOM     16  O   UNL d   1      33.228  18.558 -22.474  0.00  0.00    -0.198 OA
BRANCH  14  17
ATOM     17  N   UNL d   1      33.236  18.350 -23.627  0.00  0.00    -0.158 NA
BRANCH  17  18
ATOM     18  C   UNL d   1      32.520  18.022 -23.875  0.00  0.00     0.094 A 
ATOM     19  C   UNL d   1      32.160  17.435 -23.429  0.00  0.00     0.021 A 
ATOM     20  C   UNL d   1      31.444  17.107 -23.676  0.00  0.00     0.019 A 
ATOM     21  C   UNL d   1      31.089  17.367 -24.369  0.00  0.00     0.064 A 
ATOM     22  C   UNL d   1      31.450  17.958 -24.819  0.00  0.00     0.019 A 
ATOM     23  C   UNL d   1      32.165  18.286 -24.572  0.00  0.00     0.021 A 
BRANCH  21  24
ATOM     24  N   UNL d   1      30.373  17.040 -24.616  0.00  0.00    -0.301 N 
ATOM     25  C   UNL d   1      29.702  17.516 -24.680  0.00  0.00     0.100 C 
ATOM     26  C   UNL d   1      30.329  16.237 -24.800  0.00  0.00     0.100 C 
ENDBRANCH  21  24
ENDBRANCH  17  18
ENDBRANCH  14  17
ENDBRANCH   5  14
TORSDOF 4
ENDMDL
MODEL 2
REMARK VINA RESULT:      -1.4      1.730      2.749
REMARK  4 active torsions:
REMARK  status: ('A' for Active; 'I' for Inactive)
REMARK    1  A    between atoms: C_6  and  S_1 
REMARK    2  A    between atoms: N_8  and  S_1 
REMARK    3  A    between atoms: C_17  and  N_8 
REMARK    4  A    between atoms: N_16  and  C_15 
ROOT
ATOM      1  N   UNL d   1      33.015  20.425 -23.696  0.00  0.00    -0.273 N 
ATOM      2  C   UNL d   1      33.031  20.766 -24.464  0.00  0.00     0.265 A 
ATOM      3  C   UNL d   1      32.789  19.635 -23.778  0.00  0.00     0.067 A 
ATOM      4  C   UNL d   1      32.630  19.333 -24.521  0.00  0.00     0.022 A 
ATOM      5  C   UNL d   1      32.340  18.063 -23.937  0.00  0.00     0.105 A 
ATOM      6  C   UNL d   1      32.724  19.154 -23.112  0.00  0.00     0.017 A 
ATOM      7  C   UNL d   1      32.741  19.943 -25.086  0.00  0.00     0.063 A 
ATOM      8  C   UNL d   1      32.405  18.544 -24.603  0.00  0.00     0.015 A 
ATOM      9  C   UNL d   1      32.501  18.371 -23.188  0.00  0.00     0.014 A 
ATOM     10  O   UNL d   1      33.241  21.562 -24.555  0.00  0.00    -0.267 OA
ATOM     11  C   UNL d   1      33.176  20.733 -22.948  0.00  0.00     0.083 A 
ATOM     12  C   UNL d   1      32.887  19.470 -22.374  0.00  0.00     0.003 A 
ATOM     13  C   UNL d   1      33.112  20.252 -22.281  0.00  0.00     0.019 A 
ENDROOT
BRANCH   5  14
ATOM     14  S   UNL d   1      32.111  17.266 -24.023  0.00  0.00     0.285 S 
ATOM     15  O   UNL d   1      31.437  17.518 -24.428  0.00  0.00    -0.198 OA
ATOM     16  O   UNL d   1      32.796  17.026 -23.613  0.00  0.00    -0.198 OA
BRANCH  14  17
ATOM     17  N   UNL d   1      31.886  16.479 -24.109  0.00  0.00    -0.158 NA
BRANCH  17  18
ATOM     18  C   UNL d   1      31.092  16.270 -24.027  0.00  0.00     0.094 A 
ATOM     19  C   UNL d   1      30.781  16.116 -23.283  0.00  0.00     0.021 A 
ATOM     20  C   UNL d   1      29.987  15.907 -23.201  0.00  0.00     0.019 A 
ATOM     21  C   UNL d   1      29.504  15.852 -23.863  0.00  0.00     0.064 A 
ATOM     22  C   UNL d   1      29.816  16.006 -24.612  0.00  0.00     0.019 A 
ATOM     23  C   UNL d   1      30.610  16.215 -24.694  0.00  0.00     0.021 A 
BRANCH  21  24
ATOM     24  N   UNL d   1      28.710  15.643 -23.782  0.00  0.00    -0.301 N 
ATOM     25  C   UNL d   1      28.219  15.624 -24.444  0.00  0.00     0.100 C 
ATOM     26  C   UNL d   1      28.409  15.453 -23.037  0.00  0.00     0.100 C 
ENDBRANCH  21  24
ENDBRANCH  17  18
ENDBRANCH  14  17
ENDBRANCH   5  14
TORSDOF 4
ENDMDL
