MODEL 1
REMARK VINA RESULT:      47.6      0.000      0.000
REMARK  6 active torsions:
REMARK  status: ('A' for Active; 'I' for Inactive)
REMARK    1  A    between atoms: C_18  and  N_5 
REMARK    2  A    between atoms: S_11  and  C_6 
REMARK    3  A    between atoms: C_10  and  C_12 
REMARK    4  A    between atoms: C_15  and  S_11 
REMARK    5  A    between atoms: C_12  and  C_15 
REMARK    6  A    between atoms: C_21  and  C_18 
ROOT
ATOM      1  C   UNL d   1     -58.490 -98.774 -45.845  0.00  0.00     0.081 A 
ATOM      2  C   UNL d   1     -57.764 -98.764 -46.217  0.00  0.00     0.117 A 
ATOM      3  N   UNL d   1     -57.071 -98.762 -45.772  0.00  0.00    -0.215 NA
ATOM      4  C   UNL d   1     -58.503 -98.782 -44.988  0.00  0.00     0.268 A 
ATOM      5  N   UNL d   1     -57.805 -98.779 -44.577  0.00  0.00    -0.253 N 
ATOM      6  C   UNL d   1     -57.128 -98.769 -44.948  0.00  0.00     0.182 A 
ATOM      7  S   UNL d   1     -57.925 -98.758 -47.014  0.00  0.00    -0.068 SA
ATOM      8  C   UNL d   1     -59.054 -98.775 -46.394  0.00  0.00     0.013 A 
ATOM      9  C   UNL d   1     -58.686 -98.764 -47.154  0.00  0.00     0.031 A 
ATOM     10  O   UNL d   1     -59.262 -98.793 -44.581  0.00  0.00    -0.267 OA
ATOM     11  C   UNL d   1     -59.879 -98.784 -46.214  0.00  0.00     0.001 C 
ATOM     12  C   UNL d   1     -59.074 -98.761 -47.904  0.00  0.00     0.007 C 
ENDROOT
BRANCH   6  13
ATOM     13  S   UNL d   1     -56.415 -98.767 -44.512  0.00  0.00    -0.046 SA
BRANCH  13  14
ATOM     14  C   UNL d   1     -56.078 -99.491 -44.245  0.00  0.00     0.081 C 
BRANCH  14  15
ATOM     15  C   UNL d   1     -55.381 -99.778 -44.560  0.00  0.00     0.208 C 
ATOM     16  O   UNL d   1     -54.852 -99.272 -44.958  0.00  0.00    -0.285 OA
BRANCH  15  17
ATOM     17  C   UNL d   1     -55.186-100.537 -44.499  0.00  0.00     0.069 A 
ATOM     18  S   UNL d   1     -54.883-100.873 -43.781  0.00  0.00    -0.083 SA
ATOM     19  C   UNL d   1     -54.739-101.674 -43.917  0.00  0.00     0.035 A 
ATOM     20  C   UNL d   1     -54.936-101.866 -44.687  0.00  0.00     0.008 A 
ATOM     21  C   UNL d   1     -55.201-101.211 -45.048  0.00  0.00     0.010 A 
ENDBRANCH  15  17
ENDBRANCH  14  15
ENDBRANCH  13  14
ENDBRANCH   6  13
BRANCH   5  22
ATOM     22  C   UNL d   1     -57.795 -98.786 -43.764  0.00  0.00     0.085 C 
BRANCH  22  23
ATOM     23  C   UNL d   1     -58.409 -99.128 -43.332  0.00  0.00     0.019 C 
ATOM     24  C   UNL d   1     -58.671 -98.812 -42.612  0.00  0.00     0.002 C 
ENDBRANCH  22  23
ENDBRANCH   5  22
TORSDOF 6
ENDMDL
