MODEL 1
REMARK VINA RESULT:       0.6      0.000      0.000
REMARK  3 active torsions:
REMARK  status: ('A' for Active; 'I' for Inactive)
REMARK    1  A    between atoms: C_13  and  N_3 
REMARK    2  A    between atoms: C_10  and  C_6 
REMARK    3  A    between atoms: C_11  and  C_8 
ROOT
ATOM      1  C   UNL d   1     -41.735-122.483 -51.025  0.00  0.00     0.167 A 
ATOM      2  C   UNL d   1     -41.809-122.637 -51.837  0.00  0.00     0.056 A 
ATOM      3  N   UNL d   1     -41.924-123.176 -50.608  0.00  0.00    -0.212 N 
ATOM      4  N   UNL d   1     -42.118-123.768 -51.168  0.00  0.00    -0.164 NA
ATOM      5  N   UNL d   1     -41.505-121.734 -50.771  0.00  0.00    -0.206 NA
ATOM      6  C   UNL d   1     -41.654-122.043 -52.384  0.00  0.00     0.015 A 
ATOM      7  C   UNL d   1     -42.047-123.434 -51.928  0.00  0.00     0.104 A 
ATOM      8  C   UNL d   1     -41.426-121.297 -52.134  0.00  0.00     0.059 A 
ATOM      9  C   UNL d   1     -41.352-121.144 -51.326  0.00  0.00     0.187 A 
ATOM     10  N   UNL d   1     -41.123-120.397 -51.072  0.00  0.00    -0.127 N 
ATOM     11  C   UNL d   1     -42.186-123.817 -52.639  0.00  0.00     0.023 C 
ENDROOT
BRANCH   3  12
ATOM     12  C   UNL d   1     -41.921-123.266 -49.787  0.00  0.00     0.085 A 
ATOM     13  C   UNL d   1     -42.619-123.179 -49.360  0.00  0.00     0.019 A 
ATOM     14  C   UNL d   1     -42.613-123.268 -48.547  0.00  0.00     0.002 A 
ATOM     15  C   UNL d   1     -41.912-123.444 -48.149  0.00  0.00     0.000 A 
ATOM     16  C   UNL d   1     -41.206-123.533 -48.577  0.00  0.00     0.002 A 
ATOM     17  C   UNL d   1     -41.909-123.534 -47.327  0.00  0.00     0.000 C 
ATOM     18  C   UNL d   1     -41.214-123.442 -49.395  0.00  0.00     0.019 A 
ENDBRANCH   3  12
BRANCH   6  19
ATOM     19  C   UNL d   1     -41.731-122.203 -53.190  0.00  0.00     0.030 A 
ATOM     20  S   UNL d   1     -42.371-122.008 -53.671  0.00  0.00    -0.086 SA
ATOM     21  C   UNL d   1     -42.212-122.273 -54.436  0.00  0.00     0.035 A 
ATOM     22  C   UNL d   1     -41.470-122.634 -54.426  0.00  0.00     0.007 A 
ATOM     23  C   UNL d   1     -41.169-122.595 -53.667  0.00  0.00     0.007 A 
ENDBRANCH   6  19
BRANCH   8  24
ATOM     24  C   UNL d   1     -41.271-120.702 -52.682  0.00  0.00     0.125 C 
ATOM     25  N   UNL d   1     -41.139-119.932 -52.425  0.00  0.00    -0.146 N 
ENDBRANCH   8  24
TORSDOF 3
ENDMDL
MODEL 2
REMARK VINA RESULT:       2.1      1.254      4.161
REMARK  3 active torsions:
REMARK  status: ('A' for Active; 'I' for Inactive)
REMARK    1  A    between atoms: C_13  and  N_3 
REMARK    2  A    between atoms: C_10  and  C_6 
REMARK    3  A    between atoms: C_11  and  C_8 
ROOT
ATOM      1  C   UNL d   1     -41.805-122.008 -52.612  0.00  0.00     0.167 A 
ATOM      2  C   UNL d   1     -41.894-122.441 -51.909  0.00  0.00     0.056 A 
ATOM      3  N   UNL d   1     -42.012-122.497 -53.250  0.00  0.00    -0.212 N 
ATOM      4  N   UNL d   1     -42.233-123.244 -52.941  0.00  0.00    -0.164 NA
ATOM      5  N   UNL d   1     -41.547-121.226 -52.579  0.00  0.00    -0.206 NA
ATOM      6  C   UNL d   1     -41.727-122.090 -51.185  0.00  0.00     0.015 A 
ATOM      7  C   UNL d   1     -42.160-123.208 -52.112  0.00  0.00     0.104 A 
ATOM      8  C   UNL d   1     -41.470-121.312 -51.150  0.00  0.00     0.059 A 
ATOM      9  C   UNL d   1     -41.381-120.882 -51.848  0.00  0.00     0.187 A 
ATOM     10  N   UNL d   1     -41.124-120.102 -51.816  0.00  0.00    -0.127 N 
ATOM     11  C   UNL d   1     -42.320-123.817 -51.587  0.00  0.00     0.023 C 
ENDROOT
BRANCH   3  12
ATOM     12  C   UNL d   1     -42.001-122.285 -54.049  0.00  0.00     0.085 A 
ATOM     13  C   UNL d   1     -42.664-121.940 -54.392  0.00  0.00     0.019 A 
ATOM     14  C   UNL d   1     -42.651-121.731 -55.183  0.00  0.00     0.002 A 
ATOM     15  C   UNL d   1     -41.978-121.862 -55.641  0.00  0.00     0.000 A 
ATOM     16  C   UNL d   1     -41.307-122.210 -55.297  0.00  0.00     0.002 A 
ATOM     17  C   UNL d   1     -41.968-121.649 -56.440  0.00  0.00     0.000 C 
ATOM     18  C   UNL d   1     -41.322-122.419 -54.501  0.00  0.00     0.019 A 
ENDBRANCH   3  12
BRANCH   6  19
ATOM     19  C   UNL d   1     -41.818-122.527 -50.491  0.00  0.00     0.030 A 
ATOM     20  S   UNL d   1     -41.293-123.087 -50.191  0.00  0.00    -0.086 SA
ATOM     21  C   UNL d   1     -41.605-123.386 -49.487  0.00  0.00     0.035 A 
ATOM     22  C   UNL d   1     -42.326-123.007 -49.354  0.00  0.00     0.007 A 
ATOM     23  C   UNL d   1     -42.463-122.480 -49.964  0.00  0.00     0.007 A 
ENDBRANCH   6  19
BRANCH   8  24
ATOM     24  C   UNL d   1     -41.302-120.961 -50.423  0.00  0.00     0.125 C 
ATOM     25  N   UNL d   1     -41.171-120.150 -50.382  0.00  0.00    -0.146 N 
ENDBRANCH   8  24
TORSDOF 3
ENDMDL
