MODEL 1
REMARK VINA RESULT:      88.4      0.000      0.000
REMARK  6 active torsions:
REMARK  status: ('A' for Active; 'I' for Inactive)
REMARK    1  A    between atoms: C_2  and  S_1 
REMARK    2  A    between atoms: C_13  and  S_1 
REMARK    3  A    between atoms: C_5  and  C_3 
REMARK    4  A    between atoms: C_16  and  C_5 
REMARK    5  A    between atoms: O_30  and  C_24 
REMARK    6  A    between atoms: C_33  and  O_30 
ROOT
ATOM      1  C   UNL d   1      14.300  15.516  -4.448  0.00  0.00     0.094 A 
ATOM      2  C   UNL d   1      14.451  16.026  -5.077  0.00  0.00     0.069 A 
ATOM      3  C   UNL d   1      13.957  14.782  -4.588  0.00  0.00     0.031 A 
ATOM      4  C   UNL d   1      13.763  14.556  -5.359  0.00  0.00     0.084 A 
ATOM      5  C   UNL d   1      13.806  14.272  -3.960  0.00  0.00     0.029 A 
ATOM      6  N   UNL d   1      13.913  15.065  -5.988  0.00  0.00    -0.244 NA
ATOM      7  C   UNL d   1      14.257  15.800  -5.848  0.00  0.00     0.103 A 
ATOM      8  C   UNL d   1      13.419  13.821  -5.499  0.00  0.00     0.046 A 
ATOM      9  C   UNL d   1      13.463  13.538  -4.100  0.00  0.00     0.123 A 
ATOM     10  C   UNL d   1      13.269  13.312  -4.870  0.00  0.00     0.124 A 
ATOM     11  O   UNL d   1      13.312  13.028  -3.471  0.00  0.00    -0.301 OA
ATOM     12  O   UNL d   1      12.925  12.577  -5.010  0.00  0.00    -0.301 OA
ATOM     13  C   UNL d   1      12.964  12.282  -3.607  0.00  0.00     0.149 A 
ATOM     14  C   UNL d   1      12.770  12.057  -4.377  0.00  0.00     0.149 A 
ENDROOT
BRANCH   1  15
ATOM     15  S   UNL d   1      14.493  15.738  -3.677  0.00  0.00     0.210 S 
ATOM     16  O   UNL d   1      13.697  15.885  -3.517  0.00  0.00    -0.217 OA
ATOM     17  O   UNL d   1      15.288  15.591  -3.838  0.00  0.00    -0.217 OA
BRANCH  15  18
ATOM     18  C   UNL d   1      14.692  15.958  -2.908  0.00  0.00     0.088 A 
ATOM     19  C   UNL d   1      15.095  16.662  -2.773  0.00  0.00     0.013 A 
ATOM     20  C   UNL d   1      15.294  16.880  -1.997  0.00  0.00     0.025 A 
ATOM     21  C   UNL d   1      15.089  16.393  -1.366  0.00  0.00     0.100 A 
ATOM     22  C   UNL d   1      14.688  15.691  -1.498  0.00  0.00     0.025 A 
ATOM     23  C   UNL d   1      14.488  15.472  -2.277  0.00  0.00     0.013 A 
BRANCH  21  24
ATOM     24  O   UNL d   1      15.289  16.612  -0.588  0.00  0.00    -0.305 OA
BRANCH  24  25
ATOM     25  C   UNL d   1      15.996  16.353  -0.254  0.00  0.00     0.123 C 
ATOM     26  C   UNL d   1      16.086  15.560  -0.050  0.00  0.00     0.029 C 
ENDBRANCH  24  25
ENDBRANCH  21  24
ENDBRANCH  15  18
ENDBRANCH   1  15
BRANCH   2  27
ATOM     27  C   UNL d   1      14.799  16.772  -4.941  0.00  0.00     0.198 C 
ATOM     28  O   UNL d   1      15.457  16.830  -4.447  0.00  0.00    -0.286 OA
BRANCH  27  29
ATOM     29  C   UNL d   1      14.485  17.445  -5.300  0.00  0.00     0.039 A 
ATOM     30  C   UNL d   1      13.957  17.377  -5.936  0.00  0.00     0.003 A 
ATOM     31  C   UNL d   1      13.642  18.050  -6.295  0.00  0.00     0.000 A 
ATOM     32  C   UNL d   1      13.850  18.801  -6.025  0.00  0.00     0.000 A 
ATOM     33  C   UNL d   1      14.387  18.868  -5.379  0.00  0.00     0.000 A 
ATOM     34  C   UNL d   1      13.540  19.477  -6.380  0.00  0.00     0.000 C 
ATOM     35  C   UNL d   1      14.702  18.199  -5.019  0.00  0.00     0.003 A 
ENDBRANCH  27  29
ENDBRANCH   2  27
TORSDOF 6
ENDMDL
MODEL 2
REMARK VINA RESULT:      90.0      1.202      4.574
REMARK  6 active torsions:
REMARK  status: ('A' for Active; 'I' for Inactive)
REMARK    1  A    between atoms: C_2  and  S_1 
REMARK    2  A    between atoms: C_13  and  S_1 
REMARK    3  A    between atoms: C_5  and  C_3 
REMARK    4  A    between atoms: C_16  and  C_5 
REMARK    5  A    between atoms: O_30  and  C_24 
REMARK    6  A    between atoms: C_33  and  O_30 
ROOT
ATOM      1  C   UNL d   1      14.324  15.672  -3.278  0.00  0.00     0.094 A 
ATOM      2  C   UNL d   1      13.964  14.961  -3.483  0.00  0.00     0.069 A 
ATOM      3  C   UNL d   1      14.615  15.780  -2.516  0.00  0.00     0.031 A 
ATOM      4  C   UNL d   1      14.545  15.176  -1.957  0.00  0.00     0.084 A 
ATOM      5  C   UNL d   1      14.976  16.491  -2.311  0.00  0.00     0.029 A 
ATOM      6  N   UNL d   1      14.185  14.465  -2.161  0.00  0.00    -0.244 NA
ATOM      7  C   UNL d   1      13.894  14.357  -2.924  0.00  0.00     0.103 A 
ATOM      8  C   UNL d   1      14.836  15.285  -1.194  0.00  0.00     0.046 A 
ATOM      9  C   UNL d   1      15.266  16.600  -1.549  0.00  0.00     0.123 A 
ATOM     10  C   UNL d   1      15.196  15.996  -0.990  0.00  0.00     0.124 A 
ATOM     11  O   UNL d   1      15.627  17.311  -1.344  0.00  0.00    -0.301 OA
ATOM     12  O   UNL d   1      15.487  16.104  -0.227  0.00  0.00    -0.301 OA
ATOM     13  C   UNL d   1      15.923  17.427  -0.573  0.00  0.00     0.149 A 
ATOM     14  C   UNL d   1      15.853  16.823  -0.014  0.00  0.00     0.149 A 
ENDROOT
BRANCH   1  15
ATOM     15  S   UNL d   1      14.396  16.277  -3.834  0.00  0.00     0.210 S 
ATOM     16  O   UNL d   1      13.790  16.696  -3.462  0.00  0.00    -0.217 OA
ATOM     17  O   UNL d   1      15.002  15.859  -4.205  0.00  0.00    -0.217 OA
BRANCH  15  18
ATOM     18  C   UNL d   1      14.474  16.879  -4.393  0.00  0.00     0.088 A 
ATOM     19  C   UNL d   1      15.145  17.352  -4.398  0.00  0.00     0.013 A 
ATOM     20  C   UNL d   1      15.220  17.956  -4.962  0.00  0.00     0.025 A 
ATOM     21  C   UNL d   1      14.622  18.080  -5.514  0.00  0.00     0.100 A 
ATOM     22  C   UNL d   1      13.951  17.610  -5.512  0.00  0.00     0.025 A 
ATOM     23  C   UNL d   1      13.877  17.003  -4.945  0.00  0.00     0.013 A 
BRANCH  21  24
ATOM     24  O   UNL d   1      14.696  18.686  -6.081  0.00  0.00    -0.305 OA
BRANCH  24  25
ATOM     25  C   UNL d   1      14.197  19.340  -6.055  0.00  0.00     0.123 C 
ATOM     26  C   UNL d   1      14.460  20.069  -6.334  0.00  0.00     0.029 C 
ENDBRANCH  24  25
ENDBRANCH  21  24
ENDBRANCH  15  18
ENDBRANCH   1  15
BRANCH   2  27
ATOM     27  C   UNL d   1      13.667  14.845  -4.254  0.00  0.00     0.198 C 
ATOM     28  O   UNL d   1      13.534  15.497  -4.741  0.00  0.00    -0.286 OA
BRANCH  27  29
ATOM     29  C   UNL d   1      13.509  14.082  -4.525  0.00  0.00     0.039 A 
ATOM     30  C   UNL d   1      13.926  13.769  -5.171  0.00  0.00     0.003 A 
ATOM     31  C   UNL d   1      13.769  13.006  -5.443  0.00  0.00     0.000 A 
ATOM     32  C   UNL d   1      13.193  12.544  -5.075  0.00  0.00     0.000 A 
ATOM     33  C   UNL d   1      12.770  12.864  -4.420  0.00  0.00     0.000 A 
ATOM     34  C   UNL d   1      13.031  11.782  -5.343  0.00  0.00     0.000 C 
ATOM     35  C   UNL d   1      12.925  13.624  -4.146  0.00  0.00     0.003 A 
ENDBRANCH  27  29
ENDBRANCH   2  27
TORSDOF 6
ENDMDL
