MODEL 1
REMARK VINA RESULT:      39.3      0.000      0.000
REMARK  7 active torsions:
REMARK  status: ('A' for Active; 'I' for Inactive)
REMARK    1  A    between atoms: N_2  and  S_1 
REMARK    2  A    between atoms: C_6  and  S_1 
REMARK    3  A    between atoms: C_16  and  C_3 
REMARK       I    between atoms: C_4  and  N_10 
REMARK    4  A    between atoms: C_5  and  C_4 
REMARK       I    between atoms: N_11  and  C_5 
REMARK    5  A    between atoms: N_10  and  C_16 
REMARK    6  A    between atoms: C_26  and  N_11 
REMARK    7  A    between atoms: C_25  and  C_26 
ROOT
ATOM      1  C   UNL d   1      45.516 -17.549  39.260  0.00  0.00     0.337 C 
ATOM      2  N   UNL d   1      45.830 -17.075  38.672  0.00  0.00    -0.199 NA
ATOM      3  O   UNL d   1      44.724 -17.483  39.477  0.00  0.00    -0.260 OA
ENDROOT
BRANCH   2   4
ATOM      4  C   UNL d   1      45.351 -16.525  38.293  0.00  0.00     0.146 C 
BRANCH   4   5
ATOM      5  C   UNL d   1      45.679 -15.950  37.803  0.00  0.00     0.197 A 
ATOM      6  N   UNL d   1      45.277 -15.514  37.242  0.00  0.00    -0.207 N 
ATOM      7  C   UNL d   1      45.825 -15.006  36.885  0.00  0.00     0.120 A 
ATOM      8  C   UNL d   1      46.568 -15.135  37.231  0.00  0.00     0.144 A 
ATOM      9  O   UNL d   1      46.472 -15.729  37.808  0.00  0.00    -0.285 OA
BRANCH   6  10
ATOM     10  S   UNL d   1      44.479 -15.564  37.063  0.00  0.00     0.273 S 
ATOM     11  O   UNL d   1      44.600 -16.302  36.727  0.00  0.00    -0.200 OA
ATOM     12  O   UNL d   1      44.357 -14.827  37.398  0.00  0.00    -0.200 OA
BRANCH  10  13
ATOM     13  C   UNL d   1      43.681 -15.615  36.883  0.00  0.00     0.104 A 
ATOM     14  C   UNL d   1      43.380 -16.299  36.510  0.00  0.00     0.013 A 
ATOM     15  C   UNL d   1      42.581 -16.349  36.331  0.00  0.00     0.007 A 
ATOM     16  C   UNL d   1      42.071 -15.719  36.520  0.00  0.00     0.035 A 
ATOM     17  C   UNL d   1      42.374 -15.045  36.889  0.00  0.00     0.007 A 
ATOM     18 BR   UNL d   1      41.269 -15.766  36.342  0.00  0.00    -0.049 Br
ATOM     19  C   UNL d   1      43.172 -14.995  37.068  0.00  0.00     0.013 A 
ENDBRANCH  10  13
ENDBRANCH   6  10
ENDBRANCH   4   5
ENDBRANCH   2   4
BRANCH   1  20
ATOM     20  C   UNL d   1      45.996 -18.098  39.640  0.00  0.00     0.337 C 
ATOM     21  N   UNL d   1      46.158 -18.001  40.438  0.00  0.00    -0.202 NA
ATOM     22  O   UNL d   1      46.304 -18.733  39.222  0.00  0.00    -0.260 OA
BRANCH  21  23
ATOM     23  C   UNL d   1      46.644 -18.556  40.828  0.00  0.00     0.102 C 
BRANCH  23  24
ATOM     24  C   UNL d   1      46.530 -18.715  41.631  0.00  0.00     0.021 A 
ATOM     25  C   UNL d   1      46.315 -19.473  41.863  0.00  0.00     0.028 A 
ATOM     26  C   UNL d   1      46.202 -19.631  42.670  0.00  0.00     0.119 A 
ATOM     27  O   UNL d   1      45.989 -20.326  43.061  0.00  0.00    -0.300 OA
ATOM     28  C   UNL d   1      46.304 -19.035  43.234  0.00  0.00     0.119 A 
ATOM     29  C   UNL d   1      45.959 -20.152  43.880  0.00  0.00     0.304 A 
ATOM     30  O   UNL d   1      46.155 -19.356  43.966  0.00  0.00    -0.300 OA
ATOM     31  C   UNL d   1      46.520 -18.278  42.985  0.00  0.00     0.026 A 
ATOM     32  C   UNL d   1      46.633 -18.116  42.189  0.00  0.00     0.004 A 
ENDBRANCH  23  24
ENDBRANCH  21  23
ENDBRANCH   1  20
TORSDOF 7
ENDMDL
