MODEL 1
REMARK VINA RESULT:      -2.9      0.000      0.000
REMARK  7 active torsions:
REMARK  status: ('A' for Active; 'I' for Inactive)
REMARK    1  A    between atoms: C_2  and  C_1 
REMARK    2  A    between atoms: O_12  and  C_1 
REMARK       I    between atoms: C_3  and  N_4 
REMARK    3  A    between atoms: C_11  and  C_3 
REMARK    4  A    between atoms: N_4  and  C_7 
REMARK    5  A    between atoms: C_5  and  C_13 
REMARK    6  A    between atoms: O_14  and  C_5 
REMARK    7  A    between atoms: C_13  and  C_11 
ROOT
ATOM      1  C   UNL d   1      32.465  18.088 -23.621  0.00  0.00     0.063 A 
ATOM      2  C   UNL d   1      32.064  17.367 -23.607  0.00  0.00     0.023 A 
ATOM      3  C   UNL d   1      31.815  17.000 -24.303  0.00  0.00     0.059 A 
ATOM      4  C   UNL d   1      32.625  18.458 -24.356  0.00  0.00     0.006 A 
ATOM      5  C   UNL d   1      32.374  18.089 -25.056  0.00  0.00     0.002 A 
ATOM      6  C   UNL d   1      31.972  17.363 -25.019  0.00  0.00     0.017 A 
ENDROOT
BRANCH   3   7
ATOM      7  N   UNL d   1      31.405  16.262 -24.277  0.00  0.00    -0.321 N 
ATOM      8  C   UNL d   1      30.583  16.254 -24.323  0.00  0.00     0.258 C 
ATOM      9  O   UNL d   1      30.178  15.527 -24.298  0.00  0.00    -0.267 OA
ATOM     10  H   UNL d   1      31.837  15.561 -24.205  0.00  0.00     0.169 HD
BRANCH   8  11
ATOM     11  C   UNL d   1      30.140  16.949 -24.395  0.00  0.00     0.067 C 
BRANCH  11  12
ATOM     12  C   UNL d   1      29.335  16.939 -24.510  0.00  0.00     0.072 C 
BRANCH  12  13
ATOM     13  C   UNL d   1      28.901  17.627 -24.429  0.00  0.00     0.178 C 
ATOM     14  O   UNL d   1      28.764  18.092 -25.097  0.00  0.00    -0.646 OA
BRANCH  13  15
ATOM     15  O   UNL d   1      28.607  17.852 -23.703  0.00  0.00    -0.773 OA
ATOM     16  H   UNL d   1      27.949  17.495 -23.401  0.00  0.00     0.167 HD
ENDBRANCH  13  15
ENDBRANCH  12  13
ENDBRANCH  11  12
ENDBRANCH   8  11
ENDBRANCH   3   7
BRANCH   1  17
ATOM     17  C   UNL d   1      32.707  18.442 -22.917  0.00  0.00     0.178 C 
ATOM     18  O   UNL d   1      33.241  18.039 -22.426  0.00  0.00    -0.646 OA
BRANCH  17  19
ATOM     19  O   UNL d   1      32.425  19.174 -22.708  0.00  0.00    -0.773 OA
ATOM     20  H   UNL d   1      31.869  19.260 -22.103  0.00  0.00     0.167 HD
ENDBRANCH  17  19
ENDBRANCH   1  17
TORSDOF 7
ENDMDL
MODEL 2
REMARK VINA RESULT:      -2.8      1.220      3.364
REMARK  7 active torsions:
REMARK  status: ('A' for Active; 'I' for Inactive)
REMARK    1  A    between atoms: C_2  and  C_1 
REMARK    2  A    between atoms: O_12  and  C_1 
REMARK       I    between atoms: C_3  and  N_4 
REMARK    3  A    between atoms: C_11  and  C_3 
REMARK    4  A    between atoms: N_4  and  C_7 
REMARK    5  A    between atoms: C_5  and  C_13 
REMARK    6  A    between atoms: O_14  and  C_5 
REMARK    7  A    between atoms: C_13  and  C_11 
ROOT
ATOM      1  C   UNL d   1      29.584  16.053 -23.796  0.00  0.00     0.063 A 
ATOM      2  C   UNL d   1      30.311  15.827 -23.479  0.00  0.00     0.023 A 
ATOM      3  C   UNL d   1      30.980  15.746 -23.955  0.00  0.00     0.059 A 
ATOM      4  C   UNL d   1      29.519  16.203 -24.618  0.00  0.00     0.006 A 
ATOM      5  C   UNL d   1      30.192  16.121 -25.097  0.00  0.00     0.002 A 
ATOM      6  C   UNL d   1      30.915  15.893 -24.757  0.00  0.00     0.017 A 
ENDROOT
BRANCH   3   7
ATOM      7  N   UNL d   1      31.720  15.514 -23.620  0.00  0.00    -0.321 N 
ATOM      8  C   UNL d   1      32.279  16.091 -23.436  0.00  0.00     0.258 C 
ATOM      9  O   UNL d   1      33.008  15.863 -23.106  0.00  0.00    -0.267 OA
ATOM     10  H   UNL d   1      31.871  14.713 -23.483  0.00  0.00     0.169 HD
BRANCH   8  11
ATOM     11  C   UNL d   1      32.140  16.895 -23.568  0.00  0.00     0.067 C 
BRANCH  11  12
ATOM     12  C   UNL d   1      32.712  17.459 -23.441  0.00  0.00     0.072 C 
BRANCH  12  13
ATOM     13  C   UNL d   1      32.513  18.252 -23.444  0.00  0.00     0.178 C 
ATOM     14  O   UNL d   1      32.591  18.680 -24.145  0.00  0.00    -0.646 OA
BRANCH  13  15
ATOM     15  O   UNL d   1      32.243  18.617 -22.766  0.00  0.00    -0.773 OA
ATOM     16  H   UNL d   1      31.579  19.075 -22.787  0.00  0.00     0.167 HD
ENDBRANCH  13  15
ENDBRANCH  12  13
ENDBRANCH  11  12
ENDBRANCH   8  11
ENDBRANCH   3   7
BRANCH   1  17
ATOM     17  C   UNL d   1      28.924  16.130 -23.306  0.00  0.00     0.178 C 
ATOM     18  O   UNL d   1      28.607  15.453 -22.948  0.00  0.00    -0.646 OA
BRANCH  17  19
ATOM     19  O   UNL d   1      28.592  16.860 -23.179  0.00  0.00    -0.773 OA
ATOM     20  H   UNL d   1      28.288  17.066 -22.439  0.00  0.00     0.167 HD
ENDBRANCH  17  19
ENDBRANCH   1  17
TORSDOF 7
ENDMDL
MODEL 3
REMARK VINA RESULT:      -2.5      1.136      3.551
REMARK  7 active torsions:
REMARK  status: ('A' for Active; 'I' for Inactive)
REMARK    1  A    between atoms: C_2  and  C_1 
REMARK    2  A    between atoms: O_12  and  C_1 
REMARK       I    between atoms: C_3  and  N_4 
REMARK    3  A    between atoms: C_11  and  C_3 
REMARK    4  A    between atoms: N_4  and  C_7 
REMARK    5  A    between atoms: C_5  and  C_13 
REMARK    6  A    between atoms: O_14  and  C_5 
REMARK    7  A    between atoms: C_13  and  C_11 
ROOT
ATOM      1  C   UNL d   1      29.396  16.307 -23.800  0.00  0.00     0.063 A 
ATOM      2  C   UNL d   1      30.037  16.303 -24.317  0.00  0.00     0.023 A 
ATOM      3  C   UNL d   1      30.726  15.882 -24.145  0.00  0.00     0.059 A 
ATOM      4  C   UNL d   1      29.440  15.876 -23.082  0.00  0.00     0.006 A 
ATOM      5  C   UNL d   1      30.133  15.453 -22.908  0.00  0.00     0.002 A 
ATOM      6  C   UNL d   1      30.767  15.463 -23.444  0.00  0.00     0.017 A 
ENDROOT
BRANCH   3   7
ATOM      7  N   UNL d   1      31.377  15.885 -24.682  0.00  0.00    -0.321 N 
ATOM      8  C   UNL d   1      32.001  16.410 -24.560  0.00  0.00     0.258 C 
ATOM      9  O   UNL d   1      32.643  16.413 -25.090  0.00  0.00    -0.267 OA
ATOM     10  H   UNL d   1      31.379  15.361 -25.322  0.00  0.00     0.169 HD
BRANCH   8  11
ATOM     11  C   UNL d   1      32.011  16.939 -23.924  0.00  0.00     0.067 C 
BRANCH  11  12
ATOM     12  C   UNL d   1      32.590  17.503 -23.842  0.00  0.00     0.072 C 
BRANCH  12  13
ATOM     13  C   UNL d   1      32.617  17.968 -23.169  0.00  0.00     0.178 C 
ATOM     14  O   UNL d   1      33.159  17.779 -22.576  0.00  0.00    -0.646 OA
BRANCH  13  15
ATOM     15  O   UNL d   1      32.118  18.607 -23.083  0.00  0.00    -0.773 OA
ATOM     16  H   UNL d   1      31.332  18.495 -22.940  0.00  0.00     0.167 HD
ENDBRANCH  13  15
ENDBRANCH  12  13
ENDBRANCH  11  12
ENDBRANCH   8  11
ENDBRANCH   3   7
BRANCH   1  17
ATOM     17  C   UNL d   1      28.714  16.732 -23.987  0.00  0.00     0.178 C 
ATOM     18  O   UNL d   1      28.014  16.574 -23.573  0.00  0.00    -0.646 OA
BRANCH  17  19
ATOM     19  O   UNL d   1      28.732  17.298 -24.569  0.00  0.00    -0.773 OA
ATOM     20  H   UNL d   1      29.445  17.530 -24.915  0.00  0.00     0.167 HD
ENDBRANCH  17  19
ENDBRANCH   1  17
TORSDOF 7
ENDMDL
MODEL 4
REMARK VINA RESULT:      -2.3      1.426      3.487
REMARK  7 active torsions:
REMARK  status: ('A' for Active; 'I' for Inactive)
REMARK    1  A    between atoms: C_2  and  C_1 
REMARK    2  A    between atoms: O_12  and  C_1 
REMARK       I    between atoms: C_3  and  N_4 
REMARK    3  A    between atoms: C_11  and  C_3 
REMARK    4  A    between atoms: N_4  and  C_7 
REMARK    5  A    between atoms: C_5  and  C_13 
REMARK    6  A    between atoms: O_14  and  C_5 
REMARK    7  A    between atoms: C_13  and  C_11 
ROOT
ATOM      1  C   UNL d   1      31.348  16.209 -23.789  0.00  0.00     0.063 A 
ATOM      2  C   UNL d   1      31.523  16.889 -24.220  0.00  0.00     0.023 A 
ATOM      3  C   UNL d   1      32.302  17.096 -24.399  0.00  0.00     0.059 A 
ATOM      4  C   UNL d   1      31.971  15.714 -23.524  0.00  0.00     0.006 A 
ATOM      5  C   UNL d   1      32.755  15.923 -23.704  0.00  0.00     0.002 A 
ATOM      6  C   UNL d   1      32.908  16.613 -24.140  0.00  0.00     0.017 A 
ENDROOT
BRANCH   3   7
ATOM      7  N   UNL d   1      32.470  17.796 -24.841  0.00  0.00    -0.321 N 
ATOM      8  C   UNL d   1      32.730  18.471 -24.448  0.00  0.00     0.258 C 
ATOM      9  O   UNL d   1      32.896  19.160 -24.883  0.00  0.00    -0.267 OA
ATOM     10  H   UNL d   1      32.370  17.790 -25.662  0.00  0.00     0.169 HD
BRANCH   8  11
ATOM     11  C   UNL d   1      32.834  18.488 -23.627  0.00  0.00     0.067 C 
BRANCH  11  12
ATOM     12  C   UNL d   1      33.148  19.133 -23.245  0.00  0.00     0.072 C 
BRANCH  12  13
ATOM     13  C   UNL d   1      32.931  19.300 -22.475  0.00  0.00     0.178 C 
ATOM     14  O   UNL d   1      33.237  18.836 -21.865  0.00  0.00    -0.646 OA
BRANCH  13  15
ATOM     15  O   UNL d   1      32.421  19.914 -22.309  0.00  0.00    -0.773 OA
ATOM     16  H   UNL d   1      31.806  20.078 -22.804  0.00  0.00     0.167 HD
ENDBRANCH  13  15
ENDBRANCH  12  13
ENDBRANCH  11  12
ENDBRANCH   8  11
ENDBRANCH   3   7
BRANCH   1  17
ATOM     17  C   UNL d   1      30.564  16.016 -23.618  0.00  0.00     0.178 C 
ATOM     18  O   UNL d   1      30.121  15.598 -24.181  0.00  0.00    -0.646 OA
BRANCH  17  19
ATOM     19  O   UNL d   1      30.234  16.233 -22.908  0.00  0.00    -0.773 OA
ATOM     20  H   UNL d   1      29.938  16.995 -22.792  0.00  0.00     0.167 HD
ENDBRANCH  17  19
ENDBRANCH   1  17
TORSDOF 7
ENDMDL
MODEL 5
REMARK VINA RESULT:      -2.2      1.565      3.773
REMARK  7 active torsions:
REMARK  status: ('A' for Active; 'I' for Inactive)
REMARK    1  A    between atoms: C_2  and  C_1 
REMARK    2  A    between atoms: O_12  and  C_1 
REMARK       I    between atoms: C_3  and  N_4 
REMARK    3  A    between atoms: C_11  and  C_3 
REMARK    4  A    between atoms: N_4  and  C_7 
REMARK    5  A    between atoms: C_5  and  C_13 
REMARK    6  A    between atoms: O_14  and  C_5 
REMARK    7  A    between atoms: C_13  and  C_11 
ROOT
ATOM      1  C   UNL d   1      29.086  16.212 -23.822  0.00  0.00     0.063 A 
ATOM      2  C   UNL d   1      29.601  16.849 -23.911  0.00  0.00     0.023 A 
ATOM      3  C   UNL d   1      30.125  16.892 -24.547  0.00  0.00     0.059 A 
ATOM      4  C   UNL d   1      29.091  15.593 -24.387  0.00  0.00     0.006 A 
ATOM      5  C   UNL d   1      29.619  15.636 -25.027  0.00  0.00     0.002 A 
ATOM      6  C   UNL d   1      30.130  16.287 -25.097  0.00  0.00     0.017 A 
ENDROOT
BRANCH   3   7
ATOM      7  N   UNL d   1      30.649  17.550 -24.629  0.00  0.00    -0.321 N 
ATOM      8  C   UNL d   1      31.431  17.478 -24.378  0.00  0.00     0.258 C 
ATOM      9  O   UNL d   1      31.947  18.126 -24.459  0.00  0.00    -0.267 OA
ATOM     10  H   UNL d   1      30.369  18.254 -24.959  0.00  0.00     0.169 HD
BRANCH   8  11
ATOM     11  C   UNL d   1      31.723  16.779 -24.047  0.00  0.00     0.067 C 
BRANCH  11  12
ATOM     12  C   UNL d   1      32.444  16.748 -23.673  0.00  0.00     0.072 C 
BRANCH  12  13
ATOM     13  C   UNL d   1      32.819  16.029 -23.565  0.00  0.00     0.178 C 
ATOM     14  O   UNL d   1      32.764  15.657 -22.830  0.00  0.00    -0.646 OA
BRANCH  13  15
ATOM     15  O   UNL d   1      33.240  15.682 -24.171  0.00  0.00    -0.773 OA
ATOM     16  H   UNL d   1      33.053  14.940 -24.425  0.00  0.00     0.167 HD
ENDBRANCH  13  15
ENDBRANCH  12  13
ENDBRANCH  11  12
ENDBRANCH   8  11
ENDBRANCH   3   7
BRANCH   1  17
ATOM     17  C   UNL d   1      28.568  16.184 -23.181  0.00  0.00     0.178 C 
ATOM     18  O   UNL d   1      27.816  16.527 -23.254  0.00  0.00    -0.646 OA
BRANCH  17  19
ATOM     19  O   UNL d   1      28.793  15.825 -22.488  0.00  0.00    -0.773 OA
ATOM     20  H   UNL d   1      29.466  15.347 -22.455  0.00  0.00     0.167 HD
ENDBRANCH  17  19
ENDBRANCH   1  17
TORSDOF 7
ENDMDL
MODEL 6
REMARK VINA RESULT:      -1.9      1.892      2.740
REMARK  7 active torsions:
REMARK  status: ('A' for Active; 'I' for Inactive)
REMARK    1  A    between atoms: C_2  and  C_1 
REMARK    2  A    between atoms: O_12  and  C_1 
REMARK       I    between atoms: C_3  and  N_4 
REMARK    3  A    between atoms: C_11  and  C_3 
REMARK    4  A    between atoms: N_4  and  C_7 
REMARK    5  A    between atoms: C_5  and  C_13 
REMARK    6  A    between atoms: O_14  and  C_5 
REMARK    7  A    between atoms: C_13  and  C_11 
ROOT
ATOM      1  C   UNL d   1      32.794  20.272 -21.956  0.00  0.00     0.063 A 
ATOM      2  C   UNL d   1      32.905  19.455 -21.969  0.00  0.00     0.023 A 
ATOM      3  C   UNL d   1      33.129  19.064 -22.660  0.00  0.00     0.059 A 
ATOM      4  C   UNL d   1      32.909  20.718 -22.656  0.00  0.00     0.006 A 
ATOM      5  C   UNL d   1      33.134  20.324 -23.352  0.00  0.00     0.002 A 
ATOM      6  C   UNL d   1      33.241  19.500 -23.343  0.00  0.00     0.017 A 
ENDROOT
BRANCH   3   7
ATOM      7  N   UNL d   1      33.241  18.227 -22.663  0.00  0.00    -0.321 N 
ATOM      8  C   UNL d   1      32.751  17.755 -23.129  0.00  0.00     0.258 C 
ATOM      9  O   UNL d   1      32.861  16.930 -23.132  0.00  0.00    -0.267 OA
ATOM     10  H   UNL d   1      33.839  17.895 -22.199  0.00  0.00     0.169 HD
BRANCH   8  11
ATOM     11  C   UNL d   1      32.150  18.075 -23.598  0.00  0.00     0.067 C 
BRANCH  11  12
ATOM     12  C   UNL d   1      31.715  17.619 -24.112  0.00  0.00     0.072 C 
BRANCH  12  13
ATOM     13  C   UNL d   1      31.018  17.909 -24.427  0.00  0.00     0.178 C 
ATOM     14  O   UNL d   1      31.053  18.407 -25.084  0.00  0.00    -0.646 OA
BRANCH  13  15
ATOM     15  O   UNL d   1      30.298  17.709 -24.100  0.00  0.00    -0.773 OA
ATOM     16  H   UNL d   1      30.077  18.014 -23.386  0.00  0.00     0.167 HD
ENDBRANCH  13  15
ENDBRANCH  12  13
ENDBRANCH  11  12
ENDBRANCH   8  11
ENDBRANCH   3   7
BRANCH   1  17
ATOM     17  C   UNL d   1      32.570  20.649 -21.257  0.00  0.00     0.178 C 
ATOM     18  O   UNL d   1      33.148  20.818 -20.687  0.00  0.00    -0.646 OA
BRANCH  17  19
ATOM     19  O   UNL d   1      31.793  20.849 -21.130  0.00  0.00    -0.773 OA
ATOM     20  H   UNL d   1      31.401  20.619 -20.441  0.00  0.00     0.167 HD
ENDBRANCH  17  19
ENDBRANCH   1  17
TORSDOF 7
ENDMDL
MODEL 7
REMARK VINA RESULT:      -1.1      1.474      2.257
REMARK  7 active torsions:
REMARK  status: ('A' for Active; 'I' for Inactive)
REMARK    1  A    between atoms: C_2  and  C_1 
REMARK    2  A    between atoms: O_12  and  C_1 
REMARK       I    between atoms: C_3  and  N_4 
REMARK    3  A    between atoms: C_11  and  C_3 
REMARK    4  A    between atoms: N_4  and  C_7 
REMARK    5  A    between atoms: C_5  and  C_13 
REMARK    6  A    between atoms: O_14  and  C_5 
REMARK    7  A    between atoms: C_13  and  C_11 
ROOT
ATOM      1  C   UNL d   1      33.119  19.589 -23.508  0.00  0.00     0.063 A 
ATOM      2  C   UNL d   1      33.190  18.973 -24.051  0.00  0.00     0.023 A 
ATOM      3  C   UNL d   1      33.166  18.184 -23.811  0.00  0.00     0.059 A 
ATOM      4  C   UNL d   1      33.019  19.415 -22.694  0.00  0.00     0.006 A 
ATOM      5  C   UNL d   1      32.995  18.620 -22.453  0.00  0.00     0.002 A 
ATOM      6  C   UNL d   1      33.069  18.015 -23.017  0.00  0.00     0.017 A 
ENDROOT
BRANCH   3   7
ATOM      7  N   UNL d   1      33.241  17.560 -24.376  0.00  0.00    -0.321 N 
ATOM      8  C   UNL d   1      32.589  17.083 -24.540  0.00  0.00     0.258 C 
ATOM      9  O   UNL d   1      32.662  16.468 -25.096  0.00  0.00    -0.267 OA
ATOM     10  H   UNL d   1      33.966  17.439 -24.754  0.00  0.00     0.169 HD
BRANCH   8  11
ATOM     11  C   UNL d   1      31.859  17.194 -24.168  0.00  0.00     0.067 C 
BRANCH  11  12
ATOM     12  C   UNL d   1      31.181  16.831 -24.431  0.00  0.00     0.072 C 
BRANCH  12  13
ATOM     13  C   UNL d   1      30.540  16.746 -23.930  0.00  0.00     0.178 C 
ATOM     14  O   UNL d   1      30.578  16.186 -23.326  0.00  0.00    -0.646 OA
BRANCH  13  15
ATOM     15  O   UNL d   1      29.874  17.207 -24.024  0.00  0.00    -0.773 OA
ATOM     16  H   UNL d   1      29.720  17.562 -24.732  0.00  0.00     0.167 HD
ENDBRANCH  13  15
ENDBRANCH  12  13
ENDBRANCH  11  12
ENDBRANCH   8  11
ENDBRANCH   3   7
BRANCH   1  17
ATOM     17  C   UNL d   1      33.144  20.373 -23.764  0.00  0.00     0.178 C 
ATOM     18  O   UNL d   1      33.241  20.977 -23.204  0.00  0.00    -0.646 OA
BRANCH  17  19
ATOM     19  O   UNL d   1      33.076  20.548 -24.555  0.00  0.00    -0.773 OA
ATOM     20  H   UNL d   1      32.929  21.320 -24.808  0.00  0.00     0.167 HD
ENDBRANCH  17  19
ENDBRANCH   1  17
TORSDOF 7
ENDMDL
MODEL 8
REMARK VINA RESULT:      -1.1      1.967      3.129
REMARK  7 active torsions:
REMARK  status: ('A' for Active; 'I' for Inactive)
REMARK    1  A    between atoms: C_2  and  C_1 
REMARK    2  A    between atoms: O_12  and  C_1 
REMARK       I    between atoms: C_3  and  N_4 
REMARK    3  A    between atoms: C_11  and  C_3 
REMARK    4  A    between atoms: N_4  and  C_7 
REMARK    5  A    between atoms: C_5  and  C_13 
REMARK    6  A    between atoms: O_14  and  C_5 
REMARK    7  A    between atoms: C_13  and  C_11 
ROOT
ATOM      1  C   UNL d   1      32.792  20.323 -21.876  0.00  0.00     0.063 A 
ATOM      2  C   UNL d   1      32.862  20.229 -22.692  0.00  0.00     0.023 A 
ATOM      3  C   UNL d   1      33.086  19.508 -23.024  0.00  0.00     0.059 A 
ATOM      4  C   UNL d   1      32.951  19.674 -21.369  0.00  0.00     0.006 A 
ATOM      5  C   UNL d   1      33.177  18.948 -21.704  0.00  0.00     0.002 A 
ATOM      6  C   UNL d   1      33.241  18.876 -22.529  0.00  0.00     0.017 A 
ENDROOT
BRANCH   3   7
ATOM      7  N   UNL d   1      33.155  19.423 -23.862  0.00  0.00    -0.321 N 
ATOM      8  C   UNL d   1      32.717  18.841 -24.247  0.00  0.00     0.258 C 
ATOM      9  O   UNL d   1      32.785  18.757 -25.072  0.00  0.00    -0.267 OA
ATOM     10  H   UNL d   1      33.660  19.926 -24.281  0.00  0.00     0.169 HD
BRANCH   8  11
ATOM     11  C   UNL d   1      32.209  18.332 -23.838  0.00  0.00     0.067 C 
BRANCH  11  12
ATOM     12  C   UNL d   1      31.913  17.655 -24.177  0.00  0.00     0.072 C 
BRANCH  12  13
ATOM     13  C   UNL d   1      31.215  17.330 -23.901  0.00  0.00     0.178 C 
ATOM     14  O   UNL d   1      31.229  16.570 -23.579  0.00  0.00    -0.646 OA
BRANCH  13  15
ATOM     15  O   UNL d   1      30.516  17.747 -23.943  0.00  0.00    -0.773 OA
ATOM     16  H   UNL d   1      30.312  18.135 -24.620  0.00  0.00     0.167 HD
ENDBRANCH  13  15
ENDBRANCH  12  13
ENDBRANCH  11  12
ENDBRANCH   8  11
ENDBRANCH   3   7
BRANCH   1  17
ATOM     17  C   UNL d   1      32.567  21.051 -21.559  0.00  0.00     0.178 C 
ATOM     18  O   UNL d   1      32.902  21.744 -21.865  0.00  0.00    -0.646 OA
BRANCH  17  19
ATOM     19  O   UNL d   1      32.024  21.084 -20.956  0.00  0.00    -0.773 OA
ATOM     20  H   UNL d   1      31.214  21.030 -21.109  0.00  0.00     0.167 HD
ENDBRANCH  17  19
ENDBRANCH   1  17
TORSDOF 7
ENDMDL
