MODEL 1
REMARK VINA RESULT:      44.3      0.000      0.000
REMARK  7 active torsions:
REMARK  status: ('A' for Active; 'I' for Inactive)
REMARK    1  A    between atoms: C_11  and  C_1 
REMARK    2  A    between atoms: C_15  and  N_3 
REMARK    3  A    between atoms: C_7  and  S_12 
REMARK    4  A    between atoms: C_13  and  C_11 
REMARK    5  A    between atoms: S_12  and  C_13 
REMARK    6  A    between atoms: C_20  and  C_15 
REMARK    7  A    between atoms: O_19  and  C_20 
ROOT
ATOM      1  C   UNL d   1     -49.945  26.649  33.760  0.00  0.00     0.057 A 
ATOM      2  C   UNL d   1     -50.747  26.543  33.652  0.00  0.00     0.067 A 
ATOM      3  N   UNL d   1     -50.851  25.752  33.469  0.00  0.00    -0.303 N 
ATOM      4  C   UNL d   1     -49.573  25.940  33.645  0.00  0.00     0.022 A 
ATOM      5  C   UNL d   1     -50.132  25.398  33.469  0.00  0.00     0.064 A 
ATOM      6  C   UNL d   1     -51.332  27.120  33.715  0.00  0.00     0.019 C 
ATOM      7  C   UNL d   1     -49.985  24.582  33.307  0.00  0.00     0.019 C 
ENDROOT
BRANCH   1   8
ATOM      8  C   UNL d   1     -49.580  27.375  33.956  0.00  0.00     0.203 C 
ATOM      9  O   UNL d   1     -49.494  27.950  33.375  0.00  0.00    -0.286 OA
BRANCH   8  10
ATOM     10  C   UNL d   1     -49.309  27.513  34.720  0.00  0.00     0.079 C 
BRANCH  10  11
ATOM     11  S   UNL d   1     -49.064  28.270  34.946  0.00  0.00    -0.056 SA
BRANCH  11  12
ATOM     12  C   UNL d   1     -48.485  28.847  35.104  0.00  0.00     0.164 A 
ATOM     13  S   UNL d   1     -48.115  28.952  35.838  0.00  0.00    -0.039 SA
ATOM     14  C   UNL d   1     -47.573  29.587  35.756  0.00  0.00     0.134 A 
ATOM     15  C   UNL d   1     -47.077  29.887  36.357  0.00  0.00     0.030 C 
ATOM     16  N   UNL d   1     -47.617  29.866  34.969  0.00  0.00    -0.140 NA
ATOM     17  N   UNL d   1     -48.187  29.400  34.571  0.00  0.00    -0.134 NA
ENDBRANCH  11  12
ENDBRANCH  10  11
ENDBRANCH   8  10
ENDBRANCH   1   8
BRANCH   3  18
ATOM     18  C   UNL d   1     -51.572  25.351  33.306  0.00  0.00     0.107 C 
BRANCH  18  19
ATOM     19  C   UNL d   1     -51.663  24.564  33.563  0.00  0.00     0.135 C 
BRANCH  19  20
ATOM     20  O   UNL d   1     -52.387  24.274  33.778  0.00  0.00    -0.325 OA
ATOM     21  C   UNL d   1     -52.905  24.283  33.325  0.00  0.00     0.182 C 
ENDBRANCH  19  20
ENDBRANCH  18  19
ENDBRANCH   3  18
TORSDOF 7
ENDMDL
