MODEL 1
REMARK VINA RESULT:      69.4      0.000      0.000
REMARK  7 active torsions:
REMARK  status: ('A' for Active; 'I' for Inactive)
REMARK    1  A    between atoms: C_13  and  C_4 
REMARK    2  A    between atoms: N_16  and  C_6 
REMARK    3  A    between atoms: C_17  and  C_9 
REMARK    4  A    between atoms: N_11  and  C_19 
REMARK    5  A    between atoms: C_21  and  N_16 
REMARK    6  A    between atoms: C_19  and  C_20 
REMARK    7  A    between atoms: C_20  and  C_21 
ROOT
ATOM      1  C   UNL d   1      58.663  49.189  51.435  0.00  0.00     0.168 A 
ATOM      2  N   UNL d   1      58.084  49.240  52.026  0.00  0.00    -0.184 N 
ATOM      3  N   UNL d   1      59.095  49.457  52.999  0.00  0.00    -0.162 NA
ATOM      4  C   UNL d   1      59.441  49.271  51.628  0.00  0.00     0.055 A 
ATOM      5  N   UNL d   1      58.436  49.055  50.661  0.00  0.00    -0.227 NA
ATOM      6  C   UNL d   1      57.299  49.155  51.821  0.00  0.00     0.218 A 
ATOM      7  C   UNL d   1      59.674  49.406  52.408  0.00  0.00     0.104 A 
ATOM      8  C   UNL d   1      57.076  49.017  51.020  0.00  0.00     0.071 A 
ATOM      9  C   UNL d   1      57.654  48.972  50.465  0.00  0.00     0.087 A 
ATOM     10  C   UNL d   1      60.449  49.488  52.598  0.00  0.00     0.023 C 
ENDROOT
BRANCH   6  11
ATOM     11  N   UNL d   1      56.702  49.207  52.424  0.00  0.00    -0.380 NA
BRANCH  11  12
ATOM     12  C   UNL d   1      56.097  49.328  53.007  0.00  0.00     0.164 C 
BRANCH  12  13
ATOM     13  C   UNL d   1      56.298  49.690  53.738  0.00  0.00     0.054 C 
BRANCH  13  14
ATOM     14  C   UNL d   1      57.037  49.508  54.105  0.00  0.00     0.084 C 
BRANCH  14  15
ATOM     15  N   UNL d   1      57.107  49.531  54.954  0.00  0.00    -0.285 N 
ATOM     16  C   UNL d   1      56.491  49.386  55.510  0.00  0.00     0.183 A 
ATOM     17  N   UNL d   1      56.813  49.469  56.293  0.00  0.00    -0.222 NA
ATOM     18  C   UNL d   1      57.633  49.667  56.214  0.00  0.00     0.120 A 
ATOM     19  C   UNL d   1      57.815  49.705  55.391  0.00  0.00     0.102 A 
ENDBRANCH  14  15
ENDBRANCH  13  14
ENDBRANCH  12  13
ENDBRANCH  11  12
ENDBRANCH   6  11
BRANCH   9  20
ATOM     20  C   UNL d   1      57.422  48.831  49.650  0.00  0.00     0.018 C 
ATOM     21  C   UNL d   1      57.943  49.088  49.012  0.00  0.00     0.002 C 
ATOM     22  C   UNL d   1      56.680  48.441  49.473  0.00  0.00     0.002 C 
ENDBRANCH   9  20
BRANCH   4  23
ATOM     23  C   UNL d   1      60.026  49.220  51.032  0.00  0.00     0.004 A 
ATOM     24  C   UNL d   1      60.664  48.721  51.131  0.00  0.00     0.000 A 
ATOM     25  C   UNL d   1      61.241  48.671  50.543  0.00  0.00     0.000 A 
ATOM     26  C   UNL d   1      61.166  49.120  49.868  0.00  0.00     0.000 A 
ATOM     27  C   UNL d   1      60.520  49.621  49.773  0.00  0.00     0.000 A 
ATOM     28  C   UNL d   1      59.957  49.665  50.356  0.00  0.00     0.000 A 
ENDBRANCH   4  23
TORSDOF 7
ENDMDL
