MODEL 1
REMARK VINA RESULT:       1.5      0.000      0.000
REMARK  7 active torsions:
REMARK  status: ('A' for Active; 'I' for Inactive)
REMARK    1  A    between atoms: N_6  and  S_1 
REMARK    2  A    between atoms: C_9  and  S_1 
REMARK    3  A    between atoms: N_2  and  C_11 
REMARK    4  A    between atoms: C_14  and  C_3 
REMARK    5  A    between atoms: C_7  and  C_15 
REMARK       I    between atoms: N_10  and  C_7 
REMARK    6  A    between atoms: C_25  and  N_10 
REMARK    7  A    between atoms: O_33  and  C_26 
ROOT
ATOM      1  C   UNL d   1      59.331  -0.182  29.867  0.00  0.00     0.085 A 
ATOM      2  C   UNL d   1      58.588   0.022  29.583  0.00  0.00     0.021 A 
ATOM      3  C   UNL d   1      59.470  -0.241  30.678  0.00  0.00     0.021 A 
ATOM      4  C   UNL d   1      58.102   0.113  30.927  0.00  0.00     0.085 A 
ATOM      5  C   UNL d   1      57.966   0.172  30.113  0.00  0.00     0.021 A 
ATOM      6  C   UNL d   1      58.863  -0.096  31.212  0.00  0.00     0.021 A 
ENDROOT
BRANCH   4   7
ATOM      7  N   UNL d   1      57.483   0.262  31.464  0.00  0.00    -0.208 NA
ATOM      8  C   UNL d   1      57.042  -0.366  31.758  0.00  0.00     0.279 C 
ATOM      9  O   UNL d   1      57.207  -1.136  31.528  0.00  0.00    -0.265 OA
BRANCH   8  10
ATOM     10  C   UNL d   1      56.417  -0.221  32.301  0.00  0.00     0.058 A 
ATOM     11  C   UNL d   1      56.402   0.479  32.713  0.00  0.00     0.005 A 
ATOM     12  C   UNL d   1      55.794   0.621  33.241  0.00  0.00     0.013 A 
ATOM     13  C   UNL d   1      55.209   0.072  33.357  0.00  0.00     0.104 A 
ATOM     14  C   UNL d   1      55.224  -0.635  32.942  0.00  0.00     0.013 A 
ATOM     15  C   UNL d   1      55.835  -0.778  32.410  0.00  0.00     0.005 A 
BRANCH  13  16
ATOM     16  S   UNL d   1      54.592   0.225  33.898  0.00  0.00     0.271 S 
ATOM     17  O   UNL d   1      54.054   0.205  33.281  0.00  0.00    -0.200 OA
ATOM     18  O   UNL d   1      55.141   0.241  34.505  0.00  0.00    -0.200 OA
BRANCH  16  19
ATOM     19  N   UNL d   1      53.992   0.376  34.444  0.00  0.00    -0.229 N 
ATOM     20  C   UNL d   1      54.155   0.518  35.234  0.00  0.00     0.092 A 
ATOM     21  C   UNL d   1      53.539   0.670  35.776  0.00  0.00     0.020 A 
ATOM     22  C   UNL d   1      52.763   0.678  35.519  0.00  0.00     0.003 A 
ATOM     23  C   UNL d   1      52.585   0.536  34.724  0.00  0.00     0.020 A 
ATOM     24  C   UNL d   1      53.201   0.385  34.183  0.00  0.00     0.092 A 
ENDBRANCH  16  19
ENDBRANCH  13  16
ENDBRANCH   8  10
ENDBRANCH   4   7
BRANCH   1  25
ATOM     25  N   UNL d   1      59.953  -0.331  29.337  0.00  0.00    -0.211 N 
ATOM     26  C   UNL d   1      60.086  -1.038  28.916  0.00  0.00     0.105 A 
ATOM     27  C   UNL d   1      60.766  -0.934  28.458  0.00  0.00     0.143 A 
ATOM     28  N   UNL d   1      61.060  -0.168  28.589  0.00  0.00    -0.127 NA
ATOM     29  N   UNL d   1      60.557   0.205  29.132  0.00  0.00    -0.060 NA
BRANCH  26  30
ATOM     30  C   UNL d   1      59.625  -1.711  28.952  0.00  0.00     0.019 A 
ATOM     31  C   UNL d   1      59.816  -2.313  29.484  0.00  0.00     0.004 A 
ATOM     32  C   UNL d   1      59.350  -2.993  29.520  0.00  0.00     0.024 A 
ATOM     33  C   UNL d   1      58.700  -3.076  29.032  0.00  0.00     0.094 A 
ATOM     34  C   UNL d   1      58.506  -2.469  28.494  0.00  0.00     0.024 A 
ATOM     35  C   UNL d   1      58.969  -1.787  28.455  0.00  0.00     0.004 A 
BRANCH  33  36
ATOM     36  O   UNL d   1      58.232  -3.749  29.062  0.00  0.00    -0.328 OA
ATOM     37  C   UNL d   1      58.421  -4.414  28.619  0.00  0.00     0.181 C 
ENDBRANCH  33  36
ENDBRANCH  26  30
ENDBRANCH   1  25
TORSDOF 7
ENDMDL
