MODEL 1
REMARK VINA RESULT:      -7.8      0.000      0.000
REMARK  5 active torsions:
REMARK  status: ('A' for Active; 'I' for Inactive)
REMARK    1  A    between atoms: N_3  and  C_1 
REMARK       I    between atoms: C_7  and  N_3 
REMARK    2  A    between atoms: S_9  and  C_4 
REMARK    3  A    between atoms: C_8  and  C_7 
REMARK    4  A    between atoms: C_13  and  S_9 
REMARK    5  A    between atoms: C_16  and  C_13 
ROOT
ATOM      1  C   UNL d   1      50.843  34.290  52.738  0.00  0.00     0.219 A 
ATOM      2  S   UNL d   1      51.120  33.682  53.279  0.00  0.00    -0.019 SA
ATOM      3  C   UNL d   1      51.882  33.410  52.962  0.00  0.00     0.165 A 
ATOM      4  N   UNL d   1      51.353  34.329  52.240  0.00  0.00    -0.120 NA
ATOM      5  N   UNL d   1      51.997  33.777  52.389  0.00  0.00    -0.133 NA
ENDROOT
BRANCH   1   6
ATOM      6  N   UNL d   1      50.057  34.764  52.814  0.00  0.00    -0.181 NA
ATOM      7  C   UNL d   1      49.473  34.748  52.189  0.00  0.00     0.281 C 
ATOM      8  O   UNL d   1      49.611  34.367  51.627  0.00  0.00    -0.265 OA
BRANCH   7   9
ATOM      9  C   UNL d   1      48.745  35.121  52.136  0.00  0.00     0.058 A 
ATOM     10  C   UNL d   1      48.470  35.572  52.767  0.00  0.00     0.006 A 
ATOM     11  C   UNL d   1      47.732  35.948  52.708  0.00  0.00     0.012 A 
ATOM     12  C   UNL d   1      47.283  35.863  52.013  0.00  0.00     0.058 A 
ATOM     13  C   UNL d   1      47.576  35.406  51.393  0.00  0.00     0.012 A 
ATOM     14 CL   UNL d   1      46.518  36.295  52.043  0.00  0.00    -0.082 Cl
ATOM     15  C   UNL d   1      48.306  35.037  51.457  0.00  0.00     0.006 A 
ENDBRANCH   7   9
ENDBRANCH   1   6
BRANCH   3  16
ATOM     16  S   UNL d   1      52.488  32.791  53.231  0.00  0.00    -0.059 SA
BRANCH  16  17
ATOM     17  C   UNL d   1      52.431  32.165  52.832  0.00  0.00     0.037 C 
BRANCH  17  18
ATOM     18  C   UNL d   1      52.743  31.467  53.118  0.00  0.00     0.007 A 
ATOM     19  C   UNL d   1      53.423  31.462  53.576  0.00  0.00     0.001 A 
ATOM     20  C   UNL d   1      53.739  30.754  53.866  0.00  0.00     0.007 A 
ATOM     21  C   UNL d   1      53.359  30.041  53.688  0.00  0.00     0.035 A 
ATOM     22  C   UNL d   1      52.660  30.039  53.217  0.00  0.00     0.007 A 
ATOM     23 BR   UNL d   1      53.723  29.152  54.029  0.00  0.00    -0.049 Br
ATOM     24  C   UNL d   1      52.371  30.772  52.943  0.00  0.00     0.001 A 
ENDBRANCH  17  18
ENDBRANCH  16  17
ENDBRANCH   3  16
TORSDOF 5
ENDMDL
MODEL 2
REMARK VINA RESULT:      -7.8      3.164      6.202
REMARK  5 active torsions:
REMARK  status: ('A' for Active; 'I' for Inactive)
REMARK    1  A    between atoms: N_3  and  C_1 
REMARK       I    between atoms: C_7  and  N_3 
REMARK    2  A    between atoms: S_9  and  C_4 
REMARK    3  A    between atoms: C_8  and  C_7 
REMARK    4  A    between atoms: C_13  and  S_9 
REMARK    5  A    between atoms: C_16  and  C_13 
ROOT
ATOM      1  C   UNL d   1      51.640  33.356  52.998  0.00  0.00     0.219 A 
ATOM      2  S   UNL d   1      50.808  33.567  53.035  0.00  0.00    -0.019 SA
ATOM      3  C   UNL d   1      50.719  34.278  52.544  0.00  0.00     0.165 A 
ATOM      4  N   UNL d   1      51.930  33.853  52.575  0.00  0.00    -0.120 NA
ATOM      5  N   UNL d   1      51.347  34.424  52.296  0.00  0.00    -0.133 NA
ENDROOT
BRANCH   1   6
ATOM      6  N   UNL d   1      52.037  32.641  53.421  0.00  0.00    -0.181 NA
ATOM      7  C   UNL d   1      52.406  32.014  52.971  0.00  0.00     0.281 C 
ATOM      8  O   UNL d   1      52.396  32.064  52.280  0.00  0.00    -0.265 OA
BRANCH   7   9
ATOM      9  C   UNL d   1      52.787  31.335  53.225  0.00  0.00     0.058 A 
ATOM     10  C   UNL d   1      52.457  30.598  53.066  0.00  0.00     0.006 A 
ATOM     11  C   UNL d   1      52.847  29.911  53.325  0.00  0.00     0.012 A 
ATOM     12  C   UNL d   1      53.564  29.980  53.740  0.00  0.00     0.058 A 
ATOM     13  C   UNL d   1      53.878  30.728  53.890  0.00  0.00     0.012 A 
ATOM     14 CL   UNL d   1      53.902  29.202  53.973  0.00  0.00    -0.082 Cl
ATOM     15  C   UNL d   1      53.488  31.402  53.631  0.00  0.00     0.006 A 
ENDBRANCH   7   9
ENDBRANCH   1   6
BRANCH   3  16
ATOM     16  S   UNL d   1      50.015  34.806  52.325  0.00  0.00    -0.059 SA
BRANCH  16  17
ATOM     17  C   UNL d   1      49.508  34.821  52.870  0.00  0.00     0.037 C 
BRANCH  17  18
ATOM     18  C   UNL d   1      48.816  35.244  52.774  0.00  0.00     0.007 A 
ATOM     19  C   UNL d   1      48.382  35.197  52.080  0.00  0.00     0.001 A 
ATOM     20  C   UNL d   1      47.681  35.626  51.983  0.00  0.00     0.007 A 
ATOM     21  C   UNL d   1      47.416  36.110  52.601  0.00  0.00     0.035 A 
ATOM     22  C   UNL d   1      47.858  36.162  53.317  0.00  0.00     0.007 A 
ATOM     23 BR   UNL d   1      46.558  36.650  52.514  0.00  0.00    -0.049 Br
ATOM     24  C   UNL d   1      48.559  35.715  53.378  0.00  0.00     0.001 A 
ENDBRANCH  17  18
ENDBRANCH  16  17
ENDBRANCH   3  16
TORSDOF 5
ENDMDL
MODEL 3
REMARK VINA RESULT:      -7.6      1.823      2.379
REMARK  5 active torsions:
REMARK  status: ('A' for Active; 'I' for Inactive)
REMARK    1  A    between atoms: N_3  and  C_1 
REMARK       I    between atoms: C_7  and  N_3 
REMARK    2  A    between atoms: S_9  and  C_4 
REMARK    3  A    between atoms: C_8  and  C_7 
REMARK    4  A    between atoms: C_13  and  S_9 
REMARK    5  A    between atoms: C_16  and  C_13 
ROOT
ATOM      1  C   UNL d   1      49.579  34.745  52.459  0.00  0.00     0.219 A 
ATOM      2  S   UNL d   1      50.135  34.530  53.079  0.00  0.00    -0.019 SA
ATOM      3  C   UNL d   1      50.816  34.170  52.675  0.00  0.00     0.165 A 
ATOM      4  N   UNL d   1      49.900  34.540  51.855  0.00  0.00    -0.120 NA
ATOM      5  N   UNL d   1      50.671  34.183  52.000  0.00  0.00    -0.133 NA
ENDROOT
BRANCH   1   6
ATOM      6  N   UNL d   1      48.760  35.148  52.583  0.00  0.00    -0.181 NA
ATOM      7  C   UNL d   1      48.229  35.271  51.925  0.00  0.00     0.281 C 
ATOM      8  O   UNL d   1      48.435  35.058  51.298  0.00  0.00    -0.265 OA
BRANCH   7   9
ATOM      9  C   UNL d   1      47.484  35.612  51.903  0.00  0.00     0.058 A 
ATOM     10  C   UNL d   1      46.921  35.331  51.372  0.00  0.00     0.006 A 
ATOM     11  C   UNL d   1      46.168  35.680  51.353  0.00  0.00     0.012 A 
ATOM     12  C   UNL d   1      45.994  36.307  51.871  0.00  0.00     0.058 A 
ATOM     13  C   UNL d   1      46.572  36.574  52.396  0.00  0.00     0.012 A 
ATOM     14 CL   UNL d   1      45.174  36.611  51.779  0.00  0.00    -0.082 Cl
ATOM     15  C   UNL d   1      47.314  36.225  52.409  0.00  0.00     0.006 A 
ENDBRANCH   7   9
ENDBRANCH   1   6
BRANCH   3  16
ATOM     16  S   UNL d   1      51.601  33.818  52.961  0.00  0.00    -0.059 SA
BRANCH  16  17
ATOM     17  C   UNL d   1      52.035  34.338  53.271  0.00  0.00     0.037 C 
BRANCH  17  18
ATOM     18  C   UNL d   1      52.698  34.120  53.692  0.00  0.00     0.007 A 
ATOM     19  C   UNL d   1      53.091  33.418  53.534  0.00  0.00     0.001 A 
ATOM     20  C   UNL d   1      53.764  33.197  53.962  0.00  0.00     0.007 A 
ATOM     21  C   UNL d   1      54.043  33.697  54.560  0.00  0.00     0.035 A 
ATOM     22  C   UNL d   1      53.644  34.420  54.728  0.00  0.00     0.007 A 
ATOM     23 BR   UNL d   1      54.868  33.455  55.105  0.00  0.00    -0.049 Br
ATOM     24  C   UNL d   1      52.969  34.609  54.276  0.00  0.00     0.001 A 
ENDBRANCH  17  18
ENDBRANCH  16  17
ENDBRANCH   3  16
TORSDOF 5
ENDMDL
MODEL 4
REMARK VINA RESULT:      -5.7     10.389     11.183
REMARK  5 active torsions:
REMARK  status: ('A' for Active; 'I' for Inactive)
REMARK    1  A    between atoms: N_3  and  C_1 
REMARK       I    between atoms: C_7  and  N_3 
REMARK    2  A    between atoms: S_9  and  C_4 
REMARK    3  A    between atoms: C_8  and  C_7 
REMARK    4  A    between atoms: C_13  and  S_9 
REMARK    5  A    between atoms: C_16  and  C_13 
ROOT
ATOM      1  C   UNL d   1      44.800  29.462  58.502  0.00  0.00     0.219 A 
ATOM      2  S   UNL d   1      44.321  29.549  59.211  0.00  0.00    -0.019 SA
ATOM      3  C   UNL d   1      44.656  30.225  59.643  0.00  0.00     0.165 A 
ATOM      4  N   UNL d   1      45.285  29.984  58.551  0.00  0.00    -0.120 NA
ATOM      5  N   UNL d   1      45.187  30.454  59.267  0.00  0.00    -0.133 NA
ENDROOT
BRANCH   1   6
ATOM      6  N   UNL d   1      44.684  28.826  57.846  0.00  0.00    -0.181 NA
ATOM      7  C   UNL d   1      44.934  28.018  57.970  0.00  0.00     0.281 C 
ATOM      8  O   UNL d   1      45.225  27.859  58.579  0.00  0.00    -0.265 OA
BRANCH   7   9
ATOM      9  C   UNL d   1      44.888  27.368  57.473  0.00  0.00     0.058 A 
ATOM     10  C   UNL d   1      44.479  27.426  56.762  0.00  0.00     0.006 A 
ATOM     11  C   UNL d   1      44.434  26.765  56.261  0.00  0.00     0.012 A 
ATOM     12  C   UNL d   1      44.805  26.055  56.486  0.00  0.00     0.058 A 
ATOM     13  C   UNL d   1      45.211  26.018  57.204  0.00  0.00     0.012 A 
ATOM     14 CL   UNL d   1      44.705  25.412  55.895  0.00  0.00    -0.082 Cl
ATOM     15  C   UNL d   1      45.250  26.675  57.693  0.00  0.00     0.006 A 
ENDBRANCH   7   9
ENDBRANCH   1   6
BRANCH   3  16
ATOM     16  S   UNL d   1      44.446  30.636  60.424  0.00  0.00    -0.059 SA
BRANCH  16  17
ATOM     17  C   UNL d   1      44.753  30.287  61.006  0.00  0.00     0.037 C 
BRANCH  17  18
ATOM     18  C   UNL d   1      44.649  30.579  61.760  0.00  0.00     0.007 A 
ATOM     19  C   UNL d   1      44.524  31.379  61.893  0.00  0.00     0.001 A 
ATOM     20  C   UNL d   1      44.419  31.675  62.659  0.00  0.00     0.007 A 
ATOM     21  C   UNL d   1      44.441  31.151  63.299  0.00  0.00     0.035 A 
ATOM     22  C   UNL d   1      44.569  30.329  63.170  0.00  0.00     0.007 A 
ATOM     23 BR   UNL d   1      44.315  31.484  64.254  0.00  0.00    -0.049 Br
ATOM     24  C   UNL d   1      44.671  30.067  62.385  0.00  0.00     0.001 A 
ENDBRANCH  17  18
ENDBRANCH  16  17
ENDBRANCH   3  16
TORSDOF 5
ENDMDL
MODEL 5
REMARK VINA RESULT:      -5.7      9.944     10.430
REMARK  5 active torsions:
REMARK  status: ('A' for Active; 'I' for Inactive)
REMARK    1  A    between atoms: N_3  and  C_1 
REMARK       I    between atoms: C_7  and  N_3 
REMARK    2  A    between atoms: S_9  and  C_4 
REMARK    3  A    between atoms: C_8  and  C_7 
REMARK    4  A    between atoms: C_13  and  S_9 
REMARK    5  A    between atoms: C_16  and  C_13 
ROOT
ATOM      1  C   UNL d   1      44.901  27.289  57.118  0.00  0.00     0.219 A 
ATOM      2  S   UNL d   1      44.459  26.556  57.045  0.00  0.00    -0.019 SA
ATOM      3  C   UNL d   1      44.953  26.026  56.564  0.00  0.00     0.165 A 
ATOM      4  N   UNL d   1      45.502  27.170  56.752  0.00  0.00    -0.120 NA
ATOM      5  N   UNL d   1      45.525  26.379  56.410  0.00  0.00    -0.133 NA
ENDROOT
BRANCH   1   6
ATOM      6  N   UNL d   1      44.629  28.041  57.574  0.00  0.00    -0.181 NA
ATOM      7  C   UNL d   1      45.114  28.378  58.193  0.00  0.00     0.281 C 
ATOM      8  O   UNL d   1      45.716  28.065  58.338  0.00  0.00    -0.265 OA
BRANCH   7   9
ATOM      9  C   UNL d   1      44.987  29.034  58.666  0.00  0.00     0.058 A 
ATOM     10  C   UNL d   1      45.240  29.775  58.413  0.00  0.00     0.006 A 
ATOM     11  C   UNL d   1      45.110  30.438  58.897  0.00  0.00     0.012 A 
ATOM     12  C   UNL d   1      44.725  30.342  59.628  0.00  0.00     0.058 A 
ATOM     13  C   UNL d   1      44.480  29.591  59.863  0.00  0.00     0.012 A 
ATOM     14 CL   UNL d   1      44.632  31.098  60.068  0.00  0.00    -0.082 Cl
ATOM     15  C   UNL d   1      44.612  28.941  59.381  0.00  0.00     0.006 A 
ENDBRANCH   7   9
ENDBRANCH   1   6
BRANCH   3  16
ATOM     16  S   UNL d   1      44.852  25.176  56.263  0.00  0.00    -0.059 SA
BRANCH  16  17
ATOM     17  C   UNL d   1      44.702  25.163  55.533  0.00  0.00     0.037 C 
BRANCH  17  18
ATOM     18  C   UNL d   1      44.681  24.453  55.133  0.00  0.00     0.007 A 
ATOM     19  C   UNL d   1      44.981  23.767  55.466  0.00  0.00     0.001 A 
ATOM     20  C   UNL d   1      44.959  23.046  55.060  0.00  0.00     0.007 A 
ATOM     21  C   UNL d   1      44.626  23.022  54.302  0.00  0.00     0.035 A 
ATOM     22  C   UNL d   1      44.315  23.723  53.953  0.00  0.00     0.007 A 
ATOM     23 BR   UNL d   1      44.583  22.151  53.775  0.00  0.00    -0.049 Br
ATOM     24  C   UNL d   1      44.355  24.431  54.393  0.00  0.00     0.001 A 
ENDBRANCH  17  18
ENDBRANCH  16  17
ENDBRANCH   3  16
TORSDOF 5
ENDMDL
MODEL 6
REMARK VINA RESULT:      -5.5     10.116     10.572
REMARK  5 active torsions:
REMARK  status: ('A' for Active; 'I' for Inactive)
REMARK    1  A    between atoms: N_3  and  C_1 
REMARK       I    between atoms: C_7  and  N_3 
REMARK    2  A    between atoms: S_9  and  C_4 
REMARK    3  A    between atoms: C_8  and  C_7 
REMARK    4  A    between atoms: C_13  and  S_9 
REMARK    5  A    between atoms: C_16  and  C_13 
ROOT
ATOM      1  C   UNL d   1      44.675  27.638  58.711  0.00  0.00     0.219 A 
ATOM      2  S   UNL d   1      44.316  26.918  58.409  0.00  0.00    -0.019 SA
ATOM      3  C   UNL d   1      44.742  26.262  58.787  0.00  0.00     0.165 A 
ATOM      4  N   UNL d   1      45.184  27.409  59.156  0.00  0.00    -0.120 NA
ATOM      5  N   UNL d   1      45.218  26.549  59.197  0.00  0.00    -0.133 NA
ENDROOT
BRANCH   1   6
ATOM      6  N   UNL d   1      44.432  28.499  58.488  0.00  0.00    -0.181 NA
ATOM      7  C   UNL d   1      44.964  29.005  58.050  0.00  0.00     0.281 C 
ATOM      8  O   UNL d   1      45.581  28.745  57.869  0.00  0.00    -0.265 OA
BRANCH   7   9
ATOM      9  C   UNL d   1      44.869  29.777  57.795  0.00  0.00     0.058 A 
ATOM     10  C   UNL d   1      44.720  29.929  57.000  0.00  0.00     0.006 A 
ATOM     11  C   UNL d   1      44.624  30.714  56.745  0.00  0.00     0.012 A 
ATOM     12  C   UNL d   1      44.679  31.333  57.297  0.00  0.00     0.058 A 
ATOM     13  C   UNL d   1      44.828  31.159  58.090  0.00  0.00     0.012 A 
ATOM     14 CL   UNL d   1      44.564  32.127  56.936  0.00  0.00    -0.082 Cl
ATOM     15  C   UNL d   1      44.922  30.382  58.334  0.00  0.00     0.006 A 
ENDBRANCH   7   9
ENDBRANCH   1   6
BRANCH   3  16
ATOM     16  S   UNL d   1      44.673  25.359  58.740  0.00  0.00    -0.059 SA
BRANCH  16  17
ATOM     17  C   UNL d   1      44.541  25.133  58.043  0.00  0.00     0.037 C 
BRANCH  17  18
ATOM     18  C   UNL d   1      44.492  24.337  57.872  0.00  0.00     0.007 A 
ATOM     19  C   UNL d   1      44.515  23.773  58.467  0.00  0.00     0.001 A 
ATOM     20  C   UNL d   1      44.465  22.964  58.294  0.00  0.00     0.007 A 
ATOM     21  C   UNL d   1      44.393  22.726  57.504  0.00  0.00     0.035 A 
ATOM     22  C   UNL d   1      44.370  23.301  56.889  0.00  0.00     0.007 A 
ATOM     23 BR   UNL d   1      44.330  21.740  57.258  0.00  0.00    -0.049 Br
ATOM     24  C   UNL d   1      44.422  24.105  57.102  0.00  0.00     0.001 A 
ENDBRANCH  17  18
ENDBRANCH  16  17
ENDBRANCH   3  16
TORSDOF 5
ENDMDL
MODEL 7
REMARK VINA RESULT:      -5.3     10.284     11.262
REMARK  5 active torsions:
REMARK  status: ('A' for Active; 'I' for Inactive)
REMARK    1  A    between atoms: N_3  and  C_1 
REMARK       I    between atoms: C_7  and  N_3 
REMARK    2  A    between atoms: S_9  and  C_4 
REMARK    3  A    between atoms: C_8  and  C_7 
REMARK    4  A    between atoms: C_13  and  S_9 
REMARK    5  A    between atoms: C_16  and  C_13 
ROOT
ATOM      1  C   UNL d   1      44.818  27.358  57.420  0.00  0.00     0.219 A 
ATOM      2  S   UNL d   1      44.556  27.779  58.121  0.00  0.00    -0.019 SA
ATOM      3  C   UNL d   1      45.025  28.511  58.151  0.00  0.00     0.165 A 
ATOM      4  N   UNL d   1      45.321  27.780  57.138  0.00  0.00    -0.120 NA
ATOM      5  N   UNL d   1      45.443  28.496  57.602  0.00  0.00    -0.133 NA
ENDROOT
BRANCH   1   6
ATOM      6  N   UNL d   1      44.500  26.546  57.125  0.00  0.00    -0.181 NA
ATOM      7  C   UNL d   1      45.003  26.010  56.688  0.00  0.00     0.281 C 
ATOM      8  O   UNL d   1      45.656  26.209  56.564  0.00  0.00    -0.265 OA
BRANCH   7   9
ATOM      9  C   UNL d   1      44.842  25.270  56.376  0.00  0.00     0.058 A 
ATOM     10  C   UNL d   1      44.619  24.655  56.876  0.00  0.00     0.006 A 
ATOM     11  C   UNL d   1      44.457  23.906  56.555  0.00  0.00     0.012 A 
ATOM     12  C   UNL d   1      44.524  23.790  55.734  0.00  0.00     0.058 A 
ATOM     13  C   UNL d   1      44.749  24.419  55.250  0.00  0.00     0.012 A 
ATOM     14 CL   UNL d   1      44.333  22.967  55.488  0.00  0.00    -0.082 Cl
ATOM     15  C   UNL d   1      44.907  25.156  55.574  0.00  0.00     0.006 A 
ENDBRANCH   7   9
ENDBRANCH   1   6
BRANCH   3  16
ATOM     16  S   UNL d   1      45.055  29.214  58.722  0.00  0.00    -0.059 SA
BRANCH  16  17
ATOM     17  C   UNL d   1      44.740  29.047  59.376  0.00  0.00     0.037 C 
BRANCH  17  18
ATOM     18  C   UNL d   1      44.644  29.625  59.944  0.00  0.00     0.007 A 
ATOM     19  C   UNL d   1      44.762  30.417  59.769  0.00  0.00     0.001 A 
ATOM     20  C   UNL d   1      44.665  31.003  60.346  0.00  0.00     0.007 A 
ATOM     21  C   UNL d   1      44.443  30.780  61.112  0.00  0.00     0.035 A 
ATOM     22  C   UNL d   1      44.320  29.968  61.298  0.00  0.00     0.007 A 
ATOM     23 BR   UNL d   1      44.315  31.476  61.844  0.00  0.00    -0.049 Br
ATOM     24  C   UNL d   1      44.428  29.406  60.691  0.00  0.00     0.001 A 
ENDBRANCH  17  18
ENDBRANCH  16  17
ENDBRANCH   3  16
TORSDOF 5
ENDMDL
MODEL 8
REMARK VINA RESULT:      -5.1     10.270     10.739
REMARK  5 active torsions:
REMARK  status: ('A' for Active; 'I' for Inactive)
REMARK    1  A    between atoms: N_3  and  C_1 
REMARK       I    between atoms: C_7  and  N_3 
REMARK    2  A    between atoms: S_9  and  C_4 
REMARK    3  A    between atoms: C_8  and  C_7 
REMARK    4  A    between atoms: C_13  and  S_9 
REMARK    5  A    between atoms: C_16  and  C_13 
ROOT
ATOM      1  C   UNL d   1      44.769  28.258  58.782  0.00  0.00     0.219 A 
ATOM      2  S   UNL d   1      45.069  27.477  58.589  0.00  0.00    -0.019 SA
ATOM      3  C   UNL d   1      44.916  27.365  57.740  0.00  0.00     0.165 A 
ATOM      4  N   UNL d   1      44.512  28.507  58.164  0.00  0.00    -0.120 NA
ATOM      5  N   UNL d   1      44.609  27.942  57.520  0.00  0.00    -0.133 NA
ENDROOT
BRANCH   1   6
ATOM      6  N   UNL d   1      44.791  28.657  59.612  0.00  0.00    -0.181 NA
ATOM      7  C   UNL d   1      44.536  29.466  59.717  0.00  0.00     0.281 C 
ATOM      8  O   UNL d   1      44.314  29.810  59.157  0.00  0.00    -0.265 OA
BRANCH   7   9
ATOM      9  C   UNL d   1      44.507  29.928  60.393  0.00  0.00     0.058 A 
ATOM     10  C   UNL d   1      44.633  30.740  60.339  0.00  0.00     0.006 A 
ATOM     11  C   UNL d   1      44.602  31.205  61.026  0.00  0.00     0.012 A 
ATOM     12  C   UNL d   1      44.445  30.842  61.758  0.00  0.00     0.058 A 
ATOM     13  C   UNL d   1      44.322  30.027  61.791  0.00  0.00     0.012 A 
ATOM     14 CL   UNL d   1      44.432  31.413  62.428  0.00  0.00    -0.082 Cl
ATOM     15  C   UNL d   1      44.353  29.575  61.108  0.00  0.00     0.006 A 
ENDBRANCH   7   9
ENDBRANCH   1   6
BRANCH   3  16
ATOM     16  S   UNL d   1      45.076  26.689  57.158  0.00  0.00    -0.059 SA
BRANCH  16  17
ATOM     17  C   UNL d   1      44.471  26.266  57.059  0.00  0.00     0.037 C 
BRANCH  17  18
ATOM     18  C   UNL d   1      44.509  25.599  56.591  0.00  0.00     0.007 A 
ATOM     19  C   UNL d   1      44.530  25.653  55.774  0.00  0.00     0.001 A 
ATOM     20  C   UNL d   1      44.569  24.976  55.299  0.00  0.00     0.007 A 
ATOM     21  C   UNL d   1      44.587  24.232  55.661  0.00  0.00     0.035 A 
ATOM     22  C   UNL d   1      44.566  24.169  56.501  0.00  0.00     0.007 A 
ATOM     23 BR   UNL d   1      44.634  23.379  55.107  0.00  0.00    -0.049 Br
ATOM     24  C   UNL d   1      44.527  24.873  56.946  0.00  0.00     0.001 A 
ENDBRANCH  17  18
ENDBRANCH  16  17
ENDBRANCH   3  16
TORSDOF 5
ENDMDL
