MODEL 1
REMARK VINA RESULT:      -8.1      0.000      0.000
REMARK  7 active torsions:
REMARK  status: ('A' for Active; 'I' for Inactive)
REMARK    1  A    between atoms: C_10  and  N_3 
REMARK    2  A    between atoms: C_12  and  C_10 
REMARK    3  A    between atoms: C_16  and  N_11 
REMARK    4  A    between atoms: O_29  and  C_15 
REMARK    5  A    between atoms: C_27  and  C_16 
REMARK    6  A    between atoms: O_30  and  C_17 
REMARK    7  A    between atoms: C_23  and  C_27 
ROOT
ATOM      1  C   UNL d   1      48.713  35.637  53.167  0.00  0.00     0.191 A 
ATOM      2  C   UNL d   1      48.602  35.265  52.426  0.00  0.00     0.173 A 
ATOM      3  N   UNL d   1      47.283  35.831  52.340  0.00  0.00    -0.224 N 
ATOM      4  N   UNL d   1      49.465  35.446  53.449  0.00  0.00    -0.042 NA
ATOM      5  C   UNL d   1      49.990  34.886  52.895  0.00  0.00     0.722 A 
ATOM      6  N   UNL d   1      48.118  36.108  53.508  0.00  0.00    -0.240 N 
ATOM      7  C   UNL d   1      47.395  36.202  53.082  0.00  0.00     0.343 A 
ATOM      8  C   UNL d   1      47.895  35.365  52.025  0.00  0.00     0.288 A 
ATOM      9  N   UNL d   1      49.287  34.852  52.262  0.00  0.00    -0.132 N 
ATOM     10  N   UNL d   1      50.674  34.466  52.719  0.00  0.00    -0.139 N 
ATOM     11  O   UNL d   1      46.787  36.679  53.422  0.00  0.00    -0.245 OA
ATOM     12  O   UNL d   1      47.784  34.993  51.283  0.00  0.00    -0.265 OA
ATOM     13  C   UNL d   1      49.414  34.406  51.584  0.00  0.00     0.100 A 
ATOM     14  C   UNL d   1      48.229  36.480  54.251  0.00  0.00     0.105 C 
ATOM     15  C   UNL d   1      50.126  33.989  51.435  0.00  0.00     0.039 A 
ATOM     16  C   UNL d   1      50.771  34.019  52.016  0.00  0.00     0.100 A 
ENDROOT
BRANCH  10  17
ATOM     17  C   UNL d   1      51.427  34.249  52.952  0.00  0.00     0.098 C 
BRANCH  17  18
ATOM     18  C   UNL d   1      51.592  34.150  53.747  0.00  0.00     0.020 C 
BRANCH  18  19
ATOM     19  C   UNL d   1      52.357  34.012  53.985  0.00  0.00     0.004 A 
ATOM     20  C   UNL d   1      52.650  33.251  53.981  0.00  0.00     0.026 A 
ATOM     21  C   UNL d   1      53.418  33.107  54.220  0.00  0.00     0.116 A 
ATOM     22  C   UNL d   1      53.892  33.734  54.463  0.00  0.00     0.116 A 
ATOM     23  C   UNL d   1      53.599  34.491  54.466  0.00  0.00     0.026 A 
ATOM     24  C   UNL d   1      52.825  34.633  54.225  0.00  0.00     0.002 A 
BRANCH  21  25
ATOM     25  O   UNL d   1      53.713  32.343  54.216  0.00  0.00    -0.326 OA
ATOM     26  C   UNL d   1      53.483  31.819  53.646  0.00  0.00     0.181 C 
ENDBRANCH  21  25
BRANCH  22  27
ATOM     27  O   UNL d   1      54.610  33.394  54.658  0.00  0.00    -0.326 OA
ATOM     28  C   UNL d   1      55.059  33.704  55.260  0.00  0.00     0.181 C 
ENDBRANCH  22  27
ENDBRANCH  18  19
ENDBRANCH  17  18
ENDBRANCH  10  17
BRANCH   3  29
ATOM     29  C   UNL d   1      46.799  35.675  51.672  0.00  0.00     0.090 C 
BRANCH  29  30
ATOM     30  C   UNL d   1      45.971  35.715  51.747  0.00  0.00     0.045 A 
ATOM     31  C   UNL d   1      45.539  36.236  51.252  0.00  0.00     0.141 A 
ATOM     32  F   UNL d   1      45.936  36.709  50.691  0.00  0.00    -0.204 F 
ATOM     33  C   UNL d   1      44.706  36.279  51.324  0.00  0.00     0.030 A 
ATOM     34  C   UNL d   1      44.314  35.805  51.885  0.00  0.00     0.002 A 
ATOM     35  C   UNL d   1      44.750  35.287  52.376  0.00  0.00     0.000 A 
ATOM     36  C   UNL d   1      45.579  35.247  52.301  0.00  0.00     0.004 A 
ENDBRANCH  29  30
ENDBRANCH   3  29
TORSDOF 7
ENDMDL
MODEL 2
REMARK VINA RESULT:      -5.9      2.120      6.701
REMARK  7 active torsions:
REMARK  status: ('A' for Active; 'I' for Inactive)
REMARK    1  A    between atoms: C_10  and  N_3 
REMARK    2  A    between atoms: C_12  and  C_10 
REMARK    3  A    between atoms: C_16  and  N_11 
REMARK    4  A    between atoms: O_29  and  C_15 
REMARK    5  A    between atoms: C_27  and  C_16 
REMARK    6  A    between atoms: O_30  and  C_17 
REMARK    7  A    between atoms: C_23  and  C_27 
ROOT
ATOM      1  C   UNL d   1      51.450  34.769  53.585  0.00  0.00     0.191 A 
ATOM      2  C   UNL d   1      51.483  34.243  52.935  0.00  0.00     0.173 A 
ATOM      3  N   UNL d   1      52.821  33.872  53.305  0.00  0.00    -0.224 N 
ATOM      4  N   UNL d   1      50.711  35.138  53.589  0.00  0.00    -0.042 NA
ATOM      5  C   UNL d   1      50.115  34.889  52.897  0.00  0.00     0.722 A 
ATOM      6  N   UNL d   1      52.094  34.857  54.103  0.00  0.00    -0.240 N 
ATOM      7  C   UNL d   1      52.788  34.398  53.955  0.00  0.00     0.343 A 
ATOM      8  C   UNL d   1      52.161  33.804  52.804  0.00  0.00     0.288 A 
ATOM      9  N   UNL d   1      50.764  34.295  52.550  0.00  0.00    -0.132 N 
ATOM     10  N   UNL d   1      49.396  34.933  52.501  0.00  0.00    -0.139 N 
ATOM     11  O   UNL d   1      53.446  34.483  54.476  0.00  0.00    -0.245 OA
ATOM     12  O   UNL d   1      52.195  33.278  52.154  0.00  0.00    -0.265 OA
ATOM     13  C   UNL d   1      50.562  33.868  51.878  0.00  0.00     0.100 A 
ATOM     14  C   UNL d   1      52.061  35.385  54.754  0.00  0.00     0.105 C 
ATOM     15  C   UNL d   1      49.817  33.937  51.497  0.00  0.00     0.039 A 
ATOM     16  C   UNL d   1      49.221  34.482  51.816  0.00  0.00     0.100 A 
ENDROOT
BRANCH  10  17
ATOM     17  C   UNL d   1      48.652  35.269  52.461  0.00  0.00     0.098 C 
BRANCH  17  18
ATOM     18  C   UNL d   1      48.467  35.901  52.945  0.00  0.00     0.020 C 
BRANCH  18  19
ATOM     19  C   UNL d   1      47.688  36.105  53.060  0.00  0.00     0.004 A 
ATOM     20  C   UNL d   1      47.398  36.179  53.819  0.00  0.00     0.026 A 
ATOM     21  C   UNL d   1      46.617  36.384  53.940  0.00  0.00     0.116 A 
ATOM     22  C   UNL d   1      46.126  36.515  53.292  0.00  0.00     0.116 A 
ATOM     23  C   UNL d   1      46.417  36.441  52.537  0.00  0.00     0.026 A 
ATOM     24  C   UNL d   1      47.204  36.234  52.419  0.00  0.00     0.002 A 
BRANCH  21  25
ATOM     25  O   UNL d   1      46.324  36.459  54.701  0.00  0.00    -0.326 OA
ATOM     26  C   UNL d   1      46.825  36.434  55.335  0.00  0.00     0.181 C 
ENDBRANCH  21  25
BRANCH  22  27
ATOM     27  O   UNL d   1      45.397  36.705  53.612  0.00  0.00    -0.326 OA
ATOM     28  C   UNL d   1      44.733  36.709  53.144  0.00  0.00     0.181 C 
ENDBRANCH  22  27
ENDBRANCH  18  19
ENDBRANCH  17  18
ENDBRANCH  10  17
BRANCH   3  29
ATOM     29  C   UNL d   1      53.244  33.306  52.850  0.00  0.00     0.090 C 
BRANCH  29  30
ATOM     30  C   UNL d   1      53.597  32.655  53.230  0.00  0.00     0.045 A 
ATOM     31  C   UNL d   1      54.432  32.587  53.237  0.00  0.00     0.141 A 
ATOM     32  F   UNL d   1      54.905  33.167  52.866  0.00  0.00    -0.204 F 
ATOM     33  C   UNL d   1      54.792  31.934  53.618  0.00  0.00     0.030 A 
ATOM     34  C   UNL d   1      54.317  31.358  53.987  0.00  0.00     0.002 A 
ATOM     35  C   UNL d   1      53.484  31.431  53.977  0.00  0.00     0.000 A 
ATOM     36  C   UNL d   1      53.130  32.082  53.597  0.00  0.00     0.004 A 
ENDBRANCH  29  30
ENDBRANCH   3  29
TORSDOF 7
ENDMDL
