MODEL 1
REMARK VINA RESULT:      -2.3      0.000      0.000
REMARK  4 active torsions:
REMARK  status: ('A' for Active; 'I' for Inactive)
REMARK    1  A    between atoms: C_10  and  C_1 
REMARK    2  A    between atoms: C_18  and  N_6 
REMARK       I    between atoms: N_13  and  C_10 
REMARK    3  A    between atoms: C_12  and  C_20 
REMARK    4  A    between atoms: C_20  and  N_13 
ROOT
ATOM      1  C   UNL d   1      33.224  21.081 -22.050  0.00  0.00     0.077 A 
ATOM      2  C   UNL d   1      33.225  22.431 -21.553  0.00  0.00     0.121 A 
ATOM      3  C   UNL d   1      33.227  21.614 -21.419  0.00  0.00     0.028 A 
ATOM      4  C   UNL d   1      33.220  22.719 -22.335  0.00  0.00     0.281 A 
ATOM      5  N   UNL d   1      33.229  22.803 -20.822  0.00  0.00    -0.300 N 
ATOM      6  N   UNL d   1      33.217  22.197 -22.972  0.00  0.00    -0.272 N 
ATOM      7  C   UNL d   1      33.219  21.367 -22.829  0.00  0.00     0.088 A 
ATOM      8  C   UNL d   1      33.231  21.497 -20.596  0.00  0.00     0.018 A 
ATOM      9  C   UNL d   1      33.232  22.241 -20.241  0.00  0.00     0.064 A 
ATOM     10  O   UNL d   1      33.219  23.545 -22.471  0.00  0.00    -0.265 OA
ATOM     11  C   UNL d   1      33.228  23.630 -20.718  0.00  0.00     0.100 C 
ATOM     12  C   UNL d   1      33.235  20.820 -20.142  0.00  0.00     0.002 A 
ATOM     13  C   UNL d   1      33.237  22.287 -19.417  0.00  0.00     0.018 A 
ATOM     14  C   UNL d   1      33.239  20.877 -19.318  0.00  0.00     0.000 A 
ATOM     15  C   UNL d   1      33.240  21.603 -18.956  0.00  0.00     0.002 A 
ENDROOT
BRANCH   1  16
ATOM     16  C   UNL d   1      33.225  20.274 -21.917  0.00  0.00     0.281 C 
ATOM     17  N   UNL d   1      33.219  19.749 -22.552  0.00  0.00    -0.204 NA
ATOM     18  O   UNL d   1      33.234  19.981 -21.141  0.00  0.00    -0.265 OA
BRANCH  17  19
ATOM     19  C   UNL d   1      33.221  18.937 -22.418  0.00  0.00     0.127 C 
BRANCH  19  20
ATOM     20  C   UNL d   1      32.973  18.423 -23.016  0.00  0.00     0.119 A 
ATOM     21  O   UNL d   1      32.449  17.793 -22.933  0.00  0.00    -0.306 OA
ATOM     22  C   UNL d   1      32.364  17.436 -23.675  0.00  0.00     0.100 A 
ATOM     23  C   UNL d   1      31.894  16.787 -23.844  0.00  0.00     0.027 C 
ATOM     24  C   UNL d   1      32.826  17.836 -24.208  0.00  0.00     0.027 A 
ATOM     25  C   UNL d   1      33.206  18.449 -23.809  0.00  0.00     0.028 A 
ENDBRANCH  19  20
ENDBRANCH  17  19
ENDBRANCH   1  16
BRANCH   6  26
ATOM     26  C   UNL d   1      33.213  22.487 -23.743  0.00  0.00     0.067 A 
ATOM     27  C   UNL d   1      33.241  22.029 -24.427  0.00  0.00     0.018 A 
ATOM     28  C   UNL d   1      33.225  22.539 -25.065  0.00  0.00     0.002 A 
ATOM     29  C   UNL d   1      33.187  23.308 -24.776  0.00  0.00     0.002 A 
ATOM     30  C   UNL d   1      33.180  23.272 -23.954  0.00  0.00     0.018 A 
ENDBRANCH   6  26
TORSDOF 4
ENDMDL
MODEL 2
REMARK VINA RESULT:      -1.5      2.355      5.632
REMARK  4 active torsions:
REMARK  status: ('A' for Active; 'I' for Inactive)
REMARK    1  A    between atoms: C_10  and  C_1 
REMARK    2  A    between atoms: C_18  and  N_6 
REMARK       I    between atoms: N_13  and  C_10 
REMARK    3  A    between atoms: C_12  and  C_20 
REMARK    4  A    between atoms: C_20  and  N_13 
ROOT
ATOM      1  C   UNL d   1      31.392  17.958 -24.194  0.00  0.00     0.077 A 
ATOM      2  C   UNL d   1      30.660  16.792 -23.780  0.00  0.00     0.121 A 
ATOM      3  C   UNL d   1      31.373  17.207 -23.851  0.00  0.00     0.028 A 
ATOM      4  C   UNL d   1      29.954  17.136 -24.057  0.00  0.00     0.281 A 
ATOM      5  N   UNL d   1      30.825  16.073 -23.421  0.00  0.00    -0.300 N 
ATOM      6  N   UNL d   1      29.961  17.884 -24.401  0.00  0.00    -0.272 N 
ATOM      7  C   UNL d   1      30.689  18.302 -24.471  0.00  0.00     0.088 A 
ATOM      8  C   UNL d   1      31.972  16.729 -23.530  0.00  0.00     0.018 A 
ATOM      9  C   UNL d   1      31.618  16.032 -23.268  0.00  0.00     0.064 A 
ATOM     10  O   UNL d   1      29.233  16.716 -23.985  0.00  0.00    -0.265 OA
ATOM     11  C   UNL d   1      30.253  15.492 -23.249  0.00  0.00     0.100 C 
ATOM     12  C   UNL d   1      32.775  16.844 -23.448  0.00  0.00     0.002 A 
ATOM     13  C   UNL d   1      32.094  15.453 -22.921  0.00  0.00     0.018 A 
ATOM     14  C   UNL d   1      33.241  16.258 -23.100  0.00  0.00     0.000 A 
ATOM     15  C   UNL d   1      32.906  15.568 -22.838  0.00  0.00     0.002 A 
ENDROOT
BRANCH   1  16
ATOM     16  C   UNL d   1      32.097  18.368 -24.264  0.00  0.00     0.281 C 
ATOM     17  N   UNL d   1      32.279  18.973 -23.735  0.00  0.00    -0.204 NA
ATOM     18  O   UNL d   1      32.630  18.176 -24.870  0.00  0.00    -0.265 OA
BRANCH  17  19
ATOM     19  C   UNL d   1      32.988  19.386 -23.806  0.00  0.00     0.127 C 
BRANCH  19  20
ATOM     20  C   UNL d   1      33.059  20.137 -23.469  0.00  0.00     0.119 A 
ATOM     21  O   UNL d   1      33.057  20.314 -22.665  0.00  0.00    -0.306 OA
ATOM     22  C   UNL d   1      33.142  21.133 -22.586  0.00  0.00     0.100 A 
ATOM     23  C   UNL d   1      33.168  21.547 -21.880  0.00  0.00     0.027 C 
ATOM     24  C   UNL d   1      33.197  21.459 -23.326  0.00  0.00     0.027 A 
ATOM     25  C   UNL d   1      33.147  20.849 -23.880  0.00  0.00     0.028 A 
ENDBRANCH  19  20
ENDBRANCH  17  19
ENDBRANCH   1  16
BRANCH   6  26
ATOM     26  C   UNL d   1      29.261  18.220 -24.673  0.00  0.00     0.067 A 
ATOM     27  C   UNL d   1      29.146  19.018 -24.845  0.00  0.00     0.018 A 
ATOM     28  C   UNL d   1      28.375  19.107 -25.097  0.00  0.00     0.002 A 
ATOM     29  C   UNL d   1      28.014  18.368 -25.082  0.00  0.00     0.002 A 
ATOM     30  C   UNL d   1      28.568  17.819 -24.818  0.00  0.00     0.018 A 
ENDBRANCH   6  26
TORSDOF 4
ENDMDL
MODEL 3
REMARK VINA RESULT:      -0.3      0.927      3.170
REMARK  4 active torsions:
REMARK  status: ('A' for Active; 'I' for Inactive)
REMARK    1  A    between atoms: C_10  and  C_1 
REMARK    2  A    between atoms: C_18  and  N_6 
REMARK       I    between atoms: N_13  and  C_10 
REMARK    3  A    between atoms: C_12  and  C_20 
REMARK    4  A    between atoms: C_20  and  N_13 
ROOT
ATOM      1  C   UNL d   1      33.180  20.831 -22.771  0.00  0.00     0.077 A 
ATOM      2  C   UNL d   1      33.114  22.212 -22.376  0.00  0.00     0.121 A 
ATOM      3  C   UNL d   1      33.136  21.632 -22.966  0.00  0.00     0.028 A 
ATOM      4  C   UNL d   1      33.137  21.985 -21.575  0.00  0.00     0.281 A 
ATOM      5  N   UNL d   1      33.072  22.943 -22.747  0.00  0.00    -0.300 N 
ATOM      6  N   UNL d   1      33.181  21.189 -21.368  0.00  0.00    -0.272 N 
ATOM      7  C   UNL d   1      33.202  20.604 -21.972  0.00  0.00     0.088 A 
ATOM      8  C   UNL d   1      33.106  22.022 -23.700  0.00  0.00     0.018 A 
ATOM      9  C   UNL d   1      33.067  22.831 -23.547  0.00  0.00     0.064 A 
ATOM     10  O   UNL d   1      33.115  22.573 -20.978  0.00  0.00    -0.265 OA
ATOM     11  C   UNL d   1      33.040  23.672 -22.344  0.00  0.00     0.100 C 
ATOM     12  C   UNL d   1      33.110  21.742 -24.466  0.00  0.00     0.002 A 
ATOM     13  C   UNL d   1      33.031  23.353 -24.187  0.00  0.00     0.018 A 
ATOM     14  C   UNL d   1      33.074  22.273 -25.097  0.00  0.00     0.000 A 
ATOM     15  C   UNL d   1      33.035  23.071 -24.962  0.00  0.00     0.002 A 
ENDROOT
BRANCH   1  16
ATOM     16  C   UNL d   1      33.201  20.258 -23.354  0.00  0.00     0.281 C 
ATOM     17  N   UNL d   1      33.218  19.460 -23.150  0.00  0.00    -0.204 NA
ATOM     18  O   UNL d   1      33.206  20.479 -24.153  0.00  0.00    -0.265 OA
BRANCH  17  19
ATOM     19  C   UNL d   1      33.239  18.883 -23.737  0.00  0.00     0.127 C 
BRANCH  19  20
ATOM     20  C   UNL d   1      32.808  18.185 -23.640  0.00  0.00     0.119 A 
ATOM     21  O   UNL d   1      32.133  17.965 -24.058  0.00  0.00    -0.306 OA
ATOM     22  C   UNL d   1      31.892  17.225 -23.776  0.00  0.00     0.100 A 
ATOM     23  C   UNL d   1      31.242  16.801 -24.038  0.00  0.00     0.027 C 
ATOM     24  C   UNL d   1      32.406  16.989 -23.195  0.00  0.00     0.027 A 
ATOM     25  C   UNL d   1      32.977  17.577 -23.104  0.00  0.00     0.028 A 
ENDBRANCH  19  20
ENDBRANCH  17  19
ENDBRANCH   1  16
BRANCH   6  26
ATOM     26  C   UNL d   1      33.203  20.970 -20.575  0.00  0.00     0.067 A 
ATOM     27  C   UNL d   1      33.216  20.197 -20.291  0.00  0.00     0.018 A 
ATOM     28  C   UNL d   1      33.237  20.234 -19.476  0.00  0.00     0.002 A 
ATOM     29  C   UNL d   1      33.236  21.027 -19.256  0.00  0.00     0.002 A 
ATOM     30  C   UNL d   1      33.215  21.481 -19.942  0.00  0.00     0.018 A 
ENDBRANCH   6  26
TORSDOF 4
ENDMDL
MODEL 4
REMARK VINA RESULT:       0.5      1.283      4.725
REMARK  4 active torsions:
REMARK  status: ('A' for Active; 'I' for Inactive)
REMARK    1  A    between atoms: C_10  and  C_1 
REMARK    2  A    between atoms: C_18  and  N_6 
REMARK       I    between atoms: N_13  and  C_10 
REMARK    3  A    between atoms: C_12  and  C_20 
REMARK    4  A    between atoms: C_20  and  N_13 
ROOT
ATOM      1  C   UNL d   1      32.807  21.625 -22.358  0.00  0.00     0.077 A 
ATOM      2  C   UNL d   1      33.015  21.046 -23.657  0.00  0.00     0.121 A 
ATOM      3  C   UNL d   1      32.871  21.705 -23.177  0.00  0.00     0.028 A 
ATOM      4  C   UNL d   1      33.095  20.293 -23.310  0.00  0.00     0.281 A 
ATOM      5  N   UNL d   1      33.048  21.306 -24.435  0.00  0.00    -0.300 N 
ATOM      6  N   UNL d   1      33.033  20.201 -22.493  0.00  0.00    -0.272 N 
ATOM      7  C   UNL d   1      32.887  20.875 -22.010  0.00  0.00     0.088 A 
ATOM      8  C   UNL d   1      32.818  22.368 -23.674  0.00  0.00     0.018 A 
ATOM      9  C   UNL d   1      32.929  22.106 -24.448  0.00  0.00     0.064 A 
ATOM     10  O   UNL d   1      33.241  19.626 -23.796  0.00  0.00    -0.265 OA
ATOM     11  C   UNL d   1      33.184  20.810 -25.090  0.00  0.00     0.100 C 
ATOM     12  C   UNL d   1      32.685  23.157 -23.518  0.00  0.00     0.002 A 
ATOM     13  C   UNL d   1      32.903  22.659 -25.061  0.00  0.00     0.018 A 
ATOM     14  C   UNL d   1      32.661  23.701 -24.138  0.00  0.00     0.000 A 
ATOM     15  C   UNL d   1      32.769  23.457 -24.904  0.00  0.00     0.002 A 
ENDROOT
BRANCH   1  16
ATOM     16  C   UNL d   1      32.665  22.276 -21.883  0.00  0.00     0.281 C 
ATOM     17  N   UNL d   1      33.240  22.538 -21.355  0.00  0.00    -0.204 NA
ATOM     18  O   UNL d   1      31.940  22.675 -21.933  0.00  0.00    -0.265 OA
BRANCH  17  19
ATOM     19  C   UNL d   1      33.097  23.193 -20.877  0.00  0.00     0.127 C 
BRANCH  19  20
ATOM     20  C   UNL d   1      33.051  23.099 -20.057  0.00  0.00     0.119 A 
ATOM     21  O   UNL d   1      33.113  22.390 -19.642  0.00  0.00    -0.306 OA
ATOM     22  C   UNL d   1      33.034  22.563 -18.837  0.00  0.00     0.100 A 
ATOM     23  C   UNL d   1      33.060  22.018 -18.225  0.00  0.00     0.027 C 
ATOM     24  C   UNL d   1      32.925  23.361 -18.752  0.00  0.00     0.027 A 
ATOM     25  C   UNL d   1      32.934  23.702 -19.504  0.00  0.00     0.028 A 
ENDBRANCH  19  20
ENDBRANCH  17  19
ENDBRANCH   1  16
BRANCH   6  26
ATOM     26  C   UNL d   1      33.114  19.456 -22.155  0.00  0.00     0.067 A 
ATOM     27  C   UNL d   1      33.156  19.298 -21.347  0.00  0.00     0.018 A 
ATOM     28  C   UNL d   1      33.234  18.490 -21.258  0.00  0.00     0.002 A 
ATOM     29  C   UNL d   1      33.239  18.150 -22.007  0.00  0.00     0.002 A 
ATOM     30  C   UNL d   1      33.164  18.753 -22.562  0.00  0.00     0.018 A 
ENDBRANCH   6  26
TORSDOF 4
ENDMDL
