MODEL 1
REMARK VINA RESULT:      71.4      0.000      0.000
REMARK  5 active torsions:
REMARK  status: ('A' for Active; 'I' for Inactive)
REMARK    1  A    between atoms: C_9  and  C_2 
REMARK    2  A    between atoms: O_8  and  C_4 
REMARK    3  A    between atoms: C_14  and  O_8 
REMARK    4  A    between atoms: N_11  and  C_9 
REMARK    5  A    between atoms: O_20  and  C_18 
ROOT
ATOM      1  C   UNL d   1     -48.112  30.190  34.905  0.00  0.00     0.108 A 
ATOM      2  C   UNL d   1     -47.922  30.993  35.002  0.00  0.00     0.079 A 
ATOM      3  C   UNL d   1     -47.725  29.612  35.364  0.00  0.00     0.064 A 
ATOM      4  C   UNL d   1     -48.492  28.585  34.713  0.00  0.00     0.163 A 
ATOM      5  C   UNL d   1     -47.914  28.820  35.267  0.00  0.00     0.222 A 
ATOM      6  O   UNL d   1     -48.688  29.971  34.350  0.00  0.00    -0.303 OA
ATOM      7  C   UNL d   1     -48.880  29.166  34.253  0.00  0.00     0.150 A 
ATOM      8  C   UNL d   1     -47.151  29.854  35.914  0.00  0.00     0.009 A 
ATOM      9  C   UNL d   1     -47.352  31.220  35.550  0.00  0.00     0.199 A 
ATOM     10  O   UNL d   1     -47.533  28.245  35.720  0.00  0.00    -0.284 OA
ATOM     11  C   UNL d   1     -46.966  30.651  36.006  0.00  0.00     0.042 A 
ATOM     12  O   UNL d   1     -47.166  32.017  35.643  0.00  0.00    -0.286 OA
ENDROOT
BRANCH   4  13
ATOM     13  O   UNL d   1     -48.678  27.791  34.619  0.00  0.00    -0.302 OA
BRANCH  13  14
ATOM     14  C   UNL d   1     -49.350  27.572  34.195  0.00  0.00     0.102 A 
ATOM     15  C   UNL d   1     -49.453  26.788  33.965  0.00  0.00     0.049 A 
ATOM     16  C   UNL d   1     -50.125  26.570  33.541  0.00  0.00     0.096 A 
ATOM     17  C   UNL d   1     -50.693  27.136  33.348  0.00  0.00     0.024 A 
ATOM     18  C   UNL d   1     -50.583  27.928  33.583  0.00  0.00     0.004 A 
ATOM     19  C   UNL d   1     -49.913  28.139  34.004  0.00  0.00     0.025 A 
BRANCH  16  20
ATOM     20  O   UNL d   1     -50.227  25.786  33.312  0.00  0.00    -0.328 OA
ATOM     21  C   UNL d   1     -50.939  25.403  33.469  0.00  0.00     0.181 C 
ENDBRANCH  16  20
ENDBRANCH  13  14
ENDBRANCH   4  13
BRANCH   2  22
ATOM     22  C   UNL d   1     -48.303  31.557  34.550  0.00  0.00     0.086 C 
BRANCH  22  23
ATOM     23  N   UNL d   1     -47.862  32.120  34.136  0.00  0.00    -0.299 N 
ATOM     24  C   UNL d   1     -48.186  32.861  33.987  0.00  0.00     0.107 A 
ATOM     25  C   UNL d   1     -47.741  33.423  33.571  0.00  0.00     0.142 A 
ATOM     26  O   UNL d   1     -46.981  33.238  33.309  0.00  0.00    -0.300 OA
ATOM     27  C   UNL d   1     -46.661  32.492  33.461  0.00  0.00     0.142 A 
ATOM     28  C   UNL d   1     -47.103  31.932  33.875  0.00  0.00     0.107 A 
ENDBRANCH  22  23
ENDBRANCH   2  22
TORSDOF 5
ENDMDL
