MODEL 1
REMARK VINA RESULT:      42.0      0.000      0.000
REMARK  5 active torsions:
REMARK  status: ('A' for Active; 'I' for Inactive)
REMARK    1  A    between atoms: O_8  and  S_1 
REMARK    2  A    between atoms: C_13  and  S_1 
REMARK    3  A    between atoms: C_7  and  C_2 
REMARK    4  A    between atoms: C_18  and  C_7 
REMARK    5  A    between atoms: C_14  and  O_8 
ROOT
ATOM      1  C   UNL d   1      13.607  15.042  -4.315  0.00  0.00     0.139 A 
ATOM      2  C   UNL d   1      13.134  13.808  -4.456  0.00  0.00     0.064 A 
ATOM      3  C   UNL d   1      13.152  14.553  -4.801  0.00  0.00     0.220 A 
ATOM      4  C   UNL d   1      13.574  13.829  -3.758  0.00  0.00     0.105 A 
ATOM      5  O   UNL d   1      13.868  14.596  -3.672  0.00  0.00    -0.304 OA
ATOM      6  C   UNL d   1      13.645  13.156  -3.305  0.00  0.00     0.050 A 
ATOM      7  C   UNL d   1      12.769  13.108  -4.691  0.00  0.00     0.007 A 
ATOM      8  C   UNL d   1      13.280  12.456  -3.540  0.00  0.00     0.116 A 
ATOM      9  O   UNL d   1      12.787  14.782  -5.504  0.00  0.00    -0.284 OA
ATOM     10  C   UNL d   1      12.844  12.435  -4.231  0.00  0.00     0.026 A 
ENDROOT
BRANCH   8  11
ATOM     11  O   UNL d   1      13.355  11.779  -3.079  0.00  0.00    -0.227 OA
BRANCH  11  12
ATOM     12  S   UNL d   1      13.693  11.826  -2.328  0.00  0.00     0.304 S 
ATOM     13  O   UNL d   1      14.438  11.854  -2.650  0.00  0.00    -0.193 OA
ATOM     14  O   UNL d   1      12.952  11.799  -1.993  0.00  0.00    -0.193 OA
BRANCH  12  15
ATOM     15  C   UNL d   1      14.027  11.873  -1.573  0.00  0.00     0.111 A 
ATOM     16  C   UNL d   1      14.853  11.873  -1.484  0.00  0.00     0.013 A 
ATOM     17  C   UNL d   1      15.187  11.920  -0.731  0.00  0.00     0.001 A 
ATOM     18  C   UNL d   1      14.698  11.967  -0.060  0.00  0.00     0.000 A 
ATOM     19  C   UNL d   1      13.875  11.966  -0.157  0.00  0.00     0.001 A 
ATOM     20  C   UNL d   1      13.544  11.919  -0.911  0.00  0.00     0.013 A 
ENDBRANCH  12  15
ENDBRANCH  11  12
ENDBRANCH   8  11
BRANCH   1  21
ATOM     21  C   UNL d   1      13.775  15.839  -4.446  0.00  0.00     0.029 C 
BRANCH  21  22
ATOM     22  C   UNL d   1      14.389  16.213  -4.035  0.00  0.00     0.021 A 
ATOM     23  C   UNL d   1      15.012  16.540  -4.457  0.00  0.00     0.099 A 
ATOM     24  N   UNL d   1      15.626  16.913  -4.063  0.00  0.00    -0.242 NA
ATOM     25  C   UNL d   1      15.617  16.959  -3.230  0.00  0.00     0.099 A 
ATOM     26  C   UNL d   1      14.986  16.628  -2.809  0.00  0.00     0.021 A 
ATOM     27  C   UNL d   1      14.373  16.255  -3.220  0.00  0.00     0.003 A 
ENDBRANCH  21  22
ENDBRANCH   1  21
TORSDOF 5
ENDMDL
