MODEL 1
REMARK VINA RESULT:      -4.8      0.000      0.000
REMARK  7 active torsions:
REMARK  status: ('A' for Active; 'I' for Inactive)
REMARK    1  A    between atoms: C_6  and  N_1 
REMARK    2  A    between atoms: C_9  and  C_5 
REMARK    3  A    between atoms: C_7  and  C_6 
REMARK       I    between atoms: N_10  and  C_7 
REMARK    4  A    between atoms: C_12  and  C_9 
REMARK    5  A    between atoms: C_15  and  N_10 
REMARK    6  A    between atoms: C_14  and  C_12 
REMARK    7  A    between atoms: C_17  and  C_14 
ROOT
ATOM      1  N   UNL d   1      58.441   0.294  29.763  0.00  0.00    -0.230 N 
ATOM      2  C   UNL d   1      58.162   0.258  28.996  0.00  0.00     0.299 A 
ATOM      3  C   UNL d   1      59.160  -0.114  29.792  0.00  0.00     0.274 A 
ATOM      4  S   UNL d   1      58.703  -0.169  28.555  0.00  0.00    -0.022 SA
ATOM      5  C   UNL d   1      59.317  -0.398  29.043  0.00  0.00     0.090 A 
ATOM      6  O   UNL d   1      57.456   0.596  28.724  0.00  0.00    -0.259 OA
ATOM      7  O   UNL d   1      59.629  -0.215  30.453  0.00  0.00    -0.266 OA
ENDROOT
BRANCH   1   8
ATOM      8  C   UNL d   1      58.068   0.673  30.393  0.00  0.00     0.149 C 
BRANCH   8   9
ATOM      9  C   UNL d   1      57.547   0.244  30.881  0.00  0.00     0.297 C 
ATOM     10  N   UNL d   1      57.203   0.606  31.538  0.00  0.00    -0.207 NA
ATOM     11  O   UNL d   1      57.378  -0.550  30.701  0.00  0.00    -0.264 OA
BRANCH  10  12
ATOM     12  C   UNL d   1      56.687   0.179  32.021  0.00  0.00     0.085 A 
ATOM     13  C   UNL d   1      56.651  -0.647  31.965  0.00  0.00     0.022 A 
ATOM     14  C   UNL d   1      56.136  -1.074  32.447  0.00  0.00     0.044 A 
ATOM     15  C   UNL d   1      55.650  -0.673  32.990  0.00  0.00     0.196 A 
ATOM     16  C   UNL d   1      55.686   0.156  33.046  0.00  0.00     0.044 A 
ATOM     17  O   UNL d   1      55.132  -1.102  33.474  0.00  0.00    -0.287 OA
ATOM     18  C   UNL d   1      56.208   0.581  32.558  0.00  0.00     0.022 A 
ENDBRANCH  10  12
ENDBRANCH   8   9
ENDBRANCH   1   8
BRANCH   5  19
ATOM     19  C   UNL d   1      60.024  -0.746  29.279  0.00  0.00     0.011 C 
BRANCH  19  20
ATOM     20  C   UNL d   1      60.320  -1.401  28.862  0.00  0.00     0.001 C 
BRANCH  20  21
ATOM     21  C   UNL d   1      60.999  -1.781  29.130  0.00  0.00     0.000 C 
BRANCH  21  22
ATOM     22  C   UNL d   1      61.032  -2.605  29.149  0.00  0.00     0.000 A 
ATOM     23  C   UNL d   1      61.095  -2.991  29.880  0.00  0.00     0.000 A 
ATOM     24  C   UNL d   1      61.129  -3.821  29.905  0.00  0.00     0.000 A 
ATOM     25  C   UNL d   1      61.098  -4.252  29.205  0.00  0.00     0.000 A 
ATOM     26  C   UNL d   1      61.035  -3.856  28.478  0.00  0.00     0.000 A 
ATOM     27  C   UNL d   1      61.003  -3.039  28.459  0.00  0.00     0.000 A 
ENDBRANCH  21  22
ENDBRANCH  20  21
ENDBRANCH  19  20
ENDBRANCH   5  19
TORSDOF 7
ENDMDL
MODEL 2
REMARK VINA RESULT:      -2.3      1.063      1.433
REMARK  7 active torsions:
REMARK  status: ('A' for Active; 'I' for Inactive)
REMARK    1  A    between atoms: C_6  and  N_1 
REMARK    2  A    between atoms: C_9  and  C_5 
REMARK    3  A    between atoms: C_7  and  C_6 
REMARK       I    between atoms: N_10  and  C_7 
REMARK    4  A    between atoms: C_12  and  C_9 
REMARK    5  A    between atoms: C_15  and  N_10 
REMARK    6  A    between atoms: C_14  and  C_12 
REMARK    7  A    between atoms: C_17  and  C_14 
ROOT
ATOM      1  N   UNL d   1      58.296   0.305  30.766  0.00  0.00    -0.230 N 
ATOM      2  C   UNL d   1      59.026   0.303  31.132  0.00  0.00     0.299 A 
ATOM      3  C   UNL d   1      58.360  -0.135  30.069  0.00  0.00     0.274 A 
ATOM      4  S   UNL d   1      59.537  -0.134  30.666  0.00  0.00    -0.022 SA
ATOM      5  C   UNL d   1      59.129  -0.404  30.012  0.00  0.00     0.090 A 
ATOM      6  O   UNL d   1      59.207   0.679  31.848  0.00  0.00    -0.259 OA
ATOM      7  O   UNL d   1      57.761  -0.276  29.532  0.00  0.00    -0.266 OA
ENDROOT
BRANCH   1   8
ATOM      8  C   UNL d   1      57.618   0.681  31.047  0.00  0.00     0.149 C 
BRANCH   8   9
ATOM      9  C   UNL d   1      57.244   0.396  31.735  0.00  0.00     0.297 C 
ATOM     10  N   UNL d   1      56.450   0.171  31.711  0.00  0.00    -0.207 NA
ATOM     11  O   UNL d   1      57.677   0.342  32.442  0.00  0.00    -0.264 OA
BRANCH  10  12
ATOM     12  C   UNL d   1      56.082  -0.111  32.394  0.00  0.00     0.085 A 
ATOM     13  C   UNL d   1      56.018  -0.926  32.528  0.00  0.00     0.022 A 
ATOM     14  C   UNL d   1      55.651  -1.207  33.210  0.00  0.00     0.044 A 
ATOM     15  C   UNL d   1      55.343  -0.670  33.766  0.00  0.00     0.196 A 
ATOM     16  C   UNL d   1      55.406   0.148  33.631  0.00  0.00     0.044 A 
ATOM     17  O   UNL d   1      54.973  -0.952  34.452  0.00  0.00    -0.287 OA
ATOM     18  C   UNL d   1      55.778   0.426  32.941  0.00  0.00     0.022 A 
ENDBRANCH  10  12
ENDBRANCH   8   9
ENDBRANCH   1   8
BRANCH   5  19
ATOM     19  C   UNL d   1      58.985  -0.789  29.300  0.00  0.00     0.011 C 
BRANCH  19  20
ATOM     20  C   UNL d   1      59.612  -1.154  28.894  0.00  0.00     0.001 C 
BRANCH  20  21
ATOM     21  C   UNL d   1      59.472  -1.839  28.460  0.00  0.00     0.000 C 
BRANCH  21  22
ATOM     22  C   UNL d   1      59.851  -2.542  28.663  0.00  0.00     0.000 A 
ATOM     23  C   UNL d   1      59.398  -3.225  28.791  0.00  0.00     0.000 A 
ATOM     24  C   UNL d   1      59.775  -3.936  28.996  0.00  0.00     0.000 A 
ATOM     25  C   UNL d   1      60.593  -3.958  29.070  0.00  0.00     0.000 A 
ATOM     26  C   UNL d   1      61.039  -3.269  28.940  0.00  0.00     0.000 A 
ATOM     27  C   UNL d   1      60.662  -2.571  28.738  0.00  0.00     0.000 A 
ENDBRANCH  21  22
ENDBRANCH  20  21
ENDBRANCH  19  20
ENDBRANCH   5  19
TORSDOF 7
ENDMDL
