MODEL 1
REMARK VINA RESULT:      64.1      0.000      0.000
REMARK  4 active torsions:
REMARK  status: ('A' for Active; 'I' for Inactive)
REMARK    1  A    between atoms: S_2  and  C_1 
REMARK    2  A    between atoms: C_8  and  S_2 
REMARK    3  A    between atoms: N_7  and  C_4 
REMARK    4  A    between atoms: C_11  and  N_7 
ROOT
ATOM      1  C   UNL d   1     -55.139-101.455 -41.803  0.00  0.00     0.187 A 
ATOM      2  N   UNL d   1     -55.043-100.792 -42.239  0.00  0.00    -0.208 NA
ATOM      3  C   UNL d   1     -55.188-100.988 -43.027  0.00  0.00     0.196 A 
ATOM      4  C   UNL d   1     -55.343-102.113 -42.225  0.00  0.00     0.118 A 
ATOM      5  S   UNL d   1     -55.381-101.814 -43.065  0.00  0.00    -0.035 SA
ATOM      6 CL   UNL d   1     -55.497-102.878 -42.062  0.00  0.00    -0.073 Cl
ENDROOT
BRANCH   1   7
ATOM      7  S   UNL d   1     -55.061-101.572 -40.975  0.00  0.00     0.228 S 
ATOM      8  O   UNL d   1     -54.737-100.724 -40.938  0.00  0.00    -0.216 OA
ATOM      9  O   UNL d   1     -55.367-102.333 -41.112  0.00  0.00    -0.216 OA
BRANCH   7  10
ATOM     10  C   UNL d   1     -55.007-101.724 -40.218  0.00  0.00     0.089 A 
ATOM     11  C   UNL d   1     -55.025-101.202 -39.614  0.00  0.00     0.011 A 
ATOM     12  C   UNL d   1     -54.957-101.479 -38.813  0.00  0.00     0.001 A 
ATOM     13  C   UNL d   1     -54.871-102.226 -38.551  0.00  0.00     0.000 A 
ATOM     14  C   UNL d   1     -54.842-102.865 -39.170  0.00  0.00     0.001 A 
ATOM     15  C   UNL d   1     -54.799-102.510 -37.691  0.00  0.00     0.000 C 
ATOM     16  C   UNL d   1     -54.911-102.589 -39.970  0.00  0.00     0.011 A 
ENDBRANCH   7  10
ENDBRANCH   1   7
BRANCH   3  17
ATOM     17  N   UNL d   1     -55.182-100.522 -43.823  0.00  0.00    -0.221 NA
BRANCH  17  18
ATOM     18  C   UNL d   1     -55.774 -99.895 -44.013  0.00  0.00     0.084 A 
ATOM     19  C   UNL d   1     -55.453 -99.328 -44.471  0.00  0.00     0.018 A 
ATOM     20  C   UNL d   1     -54.716 -99.265 -44.755  0.00  0.00     0.002 C 
ATOM     21  C   UNL d   1     -55.985 -98.758 -44.646  0.00  0.00     0.002 A 
ATOM     22  C   UNL d   1     -56.835 -98.807 -44.332  0.00  0.00     0.000 A 
ATOM     23  C   UNL d   1     -57.099 -99.381 -43.889  0.00  0.00     0.002 A 
ATOM     24  C   UNL d   1     -56.453 -99.965 -43.743  0.00  0.00     0.019 A 
ENDBRANCH  17  18
ENDBRANCH   3  17
TORSDOF 4
ENDMDL
