MODEL 1
REMARK VINA RESULT:      62.2      0.000      0.000
REMARK  3 active torsions:
REMARK  status: ('A' for Active; 'I' for Inactive)
REMARK    1  A    between atoms: C_5  and  C_1 
REMARK       I    between atoms: N_7  and  C_5 
REMARK    2  A    between atoms: C_15  and  N_10 
REMARK    3  A    between atoms: C_21  and  C_15 
ROOT
ATOM      1  C   UNL d   1     -50.662  26.944  33.561  0.00  0.00     0.270 C 
ATOM      2  N   UNL d   1     -49.948  27.235  33.908  0.00  0.00    -0.270 N 
ATOM      3  N   UNL d   1     -48.532  27.800  34.596  0.00  0.00    -0.300 N 
ATOM      4  O   UNL d   1     -51.204  27.470  33.307  0.00  0.00    -0.269 OA
ATOM      5  C   UNL d   1     -49.814  28.063  33.982  0.00  0.00     0.102 A 
ATOM      6  C   UNL d   1     -49.383  26.682  34.172  0.00  0.00     0.102 A 
ATOM      7  C   UNL d   1     -49.116  28.338  34.322  0.00  0.00     0.100 A 
ATOM      8  C   UNL d   1     -48.666  26.972  34.521  0.00  0.00     0.100 A 
ENDROOT
BRANCH   1   9
ATOM      9  C   UNL d   1     -50.788  26.166  33.491  0.00  0.00     0.191 A 
ATOM     10  O   UNL d   1     -50.020  26.043  33.483  0.00  0.00    -0.293 OA
ATOM     11  C   UNL d   1     -50.145  25.265  33.413  0.00  0.00     0.275 A 
ATOM     12  O   UNL d   1     -49.684  24.608  33.356  0.00  0.00    -0.264 OA
ATOM     13  C   UNL d   1     -50.929  25.374  33.419  0.00  0.00     0.099 A 
ATOM     14  C   UNL d   1     -51.584  24.917  33.376  0.00  0.00     0.047 A 
ATOM     15  C   UNL d   1     -50.862  24.595  33.350  0.00  0.00     0.014 C 
ATOM     16  C   UNL d   1     -51.540  25.889  33.463  0.00  0.00    -0.019 A 
ATOM     17  C   UNL d   1     -51.505  24.133  33.306  0.00  0.00     0.004 C 
ATOM     18  C   UNL d   1     -52.365  25.043  33.383  0.00  0.00     0.004 C 
ATOM     19  C   UNL d   1     -51.405  26.665  33.533  0.00  0.00     0.006 A 
ENDBRANCH   1   9
BRANCH   3  20
ATOM     20  C   UNL d   1     -47.813  28.080  34.945  0.00  0.00     0.080 C 
BRANCH  20  21
ATOM     21  C   UNL d   1     -47.752  28.877  35.205  0.00  0.00     0.018 A 
ATOM     22  C   UNL d   1     -47.959  29.079  35.992  0.00  0.00     0.002 A 
ATOM     23  C   UNL d   1     -47.902  29.879  36.264  0.00  0.00     0.000 A 
ATOM     24  C   UNL d   1     -47.631  30.470  35.722  0.00  0.00     0.000 A 
ATOM     25  C   UNL d   1     -47.423  30.267  34.932  0.00  0.00     0.000 A 
ATOM     26  C   UNL d   1     -47.484  29.471  34.675  0.00  0.00     0.002 A 
ENDBRANCH  20  21
ENDBRANCH   3  20
TORSDOF 3
ENDMDL
