MODEL 1
REMARK VINA RESULT:      44.7      0.000      0.000
REMARK  6 active torsions:
REMARK  status: ('A' for Active; 'I' for Inactive)
REMARK    1  A    between atoms: N_5  and  C_1 
REMARK       I    between atoms: C_11  and  N_5 
REMARK    2  A    between atoms: C_22  and  C_7 
REMARK    3  A    between atoms: C_8  and  C_10 
REMARK    4  A    between atoms: C_20  and  C_11 
REMARK    5  A    between atoms: C_13  and  S_15 
REMARK    6  A    between atoms: S_15  and  C_20 
ROOT
ATOM      1  S   UNL d   1      13.721  15.559  -5.280  0.00  0.00    -0.061 SA
ENDROOT
BRANCH   1   2
ATOM      2  C   UNL d   1      13.752  16.358  -5.478  0.00  0.00     0.133 A 
ATOM      3  N   UNL d   1      13.252  16.665  -6.045  0.00  0.00    -0.141 NA
ATOM      4  N   UNL d   1      13.278  17.457  -6.244  0.00  0.00    -0.147 NA
ATOM      5  C   UNL d   1      13.818  17.952  -5.867  0.00  0.00     0.109 A 
ATOM      6  C   UNL d   1      14.326  17.649  -5.293  0.00  0.00     0.024 A 
ATOM      7  C   UNL d   1      14.294  16.861  -5.100  0.00  0.00     0.029 A 
BRANCH   5   8
ATOM      8  C   UNL d   1      13.850  18.749  -6.063  0.00  0.00     0.049 A 
ATOM      9  S   UNL d   1      14.527  19.207  -6.142  0.00  0.00    -0.085 SA
ATOM     10  C   UNL d   1      14.310  19.975  -6.342  0.00  0.00     0.035 A 
ATOM     11  C   UNL d   1      13.477  19.994  -6.389  0.00  0.00     0.007 A 
ATOM     12  C   UNL d   1      13.192  19.239  -6.217  0.00  0.00     0.009 A 
ENDBRANCH   5   8
ENDBRANCH   1   2
BRANCH   1  13
ATOM     13  C   UNL d   1      13.039  15.237  -4.963  0.00  0.00     0.099 C 
BRANCH  13  14
ATOM     14  C   UNL d   1      13.072  14.504  -4.585  0.00  0.00     0.288 C 
ATOM     15  N   UNL d   1      13.110  13.815  -5.031  0.00  0.00    -0.181 NA
ATOM     16  O   UNL d   1      13.067  14.461  -3.766  0.00  0.00    -0.265 OA
BRANCH  15  17
ATOM     17  C   UNL d   1      13.143  13.089  -4.661  0.00  0.00     0.219 A 
ATOM     18  S   UNL d   1      13.171  12.960  -3.845  0.00  0.00    -0.026 SA
ATOM     19  C   UNL d   1      13.199  12.154  -3.720  0.00  0.00     0.135 A 
ATOM     20  N   UNL d   1      13.189  11.782  -4.451  0.00  0.00    -0.139 NA
ATOM     21  N   UNL d   1      13.155  12.359  -5.026  0.00  0.00    -0.121 NA
BRANCH  19  22
ATOM     22  C   UNL d   1      13.231  11.779  -2.986  0.00  0.00     0.028 C 
ATOM     23  C   UNL d   1      13.859  11.914  -2.480  0.00  0.00     0.002 C 
ENDBRANCH  19  22
ENDBRANCH  15  17
ENDBRANCH  13  14
ENDBRANCH   1  13
TORSDOF 6
ENDMDL
MODEL 2
REMARK VINA RESULT:      46.2      1.552      5.930
REMARK  6 active torsions:
REMARK  status: ('A' for Active; 'I' for Inactive)
REMARK    1  A    between atoms: N_5  and  C_1 
REMARK       I    between atoms: C_11  and  N_5 
REMARK    2  A    between atoms: C_22  and  C_7 
REMARK    3  A    between atoms: C_8  and  C_10 
REMARK    4  A    between atoms: C_20  and  C_11 
REMARK    5  A    between atoms: C_13  and  S_15 
REMARK    6  A    between atoms: S_15  and  C_20 
ROOT
ATOM      1  S   UNL d   1      13.077  12.731  -4.259  0.00  0.00    -0.061 SA
ENDROOT
BRANCH   1   2
ATOM      2  C   UNL d   1      13.407  12.577  -3.519  0.00  0.00     0.133 A 
ATOM      3  N   UNL d   1      14.017  12.042  -3.439  0.00  0.00    -0.141 NA
ATOM      4  N   UNL d   1      14.346  11.887  -2.708  0.00  0.00    -0.147 NA
ATOM      5  C   UNL d   1      14.058  12.277  -2.042  0.00  0.00     0.109 A 
ATOM      6  C   UNL d   1      13.441  12.820  -2.115  0.00  0.00     0.024 A 
ATOM      7  C   UNL d   1      13.118  12.969  -2.845  0.00  0.00     0.029 A 
BRANCH   5   8
ATOM      8  C   UNL d   1      14.384  12.126  -1.304  0.00  0.00     0.049 A 
ATOM      9  S   UNL d   1      15.174  12.205  -1.092  0.00  0.00    -0.085 SA
ATOM     10  C   UNL d   1      15.262  11.997  -0.301  0.00  0.00     0.035 A 
ATOM     11  C   UNL d   1      14.508  11.784  -0.014  0.00  0.00     0.007 A 
ATOM     12  C   UNL d   1      13.966  11.863  -0.632  0.00  0.00     0.009 A 
ENDBRANCH   5   8
ENDBRANCH   1   2
BRANCH   1  13
ATOM     13  C   UNL d   1      12.769  13.470  -4.429  0.00  0.00     0.099 C 
BRANCH  13  14
ATOM     14  C   UNL d   1      13.262  14.056  -4.735  0.00  0.00     0.288 C 
ATOM     15  N   UNL d   1      13.163  14.838  -4.500  0.00  0.00    -0.181 NA
ATOM     16  O   UNL d   1      13.851  13.862  -5.271  0.00  0.00    -0.265 OA
BRANCH  15  17
ATOM     17  C   UNL d   1      13.649  15.420  -4.800  0.00  0.00     0.219 A 
ATOM     18  S   UNL d   1      13.524  15.845  -5.499  0.00  0.00    -0.026 SA
ATOM     19  C   UNL d   1      14.143  16.369  -5.587  0.00  0.00     0.135 A 
ATOM     20  N   UNL d   1      14.651  16.274  -4.949  0.00  0.00    -0.139 NA
ATOM     21  N   UNL d   1      14.344  15.690  -4.469  0.00  0.00    -0.121 NA
BRANCH  19  22
ATOM     22  C   UNL d   1      14.242  16.902  -6.208  0.00  0.00     0.028 C 
ATOM     23  C   UNL d   1      14.327  17.701  -6.058  0.00  0.00     0.002 C 
ENDBRANCH  19  22
ENDBRANCH  15  17
ENDBRANCH  13  14
ENDBRANCH   1  13
TORSDOF 6
ENDMDL
