MODEL 1
REMARK VINA RESULT:      34.9      0.000      0.000
REMARK  5 active torsions:
REMARK  status: ('A' for Active; 'I' for Inactive)
REMARK    1  A    between atoms: N_5  and  C_3 
REMARK    2  A    between atoms: O_13  and  C_4 
REMARK       I    between atoms: C_6  and  N_5 
REMARK    3  A    between atoms: C_9  and  C_6 
REMARK    4  A    between atoms: O_14  and  C_7 
REMARK    5  A    between atoms: O_18  and  C_15 
ROOT
ATOM      1  N   UNL d   1      14.259  13.758  -2.173  0.00  0.00    -0.189 NA
ATOM      2  C   UNL d   1      13.946  13.223  -2.731  0.00  0.00     0.281 C 
ATOM      3  O   UNL d   1      13.933  12.398  -2.562  0.00  0.00    -0.265 OA
ENDROOT
BRANCH   1   4
ATOM      4  C   UNL d   1      14.555  13.475  -1.456  0.00  0.00     0.173 A 
ATOM      5  N   UNL d   1      14.210  12.812  -1.091  0.00  0.00    -0.186 NA
ATOM      6  C   UNL d   1      14.510  12.536  -0.378  0.00  0.00     0.273 A 
ATOM      7  N   UNL d   1      15.161  12.930  -0.034  0.00  0.00    -0.181 NA
ATOM      8  C   UNL d   1      15.491  13.563  -0.382  0.00  0.00     0.185 A 
ATOM      9  C   UNL d   1      15.199  13.856  -1.105  0.00  0.00     0.083 A 
BRANCH   6  10
ATOM     10  O   UNL d   1      14.176  11.895  -0.026  0.00  0.00    -0.297 OA
ATOM     11  C   UNL d   1      13.372  11.779  -0.049  0.00  0.00     0.185 C 
ENDBRANCH   6  10
BRANCH   8  12
ATOM     12  O   UNL d   1      16.140  13.935  -0.014  0.00  0.00    -0.312 OA
ATOM     13  C   UNL d   1      16.243  14.756  -0.130  0.00  0.00     0.183 C 
ENDBRANCH   8  12
ENDBRANCH   1   4
BRANCH   2  14
ATOM     14  C   UNL d   1      13.653  13.518  -3.443  0.00  0.00     0.058 A 
ATOM     15  C   UNL d   1      13.853  14.277  -3.704  0.00  0.00     0.007 A 
ATOM     16  C   UNL d   1      13.572  14.563  -4.389  0.00  0.00     0.024 A 
ATOM     17  C   UNL d   1      13.062  14.106  -4.872  0.00  0.00     0.094 A 
ATOM     18  C   UNL d   1      12.857  13.348  -4.621  0.00  0.00     0.024 A 
ATOM     19  C   UNL d   1      13.160  13.072  -3.907  0.00  0.00     0.007 A 
BRANCH  17  20
ATOM     20  O   UNL d   1      12.769  14.391  -5.577  0.00  0.00    -0.328 OA
ATOM     21  C   UNL d   1      12.846  15.173  -5.764  0.00  0.00     0.181 C 
ENDBRANCH  17  20
ENDBRANCH   2  14
TORSDOF 5
ENDMDL
MODEL 2
REMARK VINA RESULT:      36.5      1.125      1.748
REMARK  5 active torsions:
REMARK  status: ('A' for Active; 'I' for Inactive)
REMARK    1  A    between atoms: N_5  and  C_3 
REMARK    2  A    between atoms: O_13  and  C_4 
REMARK       I    between atoms: C_6  and  N_5 
REMARK    3  A    between atoms: C_9  and  C_6 
REMARK    4  A    between atoms: O_14  and  C_7 
REMARK    5  A    between atoms: O_18  and  C_15 
ROOT
ATOM      1  N   UNL d   1      14.353  13.172  -2.419  0.00  0.00    -0.189 NA
ATOM      2  C   UNL d   1      13.661  12.990  -2.847  0.00  0.00     0.281 C 
ATOM      3  O   UNL d   1      13.184  12.335  -2.617  0.00  0.00    -0.265 OA
ENDROOT
BRANCH   1   4
ATOM      4  C   UNL d   1      14.566  12.708  -1.770  0.00  0.00     0.173 A 
ATOM      5  N   UNL d   1      15.357  12.470  -1.666  0.00  0.00    -0.186 NA
ATOM      6  C   UNL d   1      15.562  12.009  -1.018  0.00  0.00     0.273 A 
ATOM      7  N   UNL d   1      14.967  11.788  -0.474  0.00  0.00    -0.181 NA
ATOM      8  C   UNL d   1      14.212  12.016  -0.574  0.00  0.00     0.185 A 
ATOM      9  C   UNL d   1      13.988  12.483  -1.225  0.00  0.00     0.083 A 
BRANCH   6  10
ATOM     10  O   UNL d   1      16.326  11.779  -0.917  0.00  0.00    -0.297 OA
ATOM     11  C   UNL d   1      16.846  11.782  -1.540  0.00  0.00     0.185 C 
ENDBRANCH   6  10
BRANCH   8  12
ATOM     12  O   UNL d   1      13.641  11.779  -0.014  0.00  0.00    -0.312 OA
ATOM     13  C   UNL d   1      12.888  12.139  -0.041  0.00  0.00     0.183 C 
ENDBRANCH   8  12
ENDBRANCH   1   4
BRANCH   2  14
ATOM     14  C   UNL d   1      13.458  13.460  -3.493  0.00  0.00     0.058 A 
ATOM     15  C   UNL d   1      13.615  14.272  -3.494  0.00  0.00     0.007 A 
ATOM     16  C   UNL d   1      13.421  14.726  -4.116  0.00  0.00     0.024 A 
ATOM     17  C   UNL d   1      13.050  14.400  -4.793  0.00  0.00     0.094 A 
ATOM     18  C   UNL d   1      12.890  13.591  -4.801  0.00  0.00     0.024 A 
ATOM     19  C   UNL d   1      13.100  13.139  -4.146  0.00  0.00     0.007 A 
BRANCH  17  20
ATOM     20  O   UNL d   1      12.847  14.858  -5.435  0.00  0.00    -0.328 OA
ATOM     21  C   UNL d   1      13.015  15.648  -5.440  0.00  0.00     0.181 C 
ENDBRANCH  17  20
ENDBRANCH   2  14
TORSDOF 5
ENDMDL
MODEL 3
REMARK VINA RESULT:      36.7      2.029      3.313
REMARK  5 active torsions:
REMARK  status: ('A' for Active; 'I' for Inactive)
REMARK    1  A    between atoms: N_5  and  C_3 
REMARK    2  A    between atoms: O_13  and  C_4 
REMARK       I    between atoms: C_6  and  N_5 
REMARK    3  A    between atoms: C_9  and  C_6 
REMARK    4  A    between atoms: O_14  and  C_7 
REMARK    5  A    between atoms: O_18  and  C_15 
ROOT
ATOM      1  N   UNL d   1      14.271  13.992  -3.570  0.00  0.00    -0.189 NA
ATOM      2  C   UNL d   1      13.797  14.651  -3.757  0.00  0.00     0.281 C 
ATOM      3  O   UNL d   1      12.962  14.565  -3.822  0.00  0.00    -0.265 OA
ENDROOT
BRANCH   1   4
ATOM      4  C   UNL d   1      13.917  13.255  -3.448  0.00  0.00     0.173 A 
ATOM      5  N   UNL d   1      13.511  12.877  -4.068  0.00  0.00    -0.186 NA
ATOM      6  C   UNL d   1      13.162  12.144  -3.940  0.00  0.00     0.273 A 
ATOM      7  N   UNL d   1      13.223  11.794  -3.184  0.00  0.00    -0.181 NA
ATOM      8  C   UNL d   1      13.611  12.155  -2.593  0.00  0.00     0.185 A 
ATOM      9  C   UNL d   1      13.971  12.898  -2.706  0.00  0.00     0.083 A 
BRANCH   6  10
ATOM     10  O   UNL d   1      12.769  11.779  -4.539  0.00  0.00    -0.297 OA
ATOM     11  C   UNL d   1      13.065  11.785  -5.295  0.00  0.00     0.185 C 
ENDBRANCH   6  10
BRANCH   8  12
ATOM     12  O   UNL d   1      13.655  11.780  -1.849  0.00  0.00    -0.312 OA
ATOM     13  C   UNL d   1      14.374  11.824  -1.425  0.00  0.00     0.183 C 
ENDBRANCH   8  12
ENDBRANCH   1   4
BRANCH   2  14
ATOM     14  C   UNL d   1      14.162  15.381  -3.876  0.00  0.00     0.058 A 
ATOM     15  C   UNL d   1      14.392  15.624  -4.633  0.00  0.00     0.007 A 
ATOM     16  C   UNL d   1      14.743  16.326  -4.748  0.00  0.00     0.024 A 
ATOM     17  C   UNL d   1      14.894  16.846  -4.109  0.00  0.00     0.094 A 
ATOM     18  C   UNL d   1      14.669  16.613  -3.350  0.00  0.00     0.024 A 
ATOM     19  C   UNL d   1      14.306  15.880  -3.254  0.00  0.00     0.007 A 
BRANCH  17  20
ATOM     20  O   UNL d   1      15.255  17.569  -4.218  0.00  0.00    -0.328 OA
ATOM     21  C   UNL d   1      15.663  17.721  -4.898  0.00  0.00     0.181 C 
ENDBRANCH  17  20
ENDBRANCH   2  14
TORSDOF 5
ENDMDL
MODEL 4
REMARK VINA RESULT:      37.7      1.409      4.596
REMARK  5 active torsions:
REMARK  status: ('A' for Active; 'I' for Inactive)
REMARK    1  A    between atoms: N_5  and  C_3 
REMARK    2  A    between atoms: O_13  and  C_4 
REMARK       I    between atoms: C_6  and  N_5 
REMARK    3  A    between atoms: C_9  and  C_6 
REMARK    4  A    between atoms: O_14  and  C_7 
REMARK    5  A    between atoms: O_18  and  C_15 
ROOT
ATOM      1  N   UNL d   1      13.787  13.642  -3.274  0.00  0.00    -0.189 NA
ATOM      2  C   UNL d   1      13.801  12.850  -3.015  0.00  0.00     0.281 C 
ATOM      3  O   UNL d   1      13.483  12.241  -3.503  0.00  0.00    -0.265 OA
ENDROOT
BRANCH   1   4
ATOM      4  C   UNL d   1      13.461  13.826  -4.011  0.00  0.00     0.173 A 
ATOM      5  N   UNL d   1      13.274  13.220  -4.550  0.00  0.00    -0.186 NA
ATOM      6  C   UNL d   1      12.949  13.411  -5.280  0.00  0.00     0.273 A 
ATOM      7  N   UNL d   1      12.814  14.214  -5.466  0.00  0.00    -0.181 NA
ATOM      8  C   UNL d   1      12.992  14.792  -4.951  0.00  0.00     0.185 A 
ATOM      9  C   UNL d   1      13.322  14.616  -4.206  0.00  0.00     0.083 A 
BRANCH   6  10
ATOM     10  O   UNL d   1      12.769  12.826  -5.802  0.00  0.00    -0.297 OA
ATOM     11  C   UNL d   1      13.014  12.063  -5.672  0.00  0.00     0.185 C 
ENDBRANCH   6  10
BRANCH   8  12
ATOM     12  O   UNL d   1      12.846  15.584  -5.165  0.00  0.00    -0.312 OA
ATOM     13  C   UNL d   1      13.490  16.053  -5.414  0.00  0.00     0.183 C 
ENDBRANCH   8  12
ENDBRANCH   1   4
BRANCH   2  14
ATOM     14  C   UNL d   1      14.129  12.679  -2.278  0.00  0.00     0.058 A 
ATOM     15  C   UNL d   1      13.993  11.952  -1.909  0.00  0.00     0.007 A 
ATOM     16  C   UNL d   1      14.309  11.787  -1.200  0.00  0.00     0.024 A 
ATOM     17  C   UNL d   1      14.791  12.343  -0.799  0.00  0.00     0.094 A 
ATOM     18  C   UNL d   1      14.932  13.072  -1.159  0.00  0.00     0.024 A 
ATOM     19  C   UNL d   1      14.595  13.222  -1.895  0.00  0.00     0.007 A 
BRANCH  17  20
ATOM     20  O   UNL d   1      15.119  12.183  -0.071  0.00  0.00    -0.328 OA
ATOM     21  C   UNL d   1      15.850  11.842  -0.020  0.00  0.00     0.181 C 
ENDBRANCH  17  20
ENDBRANCH   2  14
TORSDOF 5
ENDMDL
