MODEL 1
REMARK VINA RESULT:      -2.7      0.000      0.000
REMARK  4 active torsions:
REMARK  status: ('A' for Active; 'I' for Inactive)
REMARK    1  A    between atoms: C_10  and  N_2 
REMARK    2  A    between atoms: C_7  and  N_4 
REMARK    3  A    between atoms: C_11  and  C_7 
REMARK    4  A    between atoms: O_22  and  C_18 
ROOT
ATOM      1  S   UNL d   1      58.367   0.307  32.181  0.00  0.00     0.276 S 
ATOM      2  N   UNL d   1      57.677   0.092  31.778  0.00  0.00    -0.184 N 
ATOM      3  C   UNL d   1      57.706  -0.045  30.957  0.00  0.00     0.348 A 
ATOM      4  N   UNL d   1      58.424   0.036  30.554  0.00  0.00    -0.258 N 
ATOM      5  C   UNL d   1      59.081   0.387  31.778  0.00  0.00     0.120 A 
ATOM      6  C   UNL d   1      59.110   0.251  30.958  0.00  0.00     0.081 A 
ATOM      7  O   UNL d   1      58.867   0.522  32.817  0.00  0.00    -0.199 OA
ATOM      8  O   UNL d   1      57.725   0.263  32.707  0.00  0.00    -0.199 OA
ATOM      9  O   UNL d   1      57.012  -0.263  30.541  0.00  0.00    -0.245 OA
ATOM     10  C   UNL d   1      59.763   0.600  32.181  0.00  0.00     0.014 A 
ATOM     11  C   UNL d   1      59.820   0.329  30.547  0.00  0.00     0.018 A 
ATOM     12  C   UNL d   1      60.482   0.682  31.778  0.00  0.00     0.001 A 
ATOM     13  C   UNL d   1      60.511   0.545  30.958  0.00  0.00     0.002 A 
ENDROOT
BRANCH   2  14
ATOM     14  C   UNL d   1      56.966   0.012  32.181  0.00  0.00     0.079 A 
ATOM     15  C   UNL d   1      56.552   0.681  32.438  0.00  0.00     0.020 A 
ATOM     16  C   UNL d   1      55.838   0.603  32.843  0.00  0.00     0.026 A 
ATOM     17  C   UNL d   1      55.531  -0.154  32.995  0.00  0.00     0.094 A 
ATOM     18  C   UNL d   1      55.941  -0.826  32.740  0.00  0.00     0.026 A 
ATOM     19  C   UNL d   1      56.659  -0.745  32.333  0.00  0.00     0.020 A 
BRANCH  17  20
ATOM     20  O   UNL d   1      54.806  -0.240  33.406  0.00  0.00    -0.328 OA
ATOM     21  C   UNL d   1      54.490   0.395  33.815  0.00  0.00     0.181 C 
ENDBRANCH  17  20
ENDBRANCH   2  14
BRANCH   4  22
ATOM     22  C   UNL d   1      58.452  -0.100  29.735  0.00  0.00     0.087 C 
BRANCH  22  23
ATOM     23  C   UNL d   1      58.609  -0.854  29.450  0.00  0.00     0.045 A 
ATOM     24  C   UNL d   1      59.112  -0.941  28.810  0.00  0.00     0.141 A 
ATOM     25  F   UNL d   1      59.458  -0.290  28.456  0.00  0.00    -0.204 F 
ATOM     26  C   UNL d   1      59.267  -1.699  28.526  0.00  0.00     0.030 A 
ATOM     27  C   UNL d   1      58.921  -2.354  28.880  0.00  0.00     0.002 A 
ATOM     28  C   UNL d   1      58.419  -2.254  29.520  0.00  0.00     0.000 A 
ATOM     29  C   UNL d   1      58.263  -1.503  29.805  0.00  0.00     0.004 A 
ENDBRANCH  22  23
ENDBRANCH   4  22
TORSDOF 4
ENDMDL
MODEL 2
REMARK VINA RESULT:      -2.3      1.397      2.093
REMARK  4 active torsions:
REMARK  status: ('A' for Active; 'I' for Inactive)
REMARK    1  A    between atoms: C_10  and  N_2 
REMARK    2  A    between atoms: C_7  and  N_4 
REMARK    3  A    between atoms: C_11  and  C_7 
REMARK    4  A    between atoms: O_22  and  C_18 
ROOT
ATOM      1  S   UNL d   1      59.116   0.062  30.329  0.00  0.00     0.276 S 
ATOM      2  N   UNL d   1      58.456  -0.436  30.321  0.00  0.00    -0.184 N 
ATOM      3  C   UNL d   1      58.409  -1.047  29.758  0.00  0.00     0.348 A 
ATOM      4  N   UNL d   1      59.023  -1.150  29.213  0.00  0.00    -0.258 N 
ATOM      5  C   UNL d   1      59.728  -0.042  29.786  0.00  0.00     0.120 A 
ATOM      6  C   UNL d   1      59.681  -0.653  29.223  0.00  0.00     0.081 A 
ATOM      7  O   UNL d   1      59.626   0.682  30.567  0.00  0.00    -0.199 OA
ATOM      8  O   UNL d   1      58.582   0.279  30.928  0.00  0.00    -0.199 OA
ATOM      9  O   UNL d   1      57.743  -1.556  29.742  0.00  0.00    -0.245 OA
ATOM     10  C   UNL d   1      60.381   0.454  29.798  0.00  0.00     0.014 A 
ATOM     11  C   UNL d   1      60.287  -0.764  28.676  0.00  0.00     0.018 A 
ATOM     12  C   UNL d   1      60.996   0.351  29.253  0.00  0.00     0.001 A 
ATOM     13  C   UNL d   1      60.949  -0.260  28.690  0.00  0.00     0.002 A 
ENDROOT
BRANCH   2  14
ATOM     14  C   UNL d   1      57.848  -0.332  30.863  0.00  0.00     0.079 A 
ATOM     15  C   UNL d   1      57.670  -0.923  31.413  0.00  0.00     0.020 A 
ATOM     16  C   UNL d   1      57.059  -0.820  31.958  0.00  0.00     0.026 A 
ATOM     17  C   UNL d   1      56.619  -0.115  31.955  0.00  0.00     0.094 A 
ATOM     18  C   UNL d   1      56.793   0.480  31.407  0.00  0.00     0.026 A 
ATOM     19  C   UNL d   1      57.408   0.373  30.860  0.00  0.00     0.020 A 
BRANCH  17  20
ATOM     20  O   UNL d   1      55.998  -0.003  32.506  0.00  0.00    -0.328 OA
ATOM     21  C   UNL d   1      56.155   0.329  33.238  0.00  0.00     0.181 C 
ENDBRANCH  17  20
ENDBRANCH   2  14
BRANCH   4  22
ATOM     22  C   UNL d   1      58.976  -1.761  28.651  0.00  0.00     0.087 C 
BRANCH  22  23
ATOM     23  C   UNL d   1      59.266  -2.507  28.831  0.00  0.00     0.045 A 
ATOM     24  C   UNL d   1      58.780  -3.159  28.731  0.00  0.00     0.141 A 
ATOM     25  F   UNL d   1      58.015  -3.073  28.455  0.00  0.00    -0.204 F 
ATOM     26  C   UNL d   1      59.074  -3.907  28.912  0.00  0.00     0.030 A 
ATOM     27  C   UNL d   1      59.842  -3.995  29.189  0.00  0.00     0.002 A 
ATOM     28  C   UNL d   1      60.319  -3.336  29.286  0.00  0.00     0.000 A 
ATOM     29  C   UNL d   1      60.031  -2.591  29.107  0.00  0.00     0.004 A 
ENDBRANCH  22  23
ENDBRANCH   4  22
TORSDOF 4
ENDMDL
