MODEL 1
REMARK VINA RESULT:      44.9      0.000      0.000
REMARK  8 active torsions:
REMARK  status: ('A' for Active; 'I' for Inactive)
REMARK    1  A    between atoms: C_21  and  C_3 
REMARK    2  A    between atoms: S_17  and  C_5 
REMARK    3  A    between atoms: C_11  and  C_16 
REMARK       I    between atoms: N_14  and  C_11 
REMARK    4  A    between atoms: C_19  and  N_14 
REMARK    5  A    between atoms: C_16  and  C_20 
REMARK    6  A    between atoms: C_20  and  S_17 
REMARK    7  A    between atoms: O_27  and  C_22 
REMARK    8  A    between atoms: C_30  and  O_27 
ROOT
ATOM      1  C   UNL d   1      46.444 -18.997  41.528  0.00  0.00     0.092 A 
ATOM      2  C   UNL d   1      46.195 -18.614  42.883  0.00  0.00     0.057 A 
ATOM      3  C   UNL d   1      46.294 -19.203  42.315  0.00  0.00     0.016 A 
ATOM      4  N   UNL d   1      46.396 -17.613  41.886  0.00  0.00    -0.239 NA
ATOM      5  C   UNL d   1      46.495 -18.202  41.313  0.00  0.00     0.120 A 
ATOM      6  C   UNL d   1      46.246 -17.820  42.669  0.00  0.00     0.081 A 
ATOM      7  C   UNL d   1      46.046 -18.822  43.666  0.00  0.00     0.193 A 
ATOM      8  C   UNL d   1      46.543 -19.598  40.956  0.00  0.00     0.103 C 
ATOM      9  N   UNL d   1      46.643 -20.198  40.379  0.00  0.00    -0.191 NA
ATOM     10  C   UNL d   1      45.998 -17.439  44.019  0.00  0.00     0.042 A 
ATOM     11  C   UNL d   1      45.947 -18.234  44.234  0.00  0.00     0.019 A 
ATOM     12  C   UNL d   1      46.148 -17.232  43.236  0.00  0.00    -0.003 A 
ATOM     13  O   UNL d   1      45.995 -19.617  43.880  0.00  0.00    -0.287 OA
ATOM     14  C   UNL d   1      45.997 -16.615  44.090  0.00  0.00     0.009 C 
ATOM     15  C   UNL d   1      45.847 -17.643  44.814  0.00  0.00     0.009 C 
ENDROOT
BRANCH   3  16
ATOM     16  C   UNL d   1      46.243 -19.998  42.530  0.00  0.00     0.001 C 
ATOM     17  C   UNL d   1      45.516 -20.321  42.742  0.00  0.00     0.000 C 
ENDBRANCH   3  16
BRANCH   5  18
ATOM     18  S   UNL d   1      46.646 -17.997  40.524  0.00  0.00    -0.067 SA
BRANCH  18  19
ATOM     19  C   UNL d   1      46.036 -17.692  40.055  0.00  0.00     0.042 C 
BRANCH  19  20
ATOM     20  C   UNL d   1      46.197 -17.419  39.286  0.00  0.00     0.070 C 
BRANCH  20  21
ATOM     21  C   UNL d   1      45.575 -17.202  38.785  0.00  0.00     0.280 C 
ATOM     22  N   UNL d   1      45.596 -16.472  38.387  0.00  0.00    -0.208 NA
ATOM     23  O   UNL d   1      44.930 -17.713  38.679  0.00  0.00    -0.265 OA
BRANCH  22  24
ATOM     24  C   UNL d   1      44.974 -16.255  37.886  0.00  0.00     0.085 A 
ATOM     25  C   UNL d   1      44.456 -15.646  38.107  0.00  0.00     0.021 A 
ATOM     26  C   UNL d   1      43.840 -15.435  37.605  0.00  0.00     0.026 A 
ATOM     27  C   UNL d   1      43.727 -15.825  36.873  0.00  0.00     0.100 A 
ATOM     28  C   UNL d   1      44.246 -16.430  36.659  0.00  0.00     0.026 A 
ATOM     29  C   UNL d   1      44.868 -16.647  37.160  0.00  0.00     0.021 A 
BRANCH  27  30
ATOM     30  O   UNL d   1      43.097 -15.606  36.362  0.00  0.00    -0.305 OA
BRANCH  30  31
ATOM     31  C   UNL d   1      42.442 -15.204  36.668  0.00  0.00     0.123 C 
ATOM     32  C   UNL d   1      41.690 -15.496  36.533  0.00  0.00     0.029 C 
ENDBRANCH  30  31
ENDBRANCH  27  30
ENDBRANCH  22  24
ENDBRANCH  20  21
ENDBRANCH  19  20
ENDBRANCH  18  19
ENDBRANCH   5  18
TORSDOF 8
ENDMDL
