MODEL 1
REMARK VINA RESULT:      51.5      0.000      0.000
REMARK  3 active torsions:
REMARK  status: ('A' for Active; 'I' for Inactive)
REMARK    1  A    between atoms: C_4  and  C_1 
REMARK    2  A    between atoms: C_5  and  C_6 
REMARK       I    between atoms: C_6  and  N_7 
REMARK    3  A    between atoms: N_7  and  C_8 
ROOT
ATOM      1  C   UNL d   1     -56.207 -99.051 -44.025  0.00  0.00     0.042 A 
ATOM      2  C   UNL d   1     -55.591 -99.403 -44.438  0.00  0.00     0.087 A 
ATOM      3  C   UNL d   1     -56.084 -98.756 -43.259  0.00  0.00     0.004 A 
ATOM      4  C   UNL d   1     -54.848 -99.464 -44.093  0.00  0.00     0.019 A 
ATOM      5  C   UNL d   1     -55.335 -98.821 -42.919  0.00  0.00     0.000 A 
ATOM      6  C   UNL d   1     -54.719 -99.176 -43.338  0.00  0.00     0.002 A 
ENDROOT
BRANCH   1   7
ATOM      7  C   UNL d   1     -56.957 -98.985 -44.365  0.00  0.00     0.112 A 
ATOM      8  N   UNL d   1     -57.181 -98.922 -45.147  0.00  0.00    -0.238 NA
ATOM      9  C   UNL d   1     -58.005 -98.873 -45.166  0.00  0.00     0.088 A 
ATOM     10  C   UNL d   1     -58.543 -98.801 -45.796  0.00  0.00     0.020 A 
ATOM     11  C   UNL d   1     -58.280 -98.907 -44.393  0.00  0.00     0.049 A 
ATOM     12  C   UNL d   1     -59.349 -98.764 -45.646  0.00  0.00     0.002 A 
ATOM     13  C   UNL d   1     -59.630 -98.798 -44.869  0.00  0.00     0.001 A 
ATOM     14  C   UNL d   1     -59.092 -98.870 -44.239  0.00  0.00     0.008 A 
ATOM     15  S   UNL d   1     -57.629 -98.976 -43.900  0.00  0.00    -0.066 SA
ENDBRANCH   1   7
BRANCH   2  16
ATOM     16  N   UNL d   1     -55.723 -99.695 -45.202  0.00  0.00    -0.206 NA
ATOM     17  C   UNL d   1     -55.593-100.503 -45.365  0.00  0.00     0.304 C 
ATOM     18  O   UNL d   1     -55.725-100.793 -46.124  0.00  0.00    -0.263 OA
BRANCH  17  19
ATOM     19  C   UNL d   1     -55.335-101.013 -44.770  0.00  0.00     0.182 A 
ATOM     20  O   UNL d   1     -55.440-101.828 -44.848  0.00  0.00    -0.296 OA
ATOM     21  C   UNL d   1     -55.182-102.338 -44.252  0.00  0.00     0.150 A 
ATOM     22  C   UNL d   1     -54.818-102.034 -43.580  0.00  0.00     0.149 A 
ATOM     23  O   UNL d   1     -54.713-101.218 -43.503  0.00  0.00    -0.299 OA
ATOM     24  C   UNL d   1     -54.972-100.708 -44.098  0.00  0.00     0.152 A 
ENDBRANCH  17  19
ENDBRANCH   2  16
TORSDOF 3
ENDMDL
MODEL 2
REMARK VINA RESULT:      53.8      1.024      1.433
REMARK  3 active torsions:
REMARK  status: ('A' for Active; 'I' for Inactive)
REMARK    1  A    between atoms: C_4  and  C_1 
REMARK    2  A    between atoms: C_5  and  C_6 
REMARK       I    between atoms: C_6  and  N_7 
REMARK    3  A    between atoms: N_7  and  C_8 
ROOT
ATOM      1  C   UNL d   1     -56.346 -99.209 -44.546  0.00  0.00     0.042 A 
ATOM      2  C   UNL d   1     -56.041 -99.753 -44.012  0.00  0.00     0.087 A 
ATOM      3  C   UNL d   1     -55.837 -98.757 -45.021  0.00  0.00     0.004 A 
ATOM      4  C   UNL d   1     -55.229 -99.853 -43.946  0.00  0.00     0.019 A 
ATOM      5  C   UNL d   1     -55.021 -98.863 -44.950  0.00  0.00     0.000 A 
ATOM      6  C   UNL d   1     -54.720 -99.412 -44.412  0.00  0.00     0.002 A 
ENDROOT
BRANCH   1   7
ATOM      7  C   UNL d   1     -57.162 -99.102 -44.618  0.00  0.00     0.112 A 
ATOM      8  N   UNL d   1     -57.741 -99.041 -44.048  0.00  0.00    -0.238 NA
ATOM      9  C   UNL d   1     -58.463 -98.940 -44.435  0.00  0.00     0.088 A 
ATOM     10  C   UNL d   1     -59.239 -98.846 -44.150  0.00  0.00     0.020 A 
ATOM     11  C   UNL d   1     -58.320 -98.941 -45.244  0.00  0.00     0.049 A 
ATOM     12  C   UNL d   1     -59.862 -98.755 -44.677  0.00  0.00     0.002 A 
ATOM     13  C   UNL d   1     -59.721 -98.756 -45.493  0.00  0.00     0.001 A 
ATOM     14  C   UNL d   1     -58.946 -98.849 -45.777  0.00  0.00     0.008 A 
ATOM     15  S   UNL d   1     -57.514 -99.042 -45.354  0.00  0.00    -0.066 SA
ENDBRANCH   1   7
BRANCH   2  16
ATOM     16  N   UNL d   1     -56.557-100.199 -43.542  0.00  0.00    -0.206 NA
ATOM     17  C   UNL d   1     -56.548-101.032 -43.593  0.00  0.00     0.304 C 
ATOM     18  O   UNL d   1     -57.061-101.475 -43.125  0.00  0.00    -0.263 OA
BRANCH  17  19
ATOM     19  C   UNL d   1     -56.029-101.414 -44.107  0.00  0.00     0.182 A 
ATOM     20  O   UNL d   1     -56.307-101.738 -44.814  0.00  0.00    -0.296 OA
ATOM     21  C   UNL d   1     -55.788-102.121 -45.328  0.00  0.00     0.150 A 
ATOM     22  C   UNL d   1     -54.990-102.179 -45.137  0.00  0.00     0.149 A 
ATOM     23  O   UNL d   1     -54.711-101.855 -44.429  0.00  0.00    -0.299 OA
ATOM     24  C   UNL d   1     -55.232-101.473 -43.915  0.00  0.00     0.152 A 
ENDBRANCH  17  19
ENDBRANCH   2  16
TORSDOF 3
ENDMDL
