MODEL 1
REMARK VINA RESULT:      -2.5      0.000      0.000
REMARK  4 active torsions:
REMARK  status: ('A' for Active; 'I' for Inactive)
REMARK    1  A    between atoms: N_2  and  S_1 
REMARK    2  A    between atoms: C_3  and  S_1 
REMARK    3  A    between atoms: O_15  and  C_7 
REMARK    4  A    between atoms: C_18  and  O_15 
ROOT
ATOM      1  C   UNL d   1      30.802  16.213 -24.140  0.00  0.00     0.106 A 
ATOM      2  C   UNL d   1      31.313  16.714 -23.729  0.00  0.00     0.040 A 
ATOM      3  C   UNL d   1      32.113  16.717 -23.904  0.00  0.00     0.128 A 
ATOM      4  C   UNL d   1      32.409  16.218 -24.490  0.00  0.00     0.163 A 
ATOM      5  C   UNL d   1      31.099  15.714 -24.726  0.00  0.00     0.015 A 
ATOM      6  C   UNL d   1      31.899  15.717 -24.901  0.00  0.00     0.032 A 
ATOM      7  F   UNL d   1      33.217  16.221 -24.667  0.00  0.00    -0.202 F 
ENDROOT
BRANCH   1   8
ATOM      8  S   UNL d   1      29.994  16.210 -23.963  0.00  0.00     0.272 S 
ATOM      9  O   UNL d   1      29.835  16.575 -24.688  0.00  0.00    -0.200 OA
ATOM     10  O   UNL d   1      30.153  15.845 -23.240  0.00  0.00    -0.200 OA
BRANCH   8  11
ATOM     11  N   UNL d   1      29.187  16.207 -23.787  0.00  0.00    -0.225 N 
ATOM     12  C   UNL d   1      28.789  16.918 -23.656  0.00  0.00     0.118 A 
ATOM     13  C   UNL d   1      27.982  16.916 -23.480  0.00  0.00     0.142 A 
ATOM     14  O   UNL d   1      27.571  16.202 -23.435  0.00  0.00    -0.300 OA
ATOM     15  C   UNL d   1      27.969  15.490 -23.565  0.00  0.00     0.142 A 
ATOM     16  C   UNL d   1      28.776  15.493 -23.741  0.00  0.00     0.118 A 
ENDBRANCH   8  11
ENDBRANCH   1   8
BRANCH   3  17
ATOM     17  O   UNL d   1      32.625  17.225 -23.487  0.00  0.00    -0.303 OA
BRANCH  17  18
ATOM     18  C   UNL d   1      32.481  18.037 -23.470  0.00  0.00     0.123 C 
ATOM     19  C   UNL d   1      32.932  18.528 -22.979  0.00  0.00     0.029 C 
ENDBRANCH  17  18
ENDBRANCH   3  17
TORSDOF 4
ENDMDL
MODEL 2
REMARK VINA RESULT:      -1.8      1.878      3.858
REMARK  4 active torsions:
REMARK  status: ('A' for Active; 'I' for Inactive)
REMARK    1  A    between atoms: N_2  and  S_1 
REMARK    2  A    between atoms: C_3  and  S_1 
REMARK    3  A    between atoms: O_15  and  C_7 
REMARK    4  A    between atoms: C_18  and  O_15 
ROOT
ATOM      1  C   UNL d   1      30.286  16.876 -24.552  0.00  0.00     0.106 A 
ATOM      2  C   UNL d   1      29.597  16.461 -24.367  0.00  0.00     0.040 A 
ATOM      3  C   UNL d   1      28.866  16.814 -24.472  0.00  0.00     0.128 A 
ATOM      4  C   UNL d   1      28.816  17.584 -24.762  0.00  0.00     0.163 A 
ATOM      5  C   UNL d   1      30.236  17.647 -24.843  0.00  0.00     0.015 A 
ATOM      6  C   UNL d   1      29.505  17.999 -24.947  0.00  0.00     0.032 A 
ATOM      7  F   UNL d   1      28.077  17.940 -24.868  0.00  0.00    -0.202 F 
ENDROOT
BRANCH   1   8
ATOM      8  S   UNL d   1      31.025  16.520 -24.447  0.00  0.00     0.272 S 
ATOM      9  O   UNL d   1      31.198  17.059 -23.843  0.00  0.00    -0.200 OA
ATOM     10  O   UNL d   1      30.852  15.982 -25.049  0.00  0.00    -0.200 OA
BRANCH   8  11
ATOM     11  N   UNL d   1      31.763  16.165 -24.341  0.00  0.00    -0.225 N 
ATOM     12  C   UNL d   1      32.302  16.136 -24.966  0.00  0.00     0.118 A 
ATOM     13  C   UNL d   1      33.040  15.780 -24.861  0.00  0.00     0.142 A 
ATOM     14  O   UNL d   1      33.241  15.453 -24.130  0.00  0.00    -0.300 OA
ATOM     15  C   UNL d   1      32.702  15.482 -23.505  0.00  0.00     0.142 A 
ATOM     16  C   UNL d   1      31.964  15.837 -23.611  0.00  0.00     0.118 A 
ENDBRANCH   8  11
ENDBRANCH   1   8
BRANCH   3  17
ATOM     17  O   UNL d   1      28.173  16.391 -24.284  0.00  0.00    -0.303 OA
BRANCH  17  18
ATOM     18  C   UNL d   1      28.120  15.977 -23.573  0.00  0.00     0.123 C 
ATOM     19  C   UNL d   1      27.459  15.502 -23.418  0.00  0.00     0.029 C 
ENDBRANCH  17  18
ENDBRANCH   3  17
TORSDOF 4
ENDMDL
MODEL 3
REMARK VINA RESULT:      -1.7      6.457      8.276
REMARK  4 active torsions:
REMARK  status: ('A' for Active; 'I' for Inactive)
REMARK    1  A    between atoms: N_2  and  S_1 
REMARK    2  A    between atoms: C_3  and  S_1 
REMARK    3  A    between atoms: O_15  and  C_7 
REMARK    4  A    between atoms: C_18  and  O_15 
ROOT
ATOM      1  C   UNL d   1      32.568  23.041 -20.112  0.00  0.00     0.106 A 
ATOM      2  C   UNL d   1      32.677  22.296 -20.448  0.00  0.00     0.040 A 
ATOM      3  C   UNL d   1      32.684  22.212 -21.263  0.00  0.00     0.128 A 
ATOM      4  C   UNL d   1      32.583  22.871 -21.748  0.00  0.00     0.163 A 
ATOM      5  C   UNL d   1      32.467  23.701 -20.596  0.00  0.00     0.015 A 
ATOM      6  C   UNL d   1      32.474  23.616 -21.411  0.00  0.00     0.032 A 
ATOM      7  F   UNL d   1      32.590  22.786 -22.570  0.00  0.00    -0.202 F 
ENDROOT
BRANCH   1   8
ATOM      8  S   UNL d   1      32.561  23.127 -19.289  0.00  0.00     0.272 S 
ATOM      9  O   UNL d   1      33.240  22.659 -19.234  0.00  0.00    -0.200 OA
ATOM     10  O   UNL d   1      31.882  23.594 -19.344  0.00  0.00    -0.200 OA
BRANCH   8  11
ATOM     11  N   UNL d   1      32.553  23.212 -18.467  0.00  0.00    -0.225 N 
ATOM     12  C   UNL d   1      31.934  23.614 -18.099  0.00  0.00     0.118 A 
ATOM     13  C   UNL d   1      31.927  23.700 -17.277  0.00  0.00     0.142 A 
ATOM     14  O   UNL d   1      32.538  23.383 -16.822  0.00  0.00    -0.300 OA
ATOM     15  C   UNL d   1      33.158  22.981 -17.191  0.00  0.00     0.142 A 
ATOM     16  C   UNL d   1      33.165  22.896 -18.013  0.00  0.00     0.118 A 
ENDBRANCH   8  11
ENDBRANCH   1   8
BRANCH   3  17
ATOM     17  O   UNL d   1      32.794  21.458 -21.599  0.00  0.00    -0.303 OA
BRANCH  17  18
ATOM     18  C   UNL d   1      32.527  20.785 -21.204  0.00  0.00     0.123 C 
ATOM     19  C   UNL d   1      32.853  20.044 -21.380  0.00  0.00     0.029 C 
ENDBRANCH  17  18
ENDBRANCH   3  17
TORSDOF 4
ENDMDL
MODEL 4
REMARK VINA RESULT:      -1.6      2.389      3.537
REMARK  4 active torsions:
REMARK  status: ('A' for Active; 'I' for Inactive)
REMARK    1  A    between atoms: N_2  and  S_1 
REMARK    2  A    between atoms: C_3  and  S_1 
REMARK    3  A    between atoms: O_15  and  C_7 
REMARK    4  A    between atoms: C_18  and  O_15 
ROOT
ATOM      1  C   UNL d   1      32.578  18.673 -23.917  0.00  0.00     0.106 A 
ATOM      2  C   UNL d   1      32.799  19.075 -23.232  0.00  0.00     0.040 A 
ATOM      3  C   UNL d   1      33.018  19.863 -23.272  0.00  0.00     0.128 A 
ATOM      4  C   UNL d   1      33.019  20.255 -23.997  0.00  0.00     0.163 A 
ATOM      5  C   UNL d   1      32.580  19.065 -24.643  0.00  0.00     0.015 A 
ATOM      6  C   UNL d   1      32.799  19.853 -24.683  0.00  0.00     0.032 A 
ATOM      7  F   UNL d   1      33.241  21.051 -24.038  0.00  0.00    -0.202 F 
ENDROOT
BRANCH   1   8
ATOM      8  S   UNL d   1      32.357  17.877 -23.877  0.00  0.00     0.272 S 
ATOM      9  O   UNL d   1      33.147  17.662 -23.763  0.00  0.00    -0.200 OA
ATOM     10  O   UNL d   1      31.567  18.091 -23.991  0.00  0.00    -0.200 OA
BRANCH   8  11
ATOM     11  N   UNL d   1      32.135  17.082 -23.836  0.00  0.00    -0.225 N 
ATOM     12  C   UNL d   1      32.628  16.533 -23.465  0.00  0.00     0.118 A 
ATOM     13  C   UNL d   1      32.406  15.739 -23.425  0.00  0.00     0.142 A 
ATOM     14  O   UNL d   1      31.692  15.491 -23.756  0.00  0.00    -0.300 OA
ATOM     15  C   UNL d   1      31.200  16.039 -24.127  0.00  0.00     0.142 A 
ATOM     16  C   UNL d   1      31.421  16.834 -24.167  0.00  0.00     0.118 A 
ENDBRANCH   8  11
ENDBRANCH   1   8
BRANCH   3  17
ATOM     17  O   UNL d   1      33.240  20.266 -22.578  0.00  0.00    -0.303 OA
BRANCH  17  18
ATOM     18  C   UNL d   1      32.803  20.170 -21.885  0.00  0.00     0.123 C 
ATOM     19  C   UNL d   1      32.930  20.676 -21.241  0.00  0.00     0.029 C 
ENDBRANCH  17  18
ENDBRANCH   3  17
TORSDOF 4
ENDMDL
MODEL 5
REMARK VINA RESULT:      -1.6      1.768      3.740
REMARK  4 active torsions:
REMARK  status: ('A' for Active; 'I' for Inactive)
REMARK    1  A    between atoms: N_2  and  S_1 
REMARK    2  A    between atoms: C_3  and  S_1 
REMARK    3  A    between atoms: O_15  and  C_7 
REMARK    4  A    between atoms: C_18  and  O_15 
ROOT
ATOM      1  C   UNL d   1      30.606  16.907 -24.498  0.00  0.00     0.106 A 
ATOM      2  C   UNL d   1      29.889  17.088 -24.133  0.00  0.00     0.040 A 
ATOM      3  C   UNL d   1      29.236  16.607 -24.249  0.00  0.00     0.128 A 
ATOM      4  C   UNL d   1      29.295  15.940 -24.731  0.00  0.00     0.163 A 
ATOM      5  C   UNL d   1      30.665  16.240 -24.981  0.00  0.00     0.015 A 
ATOM      6  C   UNL d   1      30.012  15.759 -25.097  0.00  0.00     0.032 A 
ATOM      7  F   UNL d   1      28.636  15.454 -24.848  0.00  0.00    -0.202 F 
ENDROOT
BRANCH   1   8
ATOM      8  S   UNL d   1      31.265  17.393 -24.381  0.00  0.00     0.272 S 
ATOM      9  O   UNL d   1      30.958  17.939 -24.921  0.00  0.00    -0.200 OA
ATOM     10  O   UNL d   1      31.571  16.847 -23.842  0.00  0.00    -0.200 OA
BRANCH   8  11
ATOM     11  N   UNL d   1      31.923  17.878 -24.264  0.00  0.00    -0.225 N 
ATOM     12  C   UNL d   1      32.317  18.204 -24.912  0.00  0.00     0.118 A 
ATOM     13  C   UNL d   1      32.975  18.689 -24.795  0.00  0.00     0.142 A 
ATOM     14  O   UNL d   1      33.240  18.850 -24.030  0.00  0.00    -0.300 OA
ATOM     15  C   UNL d   1      32.846  18.524 -23.383  0.00  0.00     0.142 A 
ATOM     16  C   UNL d   1      32.188  18.039 -23.499  0.00  0.00     0.118 A 
ENDBRANCH   8  11
ENDBRANCH   1   8
BRANCH   3  17
ATOM     17  O   UNL d   1      28.514  16.793 -23.878  0.00  0.00    -0.303 OA
BRANCH  17  18
ATOM     18  C   UNL d   1      28.386  17.550 -23.577  0.00  0.00     0.123 C 
ATOM     19  C   UNL d   1      27.699  17.713 -23.144  0.00  0.00     0.029 C 
ENDBRANCH  17  18
ENDBRANCH   3  17
TORSDOF 4
ENDMDL
MODEL 6
REMARK VINA RESULT:      -1.6      4.049      5.798
REMARK  4 active torsions:
REMARK  status: ('A' for Active; 'I' for Inactive)
REMARK    1  A    between atoms: N_2  and  S_1 
REMARK    2  A    between atoms: C_3  and  S_1 
REMARK    3  A    between atoms: O_15  and  C_7 
REMARK    4  A    between atoms: C_18  and  O_15 
ROOT
ATOM      1  C   UNL d   1      32.992  20.559 -21.602  0.00  0.00     0.106 A 
ATOM      2  C   UNL d   1      32.808  21.359 -21.680  0.00  0.00     0.040 A 
ATOM      3  C   UNL d   1      32.838  21.853 -21.027  0.00  0.00     0.128 A 
ATOM      4  C   UNL d   1      33.054  21.551 -20.291  0.00  0.00     0.163 A 
ATOM      5  C   UNL d   1      33.207  20.257 -20.865  0.00  0.00     0.015 A 
ATOM      6  C   UNL d   1      33.238  20.751 -20.212  0.00  0.00     0.032 A 
ATOM      7  F   UNL d   1      33.085  22.049 -19.631  0.00  0.00    -0.202 F 
ENDROOT
BRANCH   1   8
ATOM      8  S   UNL d   1      32.961  20.061 -22.261  0.00  0.00     0.272 S 
ATOM      9  O   UNL d   1      33.239  20.675 -22.739  0.00  0.00    -0.200 OA
ATOM     10  O   UNL d   1      32.683  19.447 -21.783  0.00  0.00    -0.200 OA
BRANCH   8  11
ATOM     11  N   UNL d   1      32.930  19.563 -22.919  0.00  0.00    -0.225 N 
ATOM     12  C   UNL d   1      33.140  19.848 -23.664  0.00  0.00     0.118 A 
ATOM     13  C   UNL d   1      33.109  19.350 -24.323  0.00  0.00     0.142 A 
ATOM     14  O   UNL d   1      32.867  18.566 -24.237  0.00  0.00    -0.300 OA
ATOM     15  C   UNL d   1      32.657  18.280 -23.492  0.00  0.00     0.142 A 
ATOM     16  C   UNL d   1      32.688  18.778 -22.833  0.00  0.00     0.118 A 
ENDBRANCH   8  11
ENDBRANCH   1   8
BRANCH   3  17
ATOM     17  O   UNL d   1      32.652  22.660 -21.111  0.00  0.00    -0.303 OA
BRANCH  17  18
ATOM     18  C   UNL d   1      31.928  22.888 -21.434  0.00  0.00     0.123 C 
ATOM     19  C   UNL d   1      31.799  23.677 -21.647  0.00  0.00     0.029 C 
ENDBRANCH  17  18
ENDBRANCH   3  17
TORSDOF 4
ENDMDL
MODEL 7
REMARK VINA RESULT:      -1.1      5.504      6.823
REMARK  4 active torsions:
REMARK  status: ('A' for Active; 'I' for Inactive)
REMARK    1  A    between atoms: N_2  and  S_1 
REMARK    2  A    between atoms: C_3  and  S_1 
REMARK    3  A    between atoms: O_15  and  C_7 
REMARK    4  A    between atoms: C_18  and  O_15 
ROOT
ATOM      1  C   UNL d   1      32.863  21.446 -21.607  0.00  0.00     0.106 A 
ATOM      2  C   UNL d   1      33.014  21.694 -22.379  0.00  0.00     0.040 A 
ATOM      3  C   UNL d   1      33.084  21.143 -22.980  0.00  0.00     0.128 A 
ATOM      4  C   UNL d   1      33.005  20.339 -22.815  0.00  0.00     0.163 A 
ATOM      5  C   UNL d   1      32.783  20.642 -21.441  0.00  0.00     0.015 A 
ATOM      6  C   UNL d   1      32.854  20.090 -22.043  0.00  0.00     0.032 A 
ATOM      7  F   UNL d   1      33.076  19.782 -23.422  0.00  0.00    -0.202 F 
ENDROOT
BRANCH   1   8
ATOM      8  S   UNL d   1      32.791  22.003 -20.999  0.00  0.00     0.272 S 
ATOM      9  O   UNL d   1      33.195  22.558 -21.461  0.00  0.00    -0.200 OA
ATOM     10  O   UNL d   1      32.388  21.448 -20.539  0.00  0.00    -0.200 OA
BRANCH   8  11
ATOM     11  N   UNL d   1      32.720  22.559 -20.393  0.00  0.00    -0.225 N 
ATOM     12  C   UNL d   1      32.128  23.133 -20.425  0.00  0.00     0.118 A 
ATOM     13  C   UNL d   1      32.056  23.689 -19.818  0.00  0.00     0.142 A 
ATOM     14  O   UNL d   1      32.577  23.672 -19.178  0.00  0.00    -0.300 OA
ATOM     15  C   UNL d   1      33.169  23.098 -19.146  0.00  0.00     0.142 A 
ATOM     16  C   UNL d   1      33.240  22.542 -19.753  0.00  0.00     0.118 A 
ENDBRANCH   8  11
ENDBRANCH   1   8
BRANCH   3  17
ATOM     17  O   UNL d   1      33.237  21.398 -23.758  0.00  0.00    -0.303 OA
BRANCH  17  18
ATOM     18  C   UNL d   1      33.204  22.200 -23.946  0.00  0.00     0.123 C 
ATOM     19  C   UNL d   1      33.213  22.441 -24.739  0.00  0.00     0.029 C 
ENDBRANCH  17  18
ENDBRANCH   3  17
TORSDOF 4
ENDMDL
MODEL 8
REMARK VINA RESULT:      -0.5      5.934      6.904
REMARK  4 active torsions:
REMARK  status: ('A' for Active; 'I' for Inactive)
REMARK    1  A    between atoms: N_2  and  S_1 
REMARK    2  A    between atoms: C_3  and  S_1 
REMARK    3  A    between atoms: O_15  and  C_7 
REMARK    4  A    between atoms: C_18  and  O_15 
ROOT
ATOM      1  C   UNL d   1      33.225  21.499 -21.852  0.00  0.00     0.106 A 
ATOM      2  C   UNL d   1      33.229  21.997 -21.195  0.00  0.00     0.040 A 
ATOM      3  C   UNL d   1      33.229  21.680 -20.440  0.00  0.00     0.128 A 
ATOM      4  C   UNL d   1      33.224  20.862 -20.336  0.00  0.00     0.163 A 
ATOM      5  C   UNL d   1      33.220  20.681 -21.748  0.00  0.00     0.015 A 
ATOM      6  C   UNL d   1      33.220  20.364 -20.993  0.00  0.00     0.032 A 
ATOM      7  F   UNL d   1      33.224  20.542 -19.573  0.00  0.00    -0.202 F 
ENDROOT
BRANCH   1   8
ATOM      8  S   UNL d   1      33.225  21.819 -22.615  0.00  0.00     0.272 S 
ATOM      9  O   UNL d   1      33.212  22.582 -22.295  0.00  0.00    -0.200 OA
ATOM     10  O   UNL d   1      33.238  21.058 -22.935  0.00  0.00    -0.200 OA
BRANCH   8  11
ATOM     11  N   UNL d   1      33.225  22.139 -23.376  0.00  0.00    -0.225 N 
ATOM     12  C   UNL d   1      33.222  22.957 -23.482  0.00  0.00     0.118 A 
ATOM     13  C   UNL d   1      33.222  23.277 -24.243  0.00  0.00     0.142 A 
ATOM     14  O   UNL d   1      33.226  22.779 -24.901  0.00  0.00    -0.300 OA
ATOM     15  C   UNL d   1      33.229  21.961 -24.796  0.00  0.00     0.142 A 
ATOM     16  C   UNL d   1      33.229  21.641 -24.035  0.00  0.00     0.118 A 
ENDBRANCH   8  11
ENDBRANCH   1   8
BRANCH   3  17
ATOM     17  O   UNL d   1      33.234  22.187 -19.779  0.00  0.00    -0.303 OA
BRANCH  17  18
ATOM     18  C   UNL d   1      32.695  22.810 -19.730  0.00  0.00     0.123 C 
ATOM     19  C   UNL d   1      32.676  23.290 -19.055  0.00  0.00     0.029 C 
ENDBRANCH  17  18
ENDBRANCH   3  17
TORSDOF 4
ENDMDL
