MODEL 1
REMARK VINA RESULT:       4.9      0.000      0.000
REMARK  5 active torsions:
REMARK  status: ('A' for Active; 'I' for Inactive)
REMARK    1  A    between atoms: C_7  and  C_1 
REMARK    2  A    between atoms: C_8  and  N_2 
REMARK    3  A    between atoms: C_13  and  C_7 
REMARK    4  A    between atoms: C_14  and  C_8 
REMARK    5  A    between atoms: O_22  and  C_15 
ROOT
ATOM      1  C   UNL d   1      32.155  21.899 -21.182  0.00  0.00     0.095 A 
ATOM      2  N   UNL d   1      32.874  21.126 -22.169  0.00  0.00    -0.304 N 
ATOM      3  C   UNL d   1      32.130  22.540 -21.710  0.00  0.00     0.202 A 
ATOM      4  C   UNL d   1      32.527  21.187 -21.407  0.00  0.00     0.087 A 
ATOM      5  C   UNL d   1      32.475  22.469 -22.458  0.00  0.00     0.057 A 
ATOM      6  C   UNL d   1      32.849  21.760 -22.691  0.00  0.00     0.067 A 
ATOM      7  C   UNL d   1      33.189  21.694 -23.433  0.00  0.00     0.020 A 
ATOM      8  C   UNL d   1      32.452  23.107 -22.987  0.00  0.00     0.029 A 
ATOM      9  O   UNL d   1      31.760  23.250 -21.486  0.00  0.00    -0.286 OA
ATOM     10  C   UNL d   1      32.797  23.031 -23.733  0.00  0.00     0.094 A 
ATOM     11  C   UNL d   1      33.164  22.328 -23.955  0.00  0.00     0.026 A 
ENDROOT
BRANCH   1  12
ATOM     12  C   UNL d   1      31.812  21.967 -20.434  0.00  0.00     0.200 C 
ATOM     13  O   UNL d   1      31.009  21.869 -20.345  0.00  0.00    -0.286 OA
BRANCH  12  14
ATOM     14  C   UNL d   1      32.289  22.134 -19.782  0.00  0.00     0.039 A 
ATOM     15  C   UNL d   1      32.542  21.522 -19.294  0.00  0.00     0.003 A 
ATOM     16  C   UNL d   1      33.017  21.695 -18.646  0.00  0.00     0.000 A 
ATOM     17  C   UNL d   1      33.238  22.476 -18.487  0.00  0.00     0.000 A 
ATOM     18  C   UNL d   1      32.978  23.083 -18.985  0.00  0.00     0.000 A 
ATOM     19  C   UNL d   1      32.500  22.915 -19.637  0.00  0.00     0.003 A 
ENDBRANCH  12  14
ENDBRANCH   1  12
BRANCH   2  20
ATOM     20  C   UNL d   1      33.241  20.423 -22.391  0.00  0.00     0.080 C 
BRANCH  20  21
ATOM     21  C   UNL d   1      32.781  19.775 -22.627  0.00  0.00     0.018 A 
ATOM     22  C   UNL d   1      32.749  19.109 -22.145  0.00  0.00     0.002 A 
ATOM     23  C   UNL d   1      32.295  18.465 -22.376  0.00  0.00     0.000 A 
ATOM     24  C   UNL d   1      31.877  18.484 -23.079  0.00  0.00     0.000 A 
ATOM     25  C   UNL d   1      31.915  19.160 -23.560  0.00  0.00     0.000 A 
ATOM     26  C   UNL d   1      31.423  17.840 -23.310  0.00  0.00     0.000 C 
ATOM     27  C   UNL d   1      32.369  19.805 -23.329  0.00  0.00     0.002 A 
ENDBRANCH  20  21
ENDBRANCH   2  20
BRANCH  10  28
ATOM     28  O   UNL d   1      32.769  23.672 -24.253  0.00  0.00    -0.328 OA
ATOM     29  C   UNL d   1      32.604  23.539 -25.047  0.00  0.00     0.181 C 
ENDBRANCH  10  28
TORSDOF 5
ENDMDL
MODEL 2
REMARK VINA RESULT:       6.3      3.858      6.190
REMARK  5 active torsions:
REMARK  status: ('A' for Active; 'I' for Inactive)
REMARK    1  A    between atoms: C_7  and  C_1 
REMARK    2  A    between atoms: C_8  and  N_2 
REMARK    3  A    between atoms: C_13  and  C_7 
REMARK    4  A    between atoms: C_14  and  C_8 
REMARK    5  A    between atoms: O_22  and  C_15 
ROOT
ATOM      1  C   UNL d   1      30.706  16.652 -24.447  0.00  0.00     0.095 A 
ATOM      2  N   UNL d   1      30.383  18.048 -24.640  0.00  0.00    -0.304 N 
ATOM      3  C   UNL d   1      29.960  16.532 -24.104  0.00  0.00     0.202 A 
ATOM      4  C   UNL d   1      30.925  17.411 -24.718  0.00  0.00     0.087 A 
ATOM      5  C   UNL d   1      29.434  17.166 -24.032  0.00  0.00     0.057 A 
ATOM      6  C   UNL d   1      29.644  17.929 -24.300  0.00  0.00     0.067 A 
ATOM      7  C   UNL d   1      29.121  18.554 -24.228  0.00  0.00     0.020 A 
ATOM      8  C   UNL d   1      28.688  17.050 -23.690  0.00  0.00     0.029 A 
ATOM      9  O   UNL d   1      29.742  15.777 -23.834  0.00  0.00    -0.286 OA
ATOM     10  C   UNL d   1      28.167  17.687 -23.621  0.00  0.00     0.094 A 
ATOM     11  C   UNL d   1      28.382  18.435 -23.888  0.00  0.00     0.026 A 
ENDROOT
BRANCH   1  12
ATOM     12  C   UNL d   1      31.233  16.021 -24.520  0.00  0.00     0.200 C 
ATOM     13  O   UNL d   1      31.116  15.459 -25.096  0.00  0.00    -0.286 OA
BRANCH  12  14
ATOM     14  C   UNL d   1      31.877  15.967 -24.005  0.00  0.00     0.039 A 
ATOM     15  C   UNL d   1      32.604  16.282 -24.227  0.00  0.00     0.003 A 
ATOM     16  C   UNL d   1      33.240  16.225 -23.710  0.00  0.00     0.000 A 
ATOM     17  C   UNL d   1      33.150  15.856 -22.976  0.00  0.00     0.000 A 
ATOM     18  C   UNL d   1      32.414  15.543 -22.764  0.00  0.00     0.000 A 
ATOM     19  C   UNL d   1      31.771  15.597 -23.279  0.00  0.00     0.003 A 
ENDBRANCH  12  14
ENDBRANCH   1  12
BRANCH   2  20
ATOM     20  C   UNL d   1      30.598  18.796 -24.907  0.00  0.00     0.080 C 
BRANCH  20  21
ATOM     21  C   UNL d   1      31.264  19.172 -24.588  0.00  0.00     0.018 A 
ATOM     22  C   UNL d   1      31.348  19.214 -23.770  0.00  0.00     0.002 A 
ATOM     23  C   UNL d   1      32.007  19.586 -23.450  0.00  0.00     0.000 A 
ATOM     24  C   UNL d   1      32.575  19.913 -23.939  0.00  0.00     0.000 A 
ATOM     25  C   UNL d   1      32.483  19.866 -24.763  0.00  0.00     0.000 A 
ATOM     26  C   UNL d   1      33.234  20.285 -23.619  0.00  0.00     0.000 C 
ATOM     27  C   UNL d   1      31.824  19.494 -25.084  0.00  0.00     0.002 A 
ENDBRANCH  20  21
ENDBRANCH   2  20
BRANCH  10  28
ATOM     28  O   UNL d   1      27.426  17.560 -23.279  0.00  0.00    -0.328 OA
ATOM     29  C   UNL d   1      27.232  16.810 -23.005  0.00  0.00     0.181 C 
ENDBRANCH  10  28
TORSDOF 5
ENDMDL
