MODEL 1
REMARK VINA RESULT:      16.4      0.000      0.000
REMARK  5 active torsions:
REMARK  status: ('A' for Active; 'I' for Inactive)
REMARK    1  A    between atoms: N_2  and  C_1 
REMARK    2  A    between atoms: C_5  and  C_1 
REMARK    3  A    between atoms: O_4  and  N_2 
REMARK    4  A    between atoms: C_3  and  O_4 
REMARK    5  A    between atoms: C_6  and  C_3 
ROOT
ATOM      1  O   UNL d   1      14.291  12.238  -2.285  0.00  0.00    -0.168 OA
ENDROOT
BRANCH   1   2
ATOM      2  C   UNL d   1      13.476  12.094  -2.670  0.00  0.00     0.319 C 
ATOM      3  O   UNL d   1      12.789  11.785  -2.180  0.00  0.00    -0.257 OA
BRANCH   2   4
ATOM      4  C   UNL d   1      13.367  12.249  -3.476  0.00  0.00     0.065 A 
ATOM      5  C   UNL d   1      13.769  11.780  -4.034  0.00  0.00     0.005 A 
ATOM      6  C   UNL d   1      13.652  11.944  -4.841  0.00  0.00     0.000 A 
ATOM      7  C   UNL d   1      13.155  12.551  -5.087  0.00  0.00     0.000 A 
ATOM      8  C   UNL d   1      12.771  12.998  -4.510  0.00  0.00     0.000 A 
ATOM      9  C   UNL d   1      13.051  12.700  -5.892  0.00  0.00     0.000 C 
ATOM     10  C   UNL d   1      12.871  12.855  -3.722  0.00  0.00     0.005 A 
ENDBRANCH   2   4
ENDBRANCH   1   2
BRANCH   1  11
ATOM     11  N   UNL d   1      14.491  11.889  -1.576  0.00  0.00    -0.100 NA
BRANCH  11  12
ATOM     12  C   UNL d   1      15.065  12.209  -1.087  0.00  0.00     0.228 C 
ATOM     13  N   UNL d   1      15.756  11.782  -0.946  0.00  0.00    -0.123 N 
BRANCH  12  14
ATOM     14  C   UNL d   1      14.970  12.941  -0.737  0.00  0.00     0.121 A 
ATOM     15  N   UNL d   1      15.580  13.482  -0.742  0.00  0.00    -0.241 NA
ATOM     16  C   UNL d   1      15.476  14.228  -0.382  0.00  0.00     0.099 A 
ATOM     17  C   UNL d   1      14.755  14.413  -0.022  0.00  0.00     0.021 A 
ATOM     18  C   UNL d   1      14.135  13.860  -0.018  0.00  0.00     0.003 A 
ATOM     19  C   UNL d   1      14.249  13.125  -0.377  0.00  0.00     0.022 A 
ENDBRANCH  12  14
ENDBRANCH  11  12
ENDBRANCH   1  11
TORSDOF 5
ENDMDL
MODEL 2
REMARK VINA RESULT:      19.0      1.083      1.601
REMARK  5 active torsions:
REMARK  status: ('A' for Active; 'I' for Inactive)
REMARK    1  A    between atoms: N_2  and  C_1 
REMARK    2  A    between atoms: C_5  and  C_1 
REMARK    3  A    between atoms: O_4  and  N_2 
REMARK    4  A    between atoms: C_3  and  O_4 
REMARK    5  A    between atoms: C_6  and  C_3 
ROOT
ATOM      1  O   UNL d   1      14.775  12.707  -1.153  0.00  0.00    -0.168 OA
ENDROOT
BRANCH   1   2
ATOM      2  C   UNL d   1      14.055  12.191  -1.371  0.00  0.00     0.319 C 
ATOM      3  O   UNL d   1      13.578  11.780  -0.731  0.00  0.00    -0.257 OA
BRANCH   2   4
ATOM      4  C   UNL d   1      13.838  12.100  -2.165  0.00  0.00     0.065 A 
ATOM      5  C   UNL d   1      13.059  11.872  -2.345  0.00  0.00     0.005 A 
ATOM      6  C   UNL d   1      12.851  11.783  -3.146  0.00  0.00     0.000 A 
ATOM      7  C   UNL d   1      13.396  11.916  -3.747  0.00  0.00     0.000 A 
ATOM      8  C   UNL d   1      14.161  12.141  -3.536  0.00  0.00     0.000 A 
ATOM      9  C   UNL d   1      13.173  11.824  -4.536  0.00  0.00     0.000 C 
ATOM     10  C   UNL d   1      14.382  12.233  -2.765  0.00  0.00     0.005 A 
ENDBRANCH   2   4
ENDBRANCH   1   2
BRANCH   1  11
ATOM     11  N   UNL d   1      14.949  12.883  -0.376  0.00  0.00    -0.100 NA
BRANCH  11  12
ATOM     12  C   UNL d   1      15.601  13.336  -0.174  0.00  0.00     0.228 C 
ATOM     13  N   UNL d   1      16.319  12.961  -0.021  0.00  0.00    -0.123 N 
BRANCH  12  14
ATOM     14  C   UNL d   1      15.557  14.150  -0.121  0.00  0.00     0.121 A 
ATOM     15  N   UNL d   1      16.238  14.598  -0.080  0.00  0.00    -0.241 NA
ATOM     16  C   UNL d   1      16.187  15.429  -0.026  0.00  0.00     0.099 A 
ATOM     17  C   UNL d   1      15.444  15.793  -0.014  0.00  0.00     0.021 A 
ATOM     18  C   UNL d   1      14.752  15.336  -0.056  0.00  0.00     0.003 A 
ATOM     19  C   UNL d   1      14.815  14.515  -0.109  0.00  0.00     0.022 A 
ENDBRANCH  12  14
ENDBRANCH  11  12
ENDBRANCH   1  11
TORSDOF 5
ENDMDL
