MODEL 1
REMARK VINA RESULT:      -5.3      0.000      0.000
REMARK  2 active torsions:
REMARK  status: ('A' for Active; 'I' for Inactive)
REMARK    1  A    between atoms: C_10  and  C_3 
REMARK    2  A    between atoms: O_20  and  C_16 
ROOT
ATOM      1  C   UNL d   1     -41.538-122.408 -50.893  0.00  0.00     0.203 A 
ATOM      2  C   UNL d   1     -41.433-122.397 -51.715  0.00  0.00     0.101 A 
ATOM      3  C   UNL d   1     -41.748-123.113 -50.501  0.00  0.00     0.064 A 
ATOM      4  C   UNL d   1     -41.541-123.105 -52.151  0.00  0.00     0.109 A 
ATOM      5  C   UNL d   1     -41.853-123.817 -50.943  0.00  0.00     0.126 A 
ATOM      6  C   UNL d   1     -41.227-121.701 -52.100  0.00  0.00     0.204 A 
ATOM      7  O   UNL d   1     -41.749-123.811 -51.768  0.00  0.00    -0.305 OA
ATOM      8  C   UNL d   1     -41.436-123.093 -52.975  0.00  0.00     0.067 A 
ATOM      9  C   UNL d   1     -41.124-121.694 -52.916  0.00  0.00     0.084 A 
ATOM     10  O   UNL d   1     -41.434-121.715 -50.457  0.00  0.00    -0.286 OA
ATOM     11  C   UNL d   1     -41.228-122.388 -53.352  0.00  0.00     0.201 A 
ATOM     12  O   UNL d   1     -41.123-121.008 -51.664  0.00  0.00    -0.286 OA
ATOM     13  O   UNL d   1     -41.125-122.380 -54.169  0.00  0.00    -0.286 OA
ENDROOT
BRANCH   3  14
ATOM     14  C   UNL d   1     -41.851-123.121 -49.684  0.00  0.00     0.005 A 
ATOM     15  C   UNL d   1     -41.224-123.347 -49.197  0.00  0.00     0.002 A 
ATOM     16  C   UNL d   1     -41.325-123.354 -48.381  0.00  0.00     0.024 A 
ATOM     17  C   UNL d   1     -42.044-123.140 -48.051  0.00  0.00     0.094 A 
ATOM     18  C   UNL d   1     -42.674-122.913 -48.549  0.00  0.00     0.024 A 
ATOM     19  C   UNL d   1     -42.570-122.905 -49.366  0.00  0.00     0.002 A 
BRANCH  17  20
ATOM     20  O   UNL d   1     -42.147-123.147 -47.235  0.00  0.00    -0.328 OA
ATOM     21  C   UNL d   1     -41.502-123.002 -46.731  0.00  0.00     0.181 C 
ENDBRANCH  17  20
ENDBRANCH   3  14
TORSDOF 2
ENDMDL
MODEL 2
REMARK VINA RESULT:      -5.1      0.979      4.257
REMARK  2 active torsions:
REMARK  status: ('A' for Active; 'I' for Inactive)
REMARK    1  A    between atoms: C_10  and  C_3 
REMARK    2  A    between atoms: O_20  and  C_16 
ROOT
ATOM      1  C   UNL d   1     -42.224-122.722 -50.887  0.00  0.00     0.203 A 
ATOM      2  C   UNL d   1     -42.350-122.880 -50.083  0.00  0.00     0.101 A 
ATOM      3  C   UNL d   1     -41.614-123.106 -51.305  0.00  0.00     0.064 A 
ATOM      4  C   UNL d   1     -41.855-123.431 -49.692  0.00  0.00     0.109 A 
ATOM      5  C   UNL d   1     -41.123-123.656 -50.908  0.00  0.00     0.126 A 
ATOM      6  C   UNL d   1     -42.952-122.500 -49.673  0.00  0.00     0.204 A 
ATOM      7  O   UNL d   1     -41.245-123.817 -50.100  0.00  0.00    -0.305 OA
ATOM      8  C   UNL d   1     -41.981-123.589 -48.886  0.00  0.00     0.067 A 
ATOM      9  C   UNL d   1     -43.074-122.659 -48.875  0.00  0.00     0.084 A 
ATOM     10  O   UNL d   1     -42.708-122.180 -51.279  0.00  0.00    -0.286 OA
ATOM     11  C   UNL d   1     -42.590-123.201 -48.483  0.00  0.00     0.201 A 
ATOM     12  O   UNL d   1     -43.436-121.958 -50.065  0.00  0.00    -0.286 OA
ATOM     13  O   UNL d   1     -42.711-123.360 -47.684  0.00  0.00    -0.286 OA
ENDROOT
BRANCH   3  14
ATOM     14  C   UNL d   1     -41.492-122.947 -52.104  0.00  0.00     0.005 A 
ATOM     15  C   UNL d   1     -41.571-123.556 -52.656  0.00  0.00     0.002 A 
ATOM     16  C   UNL d   1     -41.449-123.398 -53.454  0.00  0.00     0.024 A 
ATOM     17  C   UNL d   1     -41.251-122.643 -53.702  0.00  0.00     0.094 A 
ATOM     18  C   UNL d   1     -41.173-122.033 -53.138  0.00  0.00     0.024 A 
ATOM     19  C   UNL d   1     -41.294-122.192 -52.340  0.00  0.00     0.002 A 
BRANCH  17  20
ATOM     20  O   UNL d   1     -41.129-122.484 -54.500  0.00  0.00    -0.328 OA
ATOM     21  C   UNL d   1     -41.768-122.271 -54.985  0.00  0.00     0.181 C 
ENDBRANCH  17  20
ENDBRANCH   3  14
TORSDOF 2
ENDMDL
MODEL 3
REMARK VINA RESULT:      -4.7      1.266      2.094
REMARK  2 active torsions:
REMARK  status: ('A' for Active; 'I' for Inactive)
REMARK    1  A    between atoms: C_10  and  C_3 
REMARK    2  A    between atoms: O_20  and  C_16 
ROOT
ATOM      1  C   UNL d   1     -41.876-122.421 -52.809  0.00  0.00     0.203 A 
ATOM      2  C   UNL d   1     -41.879-122.386 -53.638  0.00  0.00     0.101 A 
ATOM      3  C   UNL d   1     -41.502-123.052 -52.412  0.00  0.00     0.064 A 
ATOM      4  C   UNL d   1     -41.501-122.993 -54.075  0.00  0.00     0.109 A 
ATOM      5  C   UNL d   1     -41.126-123.656 -52.856  0.00  0.00     0.126 A 
ATOM      6  C   UNL d   1     -42.248-121.763 -54.026  0.00  0.00     0.204 A 
ATOM      7  O   UNL d   1     -41.127-123.624 -53.687  0.00  0.00    -0.305 OA
ATOM      8  C   UNL d   1     -41.504-122.957 -54.904  0.00  0.00     0.067 A 
ATOM      9  C   UNL d   1     -42.248-121.731 -54.848  0.00  0.00     0.084 A 
ATOM     10  O   UNL d   1     -42.246-121.827 -52.372  0.00  0.00    -0.286 OA
ATOM     11  C   UNL d   1     -41.878-122.326 -55.286  0.00  0.00     0.201 A 
ATOM     12  O   UNL d   1     -42.618-121.169 -53.590  0.00  0.00    -0.286 OA
ATOM     13  O   UNL d   1     -41.879-122.294 -56.109  0.00  0.00    -0.286 OA
ENDROOT
BRANCH   3  14
ATOM     14  C   UNL d   1     -41.501-123.085 -51.589  0.00  0.00     0.005 A 
ATOM     15  C   UNL d   1     -41.876-123.712 -51.207  0.00  0.00     0.002 A 
ATOM     16  C   UNL d   1     -41.876-123.746 -50.385  0.00  0.00     0.024 A 
ATOM     17  C   UNL d   1     -41.506-123.160 -49.947  0.00  0.00     0.094 A 
ATOM     18  C   UNL d   1     -41.129-122.529 -50.340  0.00  0.00     0.024 A 
ATOM     19  C   UNL d   1     -41.130-122.496 -51.163  0.00  0.00     0.002 A 
BRANCH  17  20
ATOM     20  O   UNL d   1     -41.505-123.193 -49.125  0.00  0.00    -0.328 OA
ATOM     21  C   UNL d   1     -42.210-123.075 -48.702  0.00  0.00     0.181 C 
ENDBRANCH  17  20
ENDBRANCH   3  14
TORSDOF 2
ENDMDL
MODEL 4
REMARK VINA RESULT:      -4.5      1.289      4.583
REMARK  2 active torsions:
REMARK  status: ('A' for Active; 'I' for Inactive)
REMARK    1  A    between atoms: C_10  and  C_3 
REMARK    2  A    between atoms: O_20  and  C_16 
ROOT
ATOM      1  C   UNL d   1     -41.436-122.212 -52.161  0.00  0.00     0.203 A 
ATOM      2  C   UNL d   1     -41.365-122.441 -51.367  0.00  0.00     0.101 A 
ATOM      3  C   UNL d   1     -41.594-122.777 -52.753  0.00  0.00     0.064 A 
ATOM      4  C   UNL d   1     -41.454-123.249 -51.164  0.00  0.00     0.109 A 
ATOM      5  C   UNL d   1     -41.682-123.584 -52.543  0.00  0.00     0.126 A 
ATOM      6  C   UNL d   1     -41.209-121.882 -50.785  0.00  0.00     0.204 A 
ATOM      7  O   UNL d   1     -41.611-123.817 -51.748  0.00  0.00    -0.305 OA
ATOM      8  C   UNL d   1     -41.382-123.478 -50.369  0.00  0.00     0.067 A 
ATOM      9  C   UNL d   1     -41.139-122.113 -49.999  0.00  0.00     0.084 A 
ATOM     10  O   UNL d   1     -41.350-121.418 -52.368  0.00  0.00    -0.286 OA
ATOM     11  C   UNL d   1     -41.225-122.908 -49.791  0.00  0.00     0.201 A 
ATOM     12  O   UNL d   1     -41.123-121.088 -50.992  0.00  0.00    -0.286 OA
ATOM     13  O   UNL d   1     -41.155-123.138 -49.004  0.00  0.00    -0.286 OA
ENDROOT
BRANCH   3  14
ATOM     14  C   UNL d   1     -41.664-122.547 -53.541  0.00  0.00     0.005 A 
ATOM     15  C   UNL d   1     -42.237-121.992 -53.752  0.00  0.00     0.002 A 
ATOM     16  C   UNL d   1     -42.308-121.760 -54.538  0.00  0.00     0.024 A 
ATOM     17  C   UNL d   1     -41.814-122.079 -55.110  0.00  0.00     0.094 A 
ATOM     18  C   UNL d   1     -41.238-122.640 -54.889  0.00  0.00     0.024 A 
ATOM     19  C   UNL d   1     -41.168-122.871 -54.101  0.00  0.00     0.002 A 
BRANCH  17  20
ATOM     20  O   UNL d   1     -41.885-121.849 -55.896  0.00  0.00    -0.328 OA
ATOM     21  C   UNL d   1     -42.605-121.948 -56.298  0.00  0.00     0.181 C 
ENDBRANCH  17  20
ENDBRANCH   3  14
TORSDOF 2
ENDMDL
MODEL 5
REMARK VINA RESULT:      -2.6      1.236      2.397
REMARK  2 active torsions:
REMARK  status: ('A' for Active; 'I' for Inactive)
REMARK    1  A    between atoms: C_10  and  C_3 
REMARK    2  A    between atoms: O_20  and  C_16 
ROOT
ATOM      1  C   UNL d   1     -41.610-122.677 -52.846  0.00  0.00     0.203 A 
ATOM      2  C   UNL d   1     -41.682-122.455 -53.642  0.00  0.00     0.101 A 
ATOM      3  C   UNL d   1     -41.468-122.105 -52.256  0.00  0.00     0.064 A 
ATOM      4  C   UNL d   1     -41.610-121.647 -53.849  0.00  0.00     0.109 A 
ATOM      5  C   UNL d   1     -41.397-121.298 -52.471  0.00  0.00     0.126 A 
ATOM      6  C   UNL d   1     -41.822-123.021 -54.221  0.00  0.00     0.204 A 
ATOM      7  O   UNL d   1     -41.468-121.071 -53.269  0.00  0.00    -0.305 OA
ATOM      8  C   UNL d   1     -41.681-121.425 -54.646  0.00  0.00     0.067 A 
ATOM      9  C   UNL d   1     -41.892-122.797 -55.009  0.00  0.00     0.084 A 
ATOM     10  O   UNL d   1     -41.680-123.472 -52.634  0.00  0.00    -0.286 OA
ATOM     11  C   UNL d   1     -41.822-122.002 -55.221  0.00  0.00     0.201 A 
ATOM     12  O   UNL d   1     -41.892-123.815 -54.009  0.00  0.00    -0.286 OA
ATOM     13  O   UNL d   1     -41.893-121.778 -56.011  0.00  0.00    -0.286 OA
ENDROOT
BRANCH   3  14
ATOM     14  C   UNL d   1     -41.398-122.329 -51.467  0.00  0.00     0.005 A 
ATOM     15  C   UNL d   1     -41.209-123.110 -51.282  0.00  0.00     0.002 A 
ATOM     16  C   UNL d   1     -41.138-123.335 -50.493  0.00  0.00     0.024 A 
ATOM     17  C   UNL d   1     -41.254-122.788 -49.895  0.00  0.00     0.094 A 
ATOM     18  C   UNL d   1     -41.444-121.999 -50.090  0.00  0.00     0.024 A 
ATOM     19  C   UNL d   1     -41.515-121.776 -50.879  0.00  0.00     0.002 A 
BRANCH  17  20
ATOM     20  O   UNL d   1     -41.183-123.012 -49.106  0.00  0.00    -0.328 OA
ATOM     21  C   UNL d   1     -41.136-123.815 -48.903  0.00  0.00     0.181 C 
ENDBRANCH  17  20
ENDBRANCH   3  14
TORSDOF 2
ENDMDL
