MODEL 1
REMARK VINA RESULT:      47.3      0.000      0.000
REMARK  2 active torsions:
REMARK  status: ('A' for Active; 'I' for Inactive)
REMARK    1  A    between atoms: C_10  and  C_5 
REMARK    2  A    between atoms: O_22  and  C_15 
ROOT
ATOM      1  C   UNL d   1      60.660  49.704  51.798  0.00  0.00     0.120 A 
ATOM      2  C   UNL d   1      59.844  49.704  51.676  0.00  0.00     0.058 A 
ATOM      3  N   UNL d   1      60.790  49.705  52.611  0.00  0.00    -0.195 NA
ATOM      4  S   UNL d   1      61.173  49.705  51.159  0.00  0.00    -0.072 SA
ATOM      5  C   UNL d   1      59.545  49.703  50.915  0.00  0.00     0.005 A 
ATOM      6  C   UNL d   1      60.874  49.704  50.398  0.00  0.00     0.009 A 
ATOM      7  C   UNL d   1      60.056  49.704  50.272  0.00  0.00    -0.015 A 
ATOM      8  C   UNL d   1      60.056  49.705  52.995  0.00  0.00     0.311 A 
ATOM      9  S   UNL d   1      59.468  49.704  52.406  0.00  0.00    -0.024 SA
ATOM     10  C   UNL d   1      59.757  49.703  49.503  0.00  0.00     0.045 A 
ATOM     11  C   UNL d   1      61.389  49.704  49.755  0.00  0.00     0.050 A 
ATOM     12  C   UNL d   1      60.575  49.704  49.877  0.00  0.00     0.018 A 
ATOM     13  O   UNL d   1      59.922  49.705  53.812  0.00  0.00    -0.258 OA
ATOM     14  C   UNL d   1      60.272  49.703  48.860  0.00  0.00    -0.026 A 
ATOM     15  C   UNL d   1      61.090  49.704  48.986  0.00  0.00    -0.026 A 
ENDROOT
BRANCH   5  16
ATOM     16  C   UNL d   1      58.737  49.703  50.792  0.00  0.00     0.002 A 
ATOM     17  C   UNL d   1      58.224  49.704  51.429  0.00  0.00     0.028 A 
ATOM     18  C   UNL d   1      57.411  49.703  51.307  0.00  0.00     0.133 A 
ATOM     19  C   UNL d   1      57.107  49.702  50.536  0.00  0.00     0.218 A 
ATOM     20  C   UNL d   1      57.629  49.701  49.890  0.00  0.00     0.044 A 
ATOM     21  O   UNL d   1      56.292  49.701  50.409  0.00  0.00    -0.284 OA
ATOM     22  C   UNL d   1      58.440  49.702  50.016  0.00  0.00     0.003 A 
BRANCH  18  23
ATOM     23  O   UNL d   1      56.894  49.704  51.951  0.00  0.00    -0.325 OA
ATOM     24  C   UNL d   1      56.127  49.408  51.868  0.00  0.00     0.181 C 
ENDBRANCH  18  23
ENDBRANCH   5  16
TORSDOF 2
ENDMDL
MODEL 2
REMARK VINA RESULT:      48.3      1.713      3.378
REMARK  2 active torsions:
REMARK  status: ('A' for Active; 'I' for Inactive)
REMARK    1  A    between atoms: C_10  and  C_5 
REMARK    2  A    between atoms: O_22  and  C_15 
ROOT
ATOM      1  C   UNL d   1      56.551  49.592  51.675  0.00  0.00     0.120 A 
ATOM      2  C   UNL d   1      57.376  49.585  51.696  0.00  0.00     0.058 A 
ATOM      3  N   UNL d   1      56.282  49.590  52.453  0.00  0.00    -0.195 NA
ATOM      4  S   UNL d   1      56.157  49.599  50.957  0.00  0.00    -0.072 SA
ATOM      5  C   UNL d   1      57.802  49.585  50.999  0.00  0.00     0.005 A 
ATOM      6  C   UNL d   1      56.583  49.599  50.259  0.00  0.00     0.009 A 
ATOM      7  C   UNL d   1      57.410  49.592  50.277  0.00  0.00    -0.015 A 
ATOM      8  C   UNL d   1      56.939  49.582  52.958  0.00  0.00     0.311 A 
ATOM      9  S   UNL d   1      57.619  49.579  52.480  0.00  0.00    -0.024 SA
ATOM     10  C   UNL d   1      57.839  49.592  49.571  0.00  0.00     0.045 A 
ATOM     11  C   UNL d   1      56.187  49.606  49.537  0.00  0.00     0.050 A 
ATOM     12  C   UNL d   1      56.968  49.598  49.797  0.00  0.00     0.018 A 
ATOM     13  O   UNL d   1      56.929  49.578  53.786  0.00  0.00    -0.258 OA
ATOM     14  C   UNL d   1      57.442  49.599  48.849  0.00  0.00    -0.026 A 
ATOM     15  C   UNL d   1      56.616  49.606  48.831  0.00  0.00    -0.026 A 
ENDROOT
BRANCH   5  16
ATOM     16  C   UNL d   1      58.619  49.578  51.017  0.00  0.00     0.002 A 
ATOM     17  C   UNL d   1      59.014  49.447  51.722  0.00  0.00     0.028 A 
ATOM     18  C   UNL d   1      59.836  49.439  51.743  0.00  0.00     0.133 A 
ATOM     19  C   UNL d   1      60.269  49.566  51.048  0.00  0.00     0.218 A 
ATOM     20  C   UNL d   1      59.868  49.699  50.334  0.00  0.00     0.044 A 
ATOM     21  O   UNL d   1      61.094  49.559  51.064  0.00  0.00    -0.284 OA
ATOM     22  C   UNL d   1      59.047  49.706  50.316  0.00  0.00     0.003 A 
BRANCH  18  23
ATOM     23  O   UNL d   1      60.232  49.307  52.455  0.00  0.00    -0.325 OA
ATOM     24  C   UNL d   1      61.055  49.236  52.464  0.00  0.00     0.181 C 
ENDBRANCH  18  23
ENDBRANCH   5  16
TORSDOF 2
ENDMDL
