MODEL 1
REMARK VINA RESULT:      -6.5      0.000      0.000
REMARK  4 active torsions:
REMARK  status: ('A' for Active; 'I' for Inactive)
REMARK    1  A    between atoms: C_8  and  C_1 
REMARK    2  A    between atoms: C_6  and  C_16 
REMARK    3  A    between atoms: O_13  and  C_8 
REMARK    4  A    between atoms: C_16  and  O_13 
ROOT
ATOM      1  C   UNL d   1     -41.576-122.010 -50.788  0.00  0.00     0.305 C 
ATOM      2  O   UNL d   1     -41.155-121.287 -50.734  0.00  0.00    -0.259 OA
ENDROOT
BRANCH   1   3
ATOM      3  C   UNL d   1     -41.918-122.387 -50.079  0.00  0.00     0.127 A 
ATOM      4  C   UNL d   1     -42.749-122.369 -49.961  0.00  0.00     0.305 A 
ATOM      5  O   UNL d   1     -43.029-122.728 -49.294  0.00  0.00    -0.273 OA
ATOM      6  O   UNL d   1     -43.254-122.003 -50.497  0.00  0.00    -0.259 OA
ATOM      7  C   UNL d   1     -42.539-123.091 -48.761  0.00  0.00     0.103 A 
ATOM      8  C   UNL d   1     -41.718-123.100 -48.894  0.00  0.00     0.023 A 
ATOM      9  C   UNL d   1     -42.818-123.452 -48.090  0.00  0.00     0.025 A 
ATOM     10  C   UNL d   1     -41.407-122.736 -49.573  0.00  0.00     0.013 A 
ATOM     11  C   UNL d   1     -41.196-123.460 -48.369  0.00  0.00     0.002 A 
ATOM     12  C   UNL d   1     -41.517-123.818 -47.699  0.00  0.00     0.000 A 
ATOM     13  C   UNL d   1     -42.326-123.818 -47.553  0.00  0.00     0.002 A 
ENDBRANCH   1   3
BRANCH   1  14
ATOM     14  O   UNL d   1     -41.666-122.367 -51.510  0.00  0.00    -0.269 OA
BRANCH  14  15
ATOM     15  C   UNL d   1     -41.130-122.257 -52.094  0.00  0.00     0.152 C 
BRANCH  15  16
ATOM     16  C   UNL d   1     -41.375-122.299 -52.889  0.00  0.00     0.136 A 
ATOM     17  N   UNL d   1     -41.863-121.805 -53.323  0.00  0.00    -0.236 NA
ATOM     18  C   UNL d   1     -41.911-122.118 -54.081  0.00  0.00     0.088 A 
ATOM     19  C   UNL d   1     -42.313-121.871 -54.759  0.00  0.00     0.020 A 
ATOM     20  C   UNL d   1     -41.447-122.802 -54.093  0.00  0.00     0.049 A 
ATOM     21  C   UNL d   1     -42.266-122.301 -55.473  0.00  0.00     0.002 A 
ATOM     22  C   UNL d   1     -41.803-122.974 -55.465  0.00  0.00     0.001 A 
ATOM     23  C   UNL d   1     -41.389-123.235 -54.782  0.00  0.00     0.008 A 
ATOM     24  S   UNL d   1     -41.126-122.904 -53.363  0.00  0.00    -0.064 SA
ENDBRANCH  15  16
ENDBRANCH  14  15
ENDBRANCH   1  14
TORSDOF 4
ENDMDL
MODEL 2
REMARK VINA RESULT:      -5.0      1.376      5.265
REMARK  4 active torsions:
REMARK  status: ('A' for Active; 'I' for Inactive)
REMARK    1  A    between atoms: C_8  and  C_1 
REMARK    2  A    between atoms: C_6  and  C_16 
REMARK    3  A    between atoms: O_13  and  C_8 
REMARK    4  A    between atoms: C_16  and  O_13 
ROOT
ATOM      1  C   UNL d   1     -41.531-122.001 -51.937  0.00  0.00     0.305 C 
ATOM      2  O   UNL d   1     -41.124-121.285 -51.779  0.00  0.00    -0.259 OA
ENDROOT
BRANCH   1   3
ATOM      3  C   UNL d   1     -41.607-122.308 -52.750  0.00  0.00     0.127 A 
ATOM      4  C   UNL d   1     -41.400-123.104 -52.913  0.00  0.00     0.305 A 
ATOM      5  O   UNL d   1     -41.484-123.352 -53.677  0.00  0.00    -0.273 OA
ATOM      6  O   UNL d   1     -41.124-123.609 -52.326  0.00  0.00    -0.259 OA
ATOM      7  C   UNL d   1     -41.755-122.863 -54.263  0.00  0.00     0.103 A 
ATOM      8  C   UNL d   1     -41.956-122.075 -54.083  0.00  0.00     0.023 A 
ATOM      9  C   UNL d   1     -41.840-123.109 -55.031  0.00  0.00     0.025 A 
ATOM     10  C   UNL d   1     -41.878-121.798 -53.304  0.00  0.00     0.013 A 
ATOM     11  C   UNL d   1     -42.234-121.555 -54.658  0.00  0.00     0.002 A 
ATOM     12  C   UNL d   1     -42.307-121.842 -55.427  0.00  0.00     0.000 A 
ATOM     13  C   UNL d   1     -42.112-122.618 -55.622  0.00  0.00     0.002 A 
ENDBRANCH   1   3
BRANCH   1  14
ATOM     14  O   UNL d   1     -41.860-122.417 -51.323  0.00  0.00    -0.269 OA
BRANCH  14  15
ATOM     15  C   UNL d   1     -42.223-122.039 -50.718  0.00  0.00     0.152 C 
BRANCH  15  16
ATOM     16  C   UNL d   1     -42.362-122.447 -50.005  0.00  0.00     0.136 A 
ATOM     17  N   UNL d   1     -43.030-122.838 -49.735  0.00  0.00    -0.236 NA
ATOM     18  C   UNL d   1     -42.849-123.138 -48.992  0.00  0.00     0.088 A 
ATOM     19  C   UNL d   1     -43.290-123.578 -48.450  0.00  0.00     0.020 A 
ATOM     20  C   UNL d   1     -42.069-122.923 -48.824  0.00  0.00     0.049 A 
ATOM     21  C   UNL d   1     -42.965-123.817 -47.718  0.00  0.00     0.002 A 
ATOM     22  C   UNL d   1     -42.194-123.596 -47.570  0.00  0.00     0.001 A 
ATOM     23  C   UNL d   1     -41.735-123.149 -48.115  0.00  0.00     0.008 A 
ATOM     24  S   UNL d   1     -41.781-122.503 -49.446  0.00  0.00    -0.064 SA
ENDBRANCH  15  16
ENDBRANCH  14  15
ENDBRANCH   1  14
TORSDOF 4
ENDMDL
