MODEL 1
REMARK VINA RESULT:      -7.2      0.000      0.000
REMARK  4 active torsions:
REMARK  status: ('A' for Active; 'I' for Inactive)
REMARK    1  A    between atoms: N_6  and  S_1 
REMARK    2  A    between atoms: C_7  and  S_1 
REMARK    3  A    between atoms: C_13  and  N_6 
REMARK    4  A    between atoms: O_18  and  C_15 
ROOT
ATOM      1  S   UNL d   1     -49.007  13.319  21.964  0.00  0.00     0.285 S 
ATOM      2  O   UNL d   1     -49.411  13.205  21.263  0.00  0.00    -0.198 OA
ATOM      3  O   UNL d   1     -48.319  13.026  21.615  0.00  0.00    -0.198 OA
ENDROOT
BRANCH   1   4
ATOM      4  N   UNL d   1     -48.596  13.433  22.670  0.00  0.00    -0.158 NA
BRANCH   4   5
ATOM      5  C   UNL d   1     -47.840  13.103  22.769  0.00  0.00     0.095 A 
ATOM      6  C   UNL d   1     -47.762  12.348  23.092  0.00  0.00     0.040 A 
ATOM      7  C   UNL d   1     -47.012  12.028  23.186  0.00  0.00     0.089 A 
ATOM      8  N   UNL d   1     -46.765  11.296  23.490  0.00  0.00    -0.238 NA
ATOM      9  C   UNL d   1     -46.342  12.445  22.965  0.00  0.00     0.049 A 
ATOM     10  C   UNL d   1     -45.945  11.269  23.452  0.00  0.00     0.111 A 
ATOM     11  C   UNL d   1     -45.459  10.637  23.698  0.00  0.00     0.028 C 
ATOM     12  S   UNL d   1     -45.681  11.981  23.127  0.00  0.00    -0.066 SA
ATOM     13  C   UNL d   1     -46.425  13.206  22.639  0.00  0.00     0.010 A 
ATOM     14  C   UNL d   1     -47.180  13.530  22.543  0.00  0.00     0.021 A 
ENDBRANCH   4   5
ENDBRANCH   1   4
BRANCH   1  15
ATOM     15  C   UNL d   1     -49.691  13.613  22.320  0.00  0.00     0.107 A 
ATOM     16  C   UNL d   1     -49.785  14.426  22.441  0.00  0.00     0.037 A 
ATOM     17  C   UNL d   1     -50.471  14.712  22.797  0.00  0.00     0.095 A 
ATOM     18  C   UNL d   1     -51.064  14.186  23.033  0.00  0.00     0.024 A 
ATOM     19  C   UNL d   1     -50.969  13.377  22.912  0.00  0.00     0.003 A 
ATOM     20  C   UNL d   1     -50.282  13.090  22.555  0.00  0.00     0.013 A 
BRANCH  17  21
ATOM     21  O   UNL d   1     -50.567  15.521  22.918  0.00  0.00    -0.328 OA
ATOM     22  C   UNL d   1     -51.015  15.793  23.555  0.00  0.00     0.181 C 
ENDBRANCH  17  21
ENDBRANCH   1  15
TORSDOF 4
ENDMDL
MODEL 2
REMARK VINA RESULT:      -7.2      1.418      1.862
REMARK  4 active torsions:
REMARK  status: ('A' for Active; 'I' for Inactive)
REMARK    1  A    between atoms: N_6  and  S_1 
REMARK    2  A    between atoms: C_7  and  S_1 
REMARK    3  A    between atoms: C_13  and  N_6 
REMARK    4  A    between atoms: O_18  and  C_15 
ROOT
ATOM      1  S   UNL d   1     -49.111  11.737  23.116  0.00  0.00     0.285 S 
ATOM      2  O   UNL d   1     -49.568  11.096  22.897  0.00  0.00    -0.198 OA
ATOM      3  O   UNL d   1     -48.456  11.241  23.199  0.00  0.00    -0.198 OA
ENDROOT
BRANCH   1   4
ATOM      4  N   UNL d   1     -48.646  12.381  23.338  0.00  0.00    -0.158 NA
BRANCH   4   5
ATOM      5  C   UNL d   1     -47.822  12.354  23.235  0.00  0.00     0.095 A 
ATOM      6  C   UNL d   1     -47.465  12.836  22.668  0.00  0.00     0.040 A 
ATOM      7  C   UNL d   1     -46.650  12.803  22.573  0.00  0.00     0.089 A 
ATOM      8  N   UNL d   1     -46.144  13.214  22.057  0.00  0.00    -0.238 NA
ATOM      9  C   UNL d   1     -46.188  12.304  23.028  0.00  0.00     0.049 A 
ATOM     10  C   UNL d   1     -45.377  12.963  22.201  0.00  0.00     0.111 A 
ATOM     11  C   UNL d   1     -44.688  13.227  21.811  0.00  0.00     0.028 C 
ATOM     12  S   UNL d   1     -45.401  12.398  22.804  0.00  0.00    -0.066 SA
ATOM     13  C   UNL d   1     -46.553  11.820  23.599  0.00  0.00     0.010 A 
ATOM     14  C   UNL d   1     -47.373  11.850  23.697  0.00  0.00     0.021 A 
ENDBRANCH   4   5
ENDBRANCH   1   4
BRANCH   1  15
ATOM     15  C   UNL d   1     -49.761  12.238  23.035  0.00  0.00     0.107 A 
ATOM     16  C   UNL d   1     -49.958  12.553  22.296  0.00  0.00     0.037 A 
ATOM     17  C   UNL d   1     -50.610  13.053  22.223  0.00  0.00     0.095 A 
ATOM     18  C   UNL d   1     -51.064  13.240  22.889  0.00  0.00     0.024 A 
ATOM     19  C   UNL d   1     -50.865  12.925  23.625  0.00  0.00     0.003 A 
ATOM     20  C   UNL d   1     -50.213  12.424  23.698  0.00  0.00     0.013 A 
BRANCH  17  21
ATOM     21  O   UNL d   1     -50.809  13.368  21.489  0.00  0.00    -0.328 OA
ATOM     22  C   UNL d   1     -51.050  14.154  21.428  0.00  0.00     0.181 C 
ENDBRANCH  17  21
ENDBRANCH   1  15
TORSDOF 4
ENDMDL
MODEL 3
REMARK VINA RESULT:      -6.6      8.793      9.934
REMARK  4 active torsions:
REMARK  status: ('A' for Active; 'I' for Inactive)
REMARK    1  A    between atoms: N_6  and  S_1 
REMARK    2  A    between atoms: C_7  and  S_1 
REMARK    3  A    between atoms: C_13  and  N_6 
REMARK    4  A    between atoms: O_18  and  C_15 
ROOT
ATOM      1  S   UNL d   1     -40.525  14.325  18.444  0.00  0.00     0.285 S 
ATOM      2  O   UNL d   1     -40.948  13.825  17.956  0.00  0.00    -0.198 OA
ATOM      3  O   UNL d   1     -40.702  13.843  19.090  0.00  0.00    -0.198 OA
ENDROOT
BRANCH   1   4
ATOM      4  N   UNL d   1     -40.099  14.827  18.941  0.00  0.00    -0.158 NA
BRANCH   4   5
ATOM      5  C   UNL d   1     -39.963  14.613  19.731  0.00  0.00     0.095 A 
ATOM      6  C   UNL d   1     -39.255  14.243  19.939  0.00  0.00     0.040 A 
ATOM      7  C   UNL d   1     -39.127  14.034  20.723  0.00  0.00     0.089 A 
ATOM      8  N   UNL d   1     -38.481  13.664  21.090  0.00  0.00    -0.238 NA
ATOM      9  C   UNL d   1     -39.688  14.185  21.299  0.00  0.00     0.049 A 
ATOM     10  C   UNL d   1     -38.652  13.590  21.889  0.00  0.00     0.111 A 
ATOM     11  C   UNL d   1     -38.160  13.250  22.472  0.00  0.00     0.028 C 
ATOM     12  S   UNL d   1     -39.401  13.913  22.022  0.00  0.00    -0.066 SA
ATOM     13  C   UNL d   1     -40.402  14.558  21.086  0.00  0.00     0.010 A 
ATOM     14  C   UNL d   1     -40.533  14.769  20.297  0.00  0.00     0.021 A 
ENDBRANCH   4   5
ENDBRANCH   1   4
BRANCH   1  15
ATOM     15  C   UNL d   1     -40.345  14.811  17.803  0.00  0.00     0.107 A 
ATOM     16  C   UNL d   1     -39.660  14.680  17.358  0.00  0.00     0.037 A 
ATOM     17  C   UNL d   1     -39.486  15.171  16.718  0.00  0.00     0.095 A 
ATOM     18  C   UNL d   1     -39.996  15.793  16.524  0.00  0.00     0.024 A 
ATOM     19  C   UNL d   1     -40.677  15.922  16.969  0.00  0.00     0.003 A 
ATOM     20  C   UNL d   1     -40.851  15.431  17.609  0.00  0.00     0.013 A 
BRANCH  17  21
ATOM     21  O   UNL d   1     -38.806  15.043  16.272  0.00  0.00    -0.328 OA
ATOM     22  C   UNL d   1     -38.365  15.683  15.997  0.00  0.00     0.181 C 
ENDBRANCH  17  21
ENDBRANCH   1  15
TORSDOF 4
ENDMDL
MODEL 4
REMARK VINA RESULT:      -5.9      8.977     10.405
REMARK  4 active torsions:
REMARK  status: ('A' for Active; 'I' for Inactive)
REMARK    1  A    between atoms: N_6  and  S_1 
REMARK    2  A    between atoms: C_7  and  S_1 
REMARK    3  A    between atoms: C_13  and  N_6 
REMARK    4  A    between atoms: O_18  and  C_15 
ROOT
ATOM      1  S   UNL d   1     -40.391  14.287  18.813  0.00  0.00     0.285 S 
ATOM      2  O   UNL d   1     -41.189  14.151  18.918  0.00  0.00    -0.198 OA
ATOM      3  O   UNL d   1     -40.415  13.876  18.098  0.00  0.00    -0.198 OA
ENDROOT
BRANCH   1   4
ATOM      4  N   UNL d   1     -39.584  14.422  18.704  0.00  0.00    -0.158 NA
BRANCH   4   5
ATOM      5  C   UNL d   1     -39.199  14.119  18.033  0.00  0.00     0.095 A 
ATOM      6  C   UNL d   1     -39.138  14.580  17.352  0.00  0.00     0.040 A 
ATOM      7  C   UNL d   1     -38.756  14.273  16.694  0.00  0.00     0.089 A 
ATOM      8  N   UNL d   1     -38.612  14.601  15.944  0.00  0.00    -0.238 NA
ATOM      9  C   UNL d   1     -38.436  13.520  16.701  0.00  0.00     0.049 A 
ATOM     10  C   UNL d   1     -38.204  14.045  15.499  0.00  0.00     0.111 A 
ATOM     11  C   UNL d   1     -37.944  14.137  14.711  0.00  0.00     0.028 C 
ATOM     12  S   UNL d   1     -38.094  13.373  15.967  0.00  0.00    -0.066 SA
ATOM     13  C   UNL d   1     -38.500  13.057  17.391  0.00  0.00     0.010 A 
ATOM     14  C   UNL d   1     -38.884  13.364  18.055  0.00  0.00     0.021 A 
ENDBRANCH   4   5
ENDBRANCH   1   4
BRANCH   1  15
ATOM     15  C   UNL d   1     -40.359  14.699  19.527  0.00  0.00     0.107 A 
ATOM     16  C   UNL d   1     -40.131  14.315  20.223  0.00  0.00     0.037 A 
ATOM     17  C   UNL d   1     -40.101  14.734  20.933  0.00  0.00     0.095 A 
ATOM     18  C   UNL d   1     -40.300  15.537  20.948  0.00  0.00     0.024 A 
ATOM     19  C   UNL d   1     -40.527  15.918  20.253  0.00  0.00     0.003 A 
ATOM     20  C   UNL d   1     -40.556  15.499  19.543  0.00  0.00     0.013 A 
BRANCH  17  21
ATOM     21  O   UNL d   1     -39.874  14.354  21.627  0.00  0.00    -0.328 OA
ATOM     22  C   UNL d   1     -39.355  14.724  22.151  0.00  0.00     0.181 C 
ENDBRANCH  17  21
ENDBRANCH   1  15
TORSDOF 4
ENDMDL
