MODEL 1
REMARK VINA RESULT:       9.4      0.000      0.000
REMARK  4 active torsions:
REMARK  status: ('A' for Active; 'I' for Inactive)
REMARK    1  A    between atoms: C_4  and  C_3 
REMARK    2  A    between atoms: S_8  and  C_5 
REMARK    3  A    between atoms: C_13  and  S_8 
REMARK    4  A    between atoms: C_14  and  C_13 
ROOT
ATOM      1  N   UNL d   1      46.262 -14.775  44.018  0.00  0.00    -0.146 NA
ATOM      2  N   UNL d   1      46.304 -15.588  44.076  0.00  0.00    -0.141 NA
ATOM      3  C   UNL d   1      45.677 -14.369  44.433  0.00  0.00     0.126 A 
ATOM      4  C   UNL d   1      45.776 -16.004  44.538  0.00  0.00     0.132 A 
ATOM      5  C   UNL d   1      45.140 -14.782  44.902  0.00  0.00     0.025 A 
ATOM      6  C   UNL d   1      45.188 -15.591  44.955  0.00  0.00     0.029 A 
ENDROOT
BRANCH   4   7
ATOM      7  S   UNL d   1      45.823 -16.825  44.594  0.00  0.00    -0.066 SA
BRANCH   7   8
ATOM      8  C   UNL d   1      46.074 -17.269  43.954  0.00  0.00     0.037 C 
BRANCH   8   9
ATOM      9  C   UNL d   1      46.243 -18.070  44.055  0.00  0.00     0.006 A 
ATOM     10  C   UNL d   1      46.394 -18.543  43.401  0.00  0.00     0.001 A 
ATOM     11  C   UNL d   1      46.562 -19.336  43.493  0.00  0.00     0.000 A 
ATOM     12  C   UNL d   1      46.579 -19.661  44.257  0.00  0.00     0.000 A 
ATOM     13  C   UNL d   1      46.428 -19.185  44.903  0.00  0.00     0.000 A 
ATOM     14  C   UNL d   1      46.259 -18.385  44.797  0.00  0.00     0.001 A 
ENDBRANCH   8   9
ENDBRANCH   7   8
ENDBRANCH   4   7
BRANCH   3  15
ATOM     15  C   UNL d   1      45.628 -13.551  44.379  0.00  0.00     0.119 A 
ATOM     16  O   UNL d   1      46.043 -13.005  44.831  0.00  0.00    -0.304 OA
ATOM     17  C   UNL d   1      45.829 -12.245  44.598  0.00  0.00     0.123 A 
ATOM     18  C   UNL d   1      45.267 -12.322  43.986  0.00  0.00     0.029 A 
ATOM     19  C   UNL d   1      45.142 -13.127  43.850  0.00  0.00     0.028 A 
ENDBRANCH   3  15
TORSDOF 4
ENDMDL
MODEL 2
REMARK VINA RESULT:      10.6      1.785      4.925
REMARK  4 active torsions:
REMARK  status: ('A' for Active; 'I' for Inactive)
REMARK    1  A    between atoms: C_4  and  C_3 
REMARK    2  A    between atoms: S_8  and  C_5 
REMARK    3  A    between atoms: C_13  and  S_8 
REMARK    4  A    between atoms: C_14  and  C_13 
ROOT
ATOM      1  N   UNL d   1      46.276 -17.600  43.339  0.00  0.00    -0.146 NA
ATOM      2  N   UNL d   1      46.154 -16.866  43.676  0.00  0.00    -0.141 NA
ATOM      3  C   UNL d   1      46.266 -18.272  43.815  0.00  0.00     0.126 A 
ATOM      4  C   UNL d   1      46.020 -16.790  44.477  0.00  0.00     0.132 A 
ATOM      5  C   UNL d   1      46.132 -18.202  44.626  0.00  0.00     0.025 A 
ATOM      6  C   UNL d   1      46.010 -17.470  44.954  0.00  0.00     0.029 A 
ENDROOT
BRANCH   4   7
ATOM      7  S   UNL d   1      45.897 -16.047  44.813  0.00  0.00    -0.066 SA
BRANCH   7   8
ATOM      8  C   UNL d   1      45.281 -15.574  44.555  0.00  0.00     0.037 C 
BRANCH   8   9
ATOM      9  C   UNL d   1      45.373 -14.754  44.550  0.00  0.00     0.006 A 
ATOM     10  C   UNL d   1      46.000 -14.410  44.955  0.00  0.00     0.001 A 
ATOM     11  C   UNL d   1      46.097 -13.600  44.955  0.00  0.00     0.000 A 
ATOM     12  C   UNL d   1      45.554 -13.126  44.542  0.00  0.00     0.000 A 
ATOM     13  C   UNL d   1      44.934 -13.474  44.143  0.00  0.00     0.000 A 
ATOM     14  C   UNL d   1      44.846 -14.294  44.149  0.00  0.00     0.001 A 
ENDBRANCH   8   9
ENDBRANCH   7   8
ENDBRANCH   4   7
BRANCH   3  15
ATOM     15  C   UNL d   1      46.389 -19.013  43.483  0.00  0.00     0.119 A 
ATOM     16  O   UNL d   1      46.468 -19.724  43.887  0.00  0.00    -0.304 OA
ATOM     17  C   UNL d   1      46.583 -20.330  43.343  0.00  0.00     0.123 A 
ATOM     18  C   UNL d   1      46.575 -19.987  42.582  0.00  0.00     0.029 A 
ATOM     19  C   UNL d   1      46.455 -19.175  42.667  0.00  0.00     0.028 A 
ENDBRANCH   3  15
TORSDOF 4
ENDMDL
