MODEL 1
REMARK VINA RESULT:      -0.7      0.000      0.000
REMARK  3 active torsions:
REMARK  status: ('A' for Active; 'I' for Inactive)
REMARK    1  A    between atoms: N_5  and  C_1 
REMARK    2  A    between atoms: C_9  and  C_2 
REMARK       I    between atoms: C_8  and  N_5 
REMARK    3  A    between atoms: C_10  and  C_8 
ROOT
ATOM      1  C   UNL d   1      30.998  17.334 -24.200  0.00  0.00     0.155 A 
ATOM      2  C   UNL d   1      31.175  16.649 -23.777  0.00  0.00     0.080 A 
ATOM      3  N   UNL d   1      30.208  17.513 -24.385  0.00  0.00    -0.289 N 
ATOM      4  C   UNL d   1      30.562  16.142 -23.538  0.00  0.00     0.200 A 
ATOM      5  C   UNL d   1      29.780  16.322 -23.723  0.00  0.00     0.055 A 
ATOM      6  C   UNL d   1      29.603  17.008 -24.146  0.00  0.00     0.069 A 
ATOM      7  O   UNL d   1      30.740  15.453 -23.112  0.00  0.00    -0.286 OA
ATOM      8  C   UNL d   1      30.032  18.198 -24.808  0.00  0.00     0.101 C 
ATOM      9  C   UNL d   1      29.176  15.817 -23.484  0.00  0.00     0.005 A 
ATOM     10  C   UNL d   1      28.830  17.190 -24.331  0.00  0.00     0.018 A 
ATOM     11  C   UNL d   1      28.393  15.998 -23.669  0.00  0.00     0.000 A 
ATOM     12  C   UNL d   1      28.216  16.684 -24.092  0.00  0.00     0.002 A 
ENDROOT
BRANCH   1  13
ATOM     13  N   UNL d   1      31.613  17.848 -24.443  0.00  0.00    -0.190 NA
ATOM     14  C   UNL d   1      31.692  18.609 -24.120  0.00  0.00     0.286 C 
ATOM     15  O   UNL d   1      31.153  18.853 -23.551  0.00  0.00    -0.265 OA
BRANCH  14  16
ATOM     16  C   UNL d   1      32.297  19.113 -24.360  0.00  0.00     0.087 A 
ATOM     17  S   UNL d   1      32.645  19.627 -23.817  0.00  0.00    -0.082 SA
ATOM     18  C   UNL d   1      33.227  20.057 -24.217  0.00  0.00     0.036 A 
ATOM     19  C   UNL d   1      33.241  19.811 -25.005  0.00  0.00     0.008 A 
ATOM     20  C   UNL d   1      32.662  19.223 -25.097  0.00  0.00     0.012 A 
ENDBRANCH  14  16
ENDBRANCH   1  13
BRANCH   2  21
ATOM     21  C   UNL d   1      31.956  16.468 -23.592  0.00  0.00     0.035 A 
ATOM     22  S   UNL d   1      32.500  16.103 -24.096  0.00  0.00    -0.086 SA
ATOM     23  C   UNL d   1      33.212  16.029 -23.684  0.00  0.00     0.035 A 
ATOM     24  C   UNL d   1      33.112  16.348 -22.924  0.00  0.00     0.007 A 
ATOM     25  C   UNL d   1      32.333  16.616 -22.878  0.00  0.00     0.007 A 
ENDBRANCH   2  21
TORSDOF 3
ENDMDL
MODEL 2
REMARK VINA RESULT:       1.1      3.637      5.509
REMARK  3 active torsions:
REMARK  status: ('A' for Active; 'I' for Inactive)
REMARK    1  A    between atoms: N_5  and  C_1 
REMARK    2  A    between atoms: C_9  and  C_2 
REMARK       I    between atoms: C_8  and  N_5 
REMARK    3  A    between atoms: C_10  and  C_8 
ROOT
ATOM      1  C   UNL d   1      32.952  21.323 -22.419  0.00  0.00     0.155 A 
ATOM      2  C   UNL d   1      32.813  21.422 -23.226  0.00  0.00     0.080 A 
ATOM      3  N   UNL d   1      33.094  20.564 -22.115  0.00  0.00    -0.289 N 
ATOM      4  C   UNL d   1      32.816  20.760 -23.729  0.00  0.00     0.200 A 
ATOM      5  C   UNL d   1      32.958  20.009 -23.423  0.00  0.00     0.055 A 
ATOM      6  C   UNL d   1      33.097  19.910 -22.616  0.00  0.00     0.069 A 
ATOM      7  O   UNL d   1      32.677  20.859 -24.540  0.00  0.00    -0.286 OA
ATOM      8  C   UNL d   1      33.232  20.466 -21.307  0.00  0.00     0.101 C 
ATOM      9  C   UNL d   1      32.960  19.356 -23.925  0.00  0.00     0.005 A 
ATOM     10  C   UNL d   1      33.237  19.168 -22.309  0.00  0.00     0.018 A 
ATOM     11  C   UNL d   1      33.102  18.604 -23.618  0.00  0.00     0.000 A 
ATOM     12  C   UNL d   1      33.241  18.506 -22.811  0.00  0.00     0.002 A 
ENDROOT
BRANCH   1  13
ATOM     13  N   UNL d   1      32.949  21.987 -21.909  0.00  0.00    -0.190 NA
ATOM     14  C   UNL d   1      32.631  21.941 -21.143  0.00  0.00     0.286 C 
ATOM     15  O   UNL d   1      32.314  21.227 -20.891  0.00  0.00    -0.265 OA
BRANCH  14  16
ATOM     16  C   UNL d   1      32.629  22.594 -20.642  0.00  0.00     0.087 A 
ATOM     17  S   UNL d   1      31.951  22.782 -20.211  0.00  0.00    -0.082 SA
ATOM     18  C   UNL d   1      32.117  23.457 -19.765  0.00  0.00     0.036 A 
ATOM     19  C   UNL d   1      32.895  23.689 -19.917  0.00  0.00     0.008 A 
ATOM     20  C   UNL d   1      33.216  23.153 -20.464  0.00  0.00     0.012 A 
ENDBRANCH  14  16
ENDBRANCH   1  13
BRANCH   2  21
ATOM     21  C   UNL d   1      32.672  22.172 -23.533  0.00  0.00     0.035 A 
ATOM     22  S   UNL d   1      33.238  22.670 -23.872  0.00  0.00    -0.086 SA
ATOM     23  C   UNL d   1      32.853  23.364 -24.103  0.00  0.00     0.035 A 
ATOM     24  C   UNL d   1      32.049  23.298 -23.908  0.00  0.00     0.007 A 
ATOM     25  C   UNL d   1      31.948  22.559 -23.556  0.00  0.00     0.007 A 
ENDBRANCH   2  21
TORSDOF 3
ENDMDL
MODEL 3
REMARK VINA RESULT:       2.0      2.808      4.100
REMARK  3 active torsions:
REMARK  status: ('A' for Active; 'I' for Inactive)
REMARK    1  A    between atoms: N_5  and  C_1 
REMARK    2  A    between atoms: C_9  and  C_2 
REMARK       I    between atoms: C_8  and  N_5 
REMARK    3  A    between atoms: C_10  and  C_8 
ROOT
ATOM      1  C   UNL d   1      33.001  20.289 -23.385  0.00  0.00     0.155 A 
ATOM      2  C   UNL d   1      32.825  19.924 -22.666  0.00  0.00     0.080 A 
ATOM      3  N   UNL d   1      33.064  19.832 -24.075  0.00  0.00    -0.289 N 
ATOM      4  C   UNL d   1      32.711  19.102 -22.637  0.00  0.00     0.200 A 
ATOM      5  C   UNL d   1      32.774  18.652 -23.325  0.00  0.00     0.055 A 
ATOM      6  C   UNL d   1      32.950  19.016 -24.043  0.00  0.00     0.069 A 
ATOM      7  O   UNL d   1      32.534  18.735 -21.915  0.00  0.00    -0.286 OA
ATOM      8  C   UNL d   1      33.240  20.196 -24.794  0.00  0.00     0.101 C 
ATOM      9  C   UNL d   1      32.661  17.837 -23.292  0.00  0.00     0.005 A 
ATOM     10  C   UNL d   1      33.013  18.574 -24.726  0.00  0.00     0.018 A 
ATOM     11  C   UNL d   1      32.724  17.387 -23.979  0.00  0.00     0.000 A 
ATOM     12  C   UNL d   1      32.900  17.752 -24.698  0.00  0.00     0.002 A 
ENDROOT
BRANCH   1  13
ATOM     13  N   UNL d   1      33.117  21.118 -23.418  0.00  0.00    -0.190 NA
ATOM     14  C   UNL d   1      32.879  21.560 -24.079  0.00  0.00     0.286 C 
ATOM     15  O   UNL d   1      32.525  21.168 -24.708  0.00  0.00    -0.265 OA
BRANCH  14  16
ATOM     16  C   UNL d   1      32.993  22.375 -24.111  0.00  0.00     0.087 A 
ATOM     17  S   UNL d   1      33.144  22.743 -24.834  0.00  0.00    -0.082 SA
ATOM     18  C   UNL d   1      33.233  23.551 -24.689  0.00  0.00     0.036 A 
ATOM     19  C   UNL d   1      33.138  23.686 -23.880  0.00  0.00     0.008 A 
ATOM     20  C   UNL d   1      32.989  22.954 -23.518  0.00  0.00     0.012 A 
ENDBRANCH  14  16
ENDBRANCH   1  13
BRANCH   2  21
ATOM     21  C   UNL d   1      32.762  20.374 -21.979  0.00  0.00     0.035 A 
ATOM     22  S   UNL d   1      33.235  20.295 -21.306  0.00  0.00    -0.086 SA
ATOM     23  C   UNL d   1      32.979  20.855 -20.755  0.00  0.00     0.035 A 
ATOM     24  C   UNL d   1      32.348  21.282 -21.085  0.00  0.00     0.007 A 
ATOM     25  C   UNL d   1      32.223  20.977 -21.841  0.00  0.00     0.007 A 
ENDBRANCH   2  21
TORSDOF 3
ENDMDL
