MODEL 1
REMARK VINA RESULT:      38.5      0.000      0.000
REMARK  6 active torsions:
REMARK  status: ('A' for Active; 'I' for Inactive)
REMARK    1  A    between atoms: C_2  and  C_1 
REMARK    2  A    between atoms: C_6  and  C_1 
REMARK       I    between atoms: N_10  and  C_2 
REMARK    3  A    between atoms: C_14  and  C_3 
REMARK    4  A    between atoms: C_4  and  C_12 
REMARK    5  A    between atoms: C_7  and  C_6 
REMARK    6  A    between atoms: C_15  and  N_10 
ROOT
ATOM      1  C   UNL d   1      45.484 -17.471  39.866  0.00  0.00     0.128 C 
ATOM      2  C   UNL d   1      44.822 -17.606  40.329  0.00  0.00     0.106 C 
ATOM      3  N   UNL d   1      44.169 -17.749  40.809  0.00  0.00    -0.191 NA
ENDROOT
BRANCH   1   4
ATOM      4  C   UNL d   1      45.367 -17.159  39.089  0.00  0.00     0.289 C 
ATOM      5  N   UNL d   1      45.346 -16.379  38.951  0.00  0.00    -0.207 NA
ATOM      6  O   UNL d   1      45.271 -17.707  38.444  0.00  0.00    -0.264 OA
BRANCH   5   7
ATOM      7  C   UNL d   1      45.231 -16.079  38.182  0.00  0.00     0.085 A 
ATOM      8  C   UNL d   1      44.477 -16.111  37.826  0.00  0.00     0.023 A 
ATOM      9  C   UNL d   1      44.352 -15.820  37.075  0.00  0.00     0.073 A 
ATOM     10  C   UNL d   1      44.982 -15.480  36.641  0.00  0.00     0.004 A 
ATOM     11  C   UNL d   1      45.736 -15.446  36.992  0.00  0.00     0.002 A 
ATOM     12  C   UNL d   1      45.842 -15.744  37.749  0.00  0.00     0.019 A 
BRANCH   9  13
ATOM     13  C   UNL d   1      43.610 -15.869  36.765  0.00  0.00     0.419 C 
ATOM     14  F   UNL d   1      42.869 -15.985  36.428  0.00  0.00    -0.166 F 
ATOM     15  F   UNL d   1      43.030 -15.181  36.811  0.00  0.00    -0.166 F 
ATOM     16  F   UNL d   1      43.426 -16.535  36.429  0.00  0.00    -0.166 F 
ENDBRANCH   9  13
ENDBRANCH   5   7
ENDBRANCH   1   4
BRANCH   1  17
ATOM     17  C   UNL d   1      46.244 -17.628  40.135  0.00  0.00     0.040 C 
BRANCH  17  18
ATOM     18  C   UNL d   1      46.376 -18.256  40.676  0.00  0.00     0.101 A 
ATOM     19  O   UNL d   1      46.327 -18.177  41.506  0.00  0.00    -0.307 OA
ATOM     20  C   UNL d   1      46.496 -18.926  41.818  0.00  0.00     0.100 A 
ATOM     21  C   UNL d   1      46.646 -19.451  41.172  0.00  0.00     0.027 A 
ATOM     22  C   UNL d   1      46.565 -19.011  40.478  0.00  0.00     0.027 A 
BRANCH  20  23
ATOM     23  C   UNL d   1      46.534 -19.203  42.612  0.00  0.00     0.024 A 
ATOM     24  C   UNL d   1      46.525 -18.704  43.274  0.00  0.00     0.013 A 
ATOM     25  C   UNL d   1      46.564 -19.011  44.061  0.00  0.00     0.058 A 
ATOM     26 CL   UNL d   1      46.553 -18.466  44.708  0.00  0.00    -0.082 Cl
ATOM     27  C   UNL d   1      46.612 -19.823  44.168  0.00  0.00     0.011 A 
ATOM     28  C   UNL d   1      46.622 -20.329  43.538  0.00  0.00     0.001 A 
ATOM     29  C   UNL d   1      46.586 -20.066  42.779  0.00  0.00     0.002 A 
ENDBRANCH  20  23
ENDBRANCH  17  18
ENDBRANCH   1  17
TORSDOF 6
ENDMDL
