MODEL 1
REMARK VINA RESULT:      57.8      0.000      0.000
REMARK  3 active torsions:
REMARK  status: ('A' for Active; 'I' for Inactive)
REMARK    1  A    between atoms: C_9  and  C_1 
REMARK    2  A    between atoms: C_4  and  C_5 
REMARK       I    between atoms: C_5  and  N_8 
REMARK    3  A    between atoms: N_8  and  C_16 
ROOT
ATOM      1  C   UNL d   1     -50.921  25.934  33.772  0.00  0.00     0.024 A 
ATOM      2  C   UNL d   1     -51.130  26.660  34.074  0.00  0.00     0.004 A 
ATOM      3  C   UNL d   1     -50.144  25.763  33.575  0.00  0.00     0.004 A 
ATOM      4  C   UNL d   1     -49.770  27.070  33.988  0.00  0.00     0.085 A 
ATOM      5  C   UNL d   1     -49.566  26.330  33.682  0.00  0.00     0.019 A 
ATOM      6  C   UNL d   1     -50.553  27.234  34.184  0.00  0.00     0.019 A 
ENDROOT
BRANCH   1   7
ATOM      7  C   UNL d   1     -51.502  25.362  33.664  0.00  0.00     0.111 A 
ATOM      8  N   UNL d   1     -51.373  24.543  33.599  0.00  0.00    -0.239 NA
ATOM      9  C   UNL d   1     -52.112  24.176  33.495  0.00  0.00     0.088 A 
ATOM     10  C   UNL d   1     -52.328  23.394  33.402  0.00  0.00     0.020 A 
ATOM     11  C   UNL d   1     -52.695  24.769  33.495  0.00  0.00     0.049 A 
ATOM     12  C   UNL d   1     -53.122  23.188  33.307  0.00  0.00     0.002 A 
ATOM     13  C   UNL d   1     -53.703  23.774  33.307  0.00  0.00     0.001 A 
ATOM     14  C   UNL d   1     -53.490  24.568  33.401  0.00  0.00     0.008 A 
ATOM     15  S   UNL d   1     -52.318  25.495  33.599  0.00  0.00    -0.066 SA
ENDBRANCH   1   7
BRANCH   4  16
ATOM     16  N   UNL d   1     -49.184  27.643  34.096  0.00  0.00    -0.206 NA
ATOM     17  C   UNL d   1     -49.067  27.970  34.844  0.00  0.00     0.304 C 
ATOM     18  O   UNL d   1     -49.525  27.733  35.480  0.00  0.00    -0.263 OA
BRANCH  17  19
ATOM     19  C   UNL d   1     -48.475  28.547  34.943  0.00  0.00     0.182 A 
ATOM     20  O   UNL d   1     -48.683  29.347  34.906  0.00  0.00    -0.296 OA
ATOM     21  C   UNL d   1     -48.094  29.916  35.004  0.00  0.00     0.150 A 
ATOM     22  C   UNL d   1     -47.310  29.692  35.138  0.00  0.00     0.149 A 
ATOM     23  O   UNL d   1     -47.116  28.898  35.173  0.00  0.00    -0.299 OA
ATOM     24  C   UNL d   1     -47.692  28.322  35.077  0.00  0.00     0.152 A 
ENDBRANCH  17  19
ENDBRANCH   4  16
TORSDOF 3
ENDMDL
MODEL 2
REMARK VINA RESULT:      58.1      0.715      1.121
REMARK  3 active torsions:
REMARK  status: ('A' for Active; 'I' for Inactive)
REMARK    1  A    between atoms: C_9  and  C_1 
REMARK    2  A    between atoms: C_4  and  C_5 
REMARK       I    between atoms: C_5  and  N_8 
REMARK    3  A    between atoms: N_8  and  C_16 
ROOT
ATOM      1  C   UNL d   1     -50.579  26.326  33.759  0.00  0.00     0.024 A 
ATOM      2  C   UNL d   1     -49.888  26.401  33.338  0.00  0.00     0.004 A 
ATOM      3  C   UNL d   1     -50.822  26.905  34.286  0.00  0.00     0.004 A 
ATOM      4  C   UNL d   1     -49.659  27.656  33.967  0.00  0.00     0.085 A 
ATOM      5  C   UNL d   1     -50.363  27.572  34.392  0.00  0.00     0.019 A 
ATOM      6  C   UNL d   1     -49.422  27.070  33.439  0.00  0.00     0.019 A 
ENDROOT
BRANCH   1   7
ATOM      7  C   UNL d   1     -51.042  25.654  33.654  0.00  0.00     0.111 A 
ATOM      8  N   UNL d   1     -51.871  25.639  33.589  0.00  0.00    -0.239 NA
ATOM      9  C   UNL d   1     -52.106  24.848  33.489  0.00  0.00     0.088 A 
ATOM     10  C   UNL d   1     -52.839  24.500  33.396  0.00  0.00     0.020 A 
ATOM     11  C   UNL d   1     -51.421  24.376  33.491  0.00  0.00     0.049 A 
ATOM     12  C   UNL d   1     -52.905  23.681  33.306  0.00  0.00     0.002 A 
ATOM     13  C   UNL d   1     -52.228  23.210  33.308  0.00  0.00     0.001 A 
ATOM     14  C   UNL d   1     -51.482  23.557  33.401  0.00  0.00     0.008 A 
ATOM     15  S   UNL d   1     -50.771  24.873  33.593  0.00  0.00    -0.066 SA
ENDBRANCH   1   7
BRANCH   4  16
ATOM     16  N   UNL d   1     -49.195  28.332  34.074  0.00  0.00    -0.206 NA
ATOM     17  C   UNL d   1     -48.768  28.426  34.773  0.00  0.00     0.304 C 
ATOM     18  O   UNL d   1     -48.799  27.858  35.361  0.00  0.00    -0.263 OA
BRANCH  17  19
ATOM     19  C   UNL d   1     -48.304  29.110  34.872  0.00  0.00     0.182 A 
ATOM     20  O   UNL d   1     -48.574  29.828  34.560  0.00  0.00    -0.296 OA
ATOM     21  C   UNL d   1     -48.111  30.504  34.659  0.00  0.00     0.150 A 
ATOM     22  C   UNL d   1     -47.391  30.465  35.064  0.00  0.00     0.149 A 
ATOM     23  O   UNL d   1     -47.135  29.751  35.368  0.00  0.00    -0.299 OA
ATOM     24  C   UNL d   1     -47.585  29.072  35.276  0.00  0.00     0.152 A 
ENDBRANCH  17  19
ENDBRANCH   4  16
TORSDOF 3
ENDMDL
