MODEL 1
REMARK VINA RESULT:      68.4      0.000      0.000
REMARK  5 active torsions:
REMARK  status: ('A' for Active; 'I' for Inactive)
REMARK    1  A    between atoms: C_20  and  N_1 
REMARK       I    between atoms: C_6  and  N_7 
REMARK    2  A    between atoms: C_10  and  C_6 
REMARK    3  A    between atoms: N_7  and  C_8 
REMARK    4  A    between atoms: O_22  and  C_13 
REMARK    5  A    between atoms: O_23  and  C_16 
ROOT
ATOM      1  N   UNL d   1     -54.719-101.751 -37.451  0.00  0.00    -0.273 N 
ATOM      2  C   UNL d   1     -54.718-100.745 -37.237  0.00  0.00     0.265 A 
ATOM      3  C   UNL d   1     -54.718-101.746 -38.333  0.00  0.00     0.067 A 
ATOM      4  C   UNL d   1     -54.716-101.012 -38.606  0.00  0.00     0.022 A 
ATOM      5  C   UNL d   1     -54.716-100.384 -38.068  0.00  0.00     0.058 A 
ATOM      6  C   UNL d   1     -54.715-101.473 -39.936  0.00  0.00     0.085 A 
ATOM      7  C   UNL d   1     -54.715-100.875 -39.403  0.00  0.00     0.019 A 
ATOM      8  C   UNL d   1     -54.719-102.395 -38.891  0.00  0.00     0.019 A 
ATOM      9  O   UNL d   1     -54.718-100.429 -36.511  0.00  0.00    -0.267 OA
ATOM     10  C   UNL d   1     -54.717-102.249 -39.656  0.00  0.00     0.021 A 
ATOM     11  C   UNL d   1     -54.714 -99.627 -38.348  0.00  0.00     0.005 A 
ATOM     12  C   UNL d   1     -54.713-100.093 -39.696  0.00  0.00     0.002 A 
ATOM     13  C   UNL d   1     -54.712 -99.475 -39.165  0.00  0.00     0.000 A 
ENDROOT
BRANCH   6  14
ATOM     14  N   UNL d   1     -54.714-101.337 -40.763  0.00  0.00    -0.208 NA
ATOM     15  C   UNL d   1     -55.154-101.835 -41.235  0.00  0.00     0.279 C 
ATOM     16  O   UNL d   1     -55.580-102.441 -40.928  0.00  0.00    -0.265 OA
BRANCH  15  17
ATOM     17  C   UNL d   1     -55.158-101.713 -42.020  0.00  0.00     0.060 A 
ATOM     18  C   UNL d   1     -55.076-102.342 -42.458  0.00  0.00     0.031 A 
ATOM     19  C   UNL d   1     -55.078-102.234 -43.341  0.00  0.00     0.116 A 
ATOM     20  C   UNL d   1     -55.166-101.468 -43.656  0.00  0.00     0.116 A 
ATOM     21  C   UNL d   1     -55.249-100.829 -43.158  0.00  0.00     0.026 A 
ATOM     22  C   UNL d   1     -55.246-100.952 -42.329  0.00  0.00     0.007 A 
BRANCH  19  23
ATOM     23  O   UNL d   1     -54.997-102.844 -43.836  0.00  0.00    -0.326 OA
ATOM     24  C   UNL d   1     -55.196-102.754 -44.625  0.00  0.00     0.181 C 
ENDBRANCH  19  23
BRANCH  20  25
ATOM     25  O   UNL d   1     -55.169-101.349 -44.483  0.00  0.00    -0.326 OA
ATOM     26  C   UNL d   1     -54.927-100.622 -44.794  0.00  0.00     0.181 C 
ENDBRANCH  20  25
ENDBRANCH  15  17
ENDBRANCH   6  14
BRANCH   1  27
ATOM     27  C   UNL d   1     -54.722-102.679 -37.189  0.00  0.00     0.083 C 
ATOM     28  C   UNL d   1     -54.846-102.878 -36.417  0.00  0.00     0.021 C 
ENDBRANCH   1  27
TORSDOF 5
ENDMDL
