MODEL 1
REMARK VINA RESULT:      -7.1      0.000      0.000
REMARK  8 active torsions:
REMARK  status: ('A' for Active; 'I' for Inactive)
REMARK    1  A    between atoms: C_9  and  N_1 
REMARK    2  A    between atoms: C_7  and  C_2 
REMARK    3  A    between atoms: C_6  and  C_4 
REMARK    4  A    between atoms: C_8  and  C_11 
REMARK       I    between atoms: N_23  and  C_8 
REMARK    5  A    between atoms: C_26  and  N_23 
REMARK    6  A    between atoms: C_24  and  C_26 
REMARK    7  A    between atoms: C_27  and  C_24 
REMARK    8  A    between atoms: O_25  and  C_27 
ROOT
ATOM      1  N   UNL d   1     -48.013  13.799  22.866  0.00  0.00    -0.229 N 
ATOM      2  C   UNL d   1     -48.677  13.348  23.117  0.00  0.00     0.090 A 
ATOM      3  N   UNL d   1     -48.257  14.567  22.770  0.00  0.00    -0.161 NA
ATOM      4  C   UNL d   1     -49.064  14.621  22.954  0.00  0.00     0.174 A 
ATOM      5  C   UNL d   1     -49.322  13.860  23.169  0.00  0.00     0.044 A 
ENDROOT
BRANCH   1   6
ATOM      6  C   UNL d   1     -47.253  13.513  22.741  0.00  0.00     0.083 A 
ATOM      7  C   UNL d   1     -47.018  13.282  21.983  0.00  0.00     0.019 A 
ATOM      8  C   UNL d   1     -46.257  12.994  21.850  0.00  0.00     0.006 A 
ATOM      9  C   UNL d   1     -45.726  12.938  22.487  0.00  0.00     0.058 A 
ATOM     10  C   UNL d   1     -45.965  13.171  23.249  0.00  0.00     0.006 A 
ATOM     11  C   UNL d   1     -46.721  13.455  23.370  0.00  0.00     0.019 A 
BRANCH   9  12
ATOM     12  C   UNL d   1     -44.957  12.648  22.358  0.00  0.00     0.279 C 
ATOM     13  O   UNL d   1     -44.650  12.059  22.843  0.00  0.00    -0.265 OA
ATOM     14  N   UNL d   1     -44.503  12.951  21.744  0.00  0.00    -0.206 NA
BRANCH  14  15
ATOM     15  C   UNL d   1     -43.742  12.669  21.611  0.00  0.00     0.104 C 
BRANCH  15  16
ATOM     16  C   UNL d   1     -43.222  13.081  21.121  0.00  0.00     0.047 C 
BRANCH  16  17
ATOM     17  C   UNL d   1     -42.432  13.187  21.348  0.00  0.00     0.118 C 
BRANCH  17  18
ATOM     18  O   UNL d   1     -41.905  13.542  20.820  0.00  0.00    -0.326 OA
ATOM     19  C   UNL d   1     -41.299  14.033  21.108  0.00  0.00     0.181 C 
ENDBRANCH  17  18
ENDBRANCH  16  17
ENDBRANCH  15  16
ENDBRANCH  14  15
ENDBRANCH   9  12
ENDBRANCH   1   6
BRANCH   2  20
ATOM     20  C   UNL d   1     -48.767  12.548  23.300  0.00  0.00     0.047 A 
ATOM     21  S   UNL d   1     -48.418  11.901  23.698  0.00  0.00    -0.085 SA
ATOM     22  C   UNL d   1     -48.916  11.244  23.596  0.00  0.00     0.035 A 
ATOM     23  C   UNL d   1     -49.556  11.489  23.144  0.00  0.00     0.007 A 
ATOM     24  C   UNL d   1     -49.467  12.286  22.962  0.00  0.00     0.009 A 
ENDBRANCH   2  20
BRANCH   4  25
ATOM     25  C   UNL d   1     -49.531  15.301  22.929  0.00  0.00     0.437 C 
ATOM     26  F   UNL d   1     -49.958  15.922  22.903  0.00  0.00    -0.164 F 
ATOM     27  F   UNL d   1     -50.042  15.585  22.295  0.00  0.00    -0.164 F 
ATOM     28  F   UNL d   1     -49.636  15.917  23.528  0.00  0.00    -0.164 F 
ENDBRANCH   4  25
TORSDOF 8
ENDMDL
MODEL 2
REMARK VINA RESULT:      -5.9      1.531      1.810
REMARK  8 active torsions:
REMARK  status: ('A' for Active; 'I' for Inactive)
REMARK    1  A    between atoms: C_9  and  N_1 
REMARK    2  A    between atoms: C_7  and  C_2 
REMARK    3  A    between atoms: C_6  and  C_4 
REMARK    4  A    between atoms: C_8  and  C_11 
REMARK       I    between atoms: N_23  and  C_8 
REMARK    5  A    between atoms: C_26  and  N_23 
REMARK    6  A    between atoms: C_24  and  C_26 
REMARK    7  A    between atoms: C_27  and  C_24 
REMARK    8  A    between atoms: O_25  and  C_27 
ROOT
ATOM      1  N   UNL d   1     -48.916  13.835  22.966  0.00  0.00    -0.229 N 
ATOM      2  C   UNL d   1     -49.542  13.323  23.194  0.00  0.00     0.090 A 
ATOM      3  N   UNL d   1     -49.231  14.574  22.847  0.00  0.00    -0.161 NA
ATOM      4  C   UNL d   1     -50.046  14.549  22.994  0.00  0.00     0.174 A 
ATOM      5  C   UNL d   1     -50.236  13.768  23.210  0.00  0.00     0.044 A 
ENDROOT
BRANCH   1   6
ATOM      6  C   UNL d   1     -48.126  13.626  22.878  0.00  0.00     0.083 A 
ATOM      7  C   UNL d   1     -47.874  13.243  22.190  0.00  0.00     0.019 A 
ATOM      8  C   UNL d   1     -47.083  13.030  22.095  0.00  0.00     0.006 A 
ATOM      9  C   UNL d   1     -46.540  13.203  22.699  0.00  0.00     0.058 A 
ATOM     10  C   UNL d   1     -46.795  13.588  23.390  0.00  0.00     0.006 A 
ATOM     11  C   UNL d   1     -47.582  13.795  23.475  0.00  0.00     0.019 A 
BRANCH   9  12
ATOM     12  C   UNL d   1     -45.741  12.990  22.608  0.00  0.00     0.279 C 
ATOM     13  O   UNL d   1     -45.180  13.560  22.412  0.00  0.00    -0.265 OA
ATOM     14  N   UNL d   1     -45.511  12.209  22.715  0.00  0.00    -0.206 NA
BRANCH  14  15
ATOM     15  C   UNL d   1     -44.723  11.992  22.627  0.00  0.00     0.104 C 
BRANCH  15  16
ATOM     16  C   UNL d   1     -44.460  11.254  22.885  0.00  0.00     0.047 C 
BRANCH  16  17
ATOM     17  C   UNL d   1     -43.673  11.153  23.124  0.00  0.00     0.118 C 
BRANCH  17  18
ATOM     18  O   UNL d   1     -43.330  10.402  23.076  0.00  0.00    -0.326 OA
ATOM     19  C   UNL d   1     -43.457   9.850  23.685  0.00  0.00     0.181 C 
ENDBRANCH  17  18
ENDBRANCH  16  17
ENDBRANCH  15  16
ENDBRANCH  14  15
ENDBRANCH   9  12
ENDBRANCH   1   6
BRANCH   2  20
ATOM     20  C   UNL d   1     -49.559  12.520  23.386  0.00  0.00     0.047 A 
ATOM     21  S   UNL d   1     -49.099  11.879  23.658  0.00  0.00    -0.085 SA
ATOM     22  C   UNL d   1     -49.591  11.212  23.696  0.00  0.00     0.035 A 
ATOM     23  C   UNL d   1     -50.340  11.445  23.452  0.00  0.00     0.007 A 
ATOM     24  C   UNL d   1     -50.322  12.245  23.261  0.00  0.00     0.009 A 
ENDBRANCH   2  20
BRANCH   4  25
ATOM     25  C   UNL d   1     -50.577  15.179  22.939  0.00  0.00     0.437 C 
ATOM     26  F   UNL d   1     -51.061  15.755  22.891  0.00  0.00    -0.164 F 
ATOM     27  F   UNL d   1     -50.805  15.750  23.543  0.00  0.00    -0.164 F 
ATOM     28  F   UNL d   1     -51.049  15.441  22.262  0.00  0.00    -0.164 F 
ENDBRANCH   4  25
TORSDOF 8
ENDMDL
MODEL 3
REMARK VINA RESULT:      -5.0      6.110      8.454
REMARK  8 active torsions:
REMARK  status: ('A' for Active; 'I' for Inactive)
REMARK    1  A    between atoms: C_9  and  N_1 
REMARK    2  A    between atoms: C_7  and  C_2 
REMARK    3  A    between atoms: C_6  and  C_4 
REMARK    4  A    between atoms: C_8  and  C_11 
REMARK       I    between atoms: N_23  and  C_8 
REMARK    5  A    between atoms: C_26  and  N_23 
REMARK    6  A    between atoms: C_24  and  C_26 
REMARK    7  A    between atoms: C_27  and  C_24 
REMARK    8  A    between atoms: O_25  and  C_27 
ROOT
ATOM      1  N   UNL d   1     -40.744  14.265  19.914  0.00  0.00    -0.229 N 
ATOM      2  C   UNL d   1     -40.475  14.396  20.699  0.00  0.00     0.090 A 
ATOM      3  N   UNL d   1     -41.475  13.917  19.958  0.00  0.00    -0.161 NA
ATOM      4  C   UNL d   1     -41.684  13.819  20.755  0.00  0.00     0.174 A 
ATOM      5  C   UNL d   1     -41.057  14.119  21.213  0.00  0.00     0.044 A 
ENDROOT
BRANCH   1   6
ATOM      6  C   UNL d   1     -40.339  14.456  19.225  0.00  0.00     0.083 A 
ATOM      7  C   UNL d   1     -39.722  13.973  18.960  0.00  0.00     0.019 A 
ATOM      8  C   UNL d   1     -39.311  14.159  18.270  0.00  0.00     0.006 A 
ATOM      9  C   UNL d   1     -39.524  14.838  17.841  0.00  0.00     0.058 A 
ATOM     10  C   UNL d   1     -40.144  15.323  18.109  0.00  0.00     0.006 A 
ATOM     11  C   UNL d   1     -40.545  15.130  18.794  0.00  0.00     0.019 A 
BRANCH   9  12
ATOM     12  C   UNL d   1     -39.112  15.030  17.143  0.00  0.00     0.279 C 
ATOM     13  O   UNL d   1     -38.844  15.797  17.019  0.00  0.00    -0.265 OA
ATOM     14  N   UNL d   1     -38.974  14.451  16.577  0.00  0.00    -0.206 NA
BRANCH  14  15
ATOM     15  C   UNL d   1     -38.569  14.633  15.886  0.00  0.00     0.104 C 
BRANCH  15  16
ATOM     16  C   UNL d   1     -38.100  14.067  15.513  0.00  0.00     0.047 C 
BRANCH  16  17
ATOM     17  C   UNL d   1     -38.179  13.931  14.699  0.00  0.00     0.118 C 
BRANCH  17  18
ATOM     18  O   UNL d   1     -37.940  13.204  14.387  0.00  0.00    -0.326 OA
ATOM     19  C   UNL d   1     -37.940  13.088  13.564  0.00  0.00     0.181 C 
ENDBRANCH  17  18
ENDBRANCH  16  17
ENDBRANCH  15  16
ENDBRANCH  14  15
ENDBRANCH   9  12
ENDBRANCH   1   6
BRANCH   2  20
ATOM     20  C   UNL d   1     -39.780  14.727  20.999  0.00  0.00     0.047 A 
ATOM     21  S   UNL d   1     -38.955  14.622  21.069  0.00  0.00    -0.085 SA
ATOM     22  C   UNL d   1     -38.652  15.271  21.489  0.00  0.00     0.035 A 
ATOM     23  C   UNL d   1     -39.284  15.761  21.672  0.00  0.00     0.007 A 
ATOM     24  C   UNL d   1     -39.975  15.431  21.374  0.00  0.00     0.009 A 
ENDBRANCH   2  20
BRANCH   4  25
ATOM     25  C   UNL d   1     -42.381  13.488  21.045  0.00  0.00     0.437 C 
ATOM     26  F   UNL d   1     -43.017  13.182  21.309  0.00  0.00    -0.164 F 
ATOM     27  F   UNL d   1     -42.618  12.659  21.070  0.00  0.00    -0.164 F 
ATOM     28  F   UNL d   1     -43.067  13.877  21.404  0.00  0.00    -0.164 F 
ENDBRANCH   4  25
TORSDOF 8
ENDMDL
