MODEL 1
REMARK VINA RESULT:      24.5      0.000      0.000
REMARK  0 active torsions:
REMARK  status: ('A' for Active; 'I' for Inactive)
ROOT
ATOM      1  C   UNL d   1     -54.720-100.814 -38.134  0.00  0.00     0.267 A 
ATOM      2  N   UNL d   1     -54.718-100.729 -37.338  0.00  0.00    -0.270 N 
ATOM      3  C   UNL d   1     -54.724-101.403 -38.480  0.00  0.00     0.081 A 
ATOM      4  C   UNL d   1     -54.728-102.193 -38.262  0.00  0.00     0.105 A 
ATOM      5  O   UNL d   1     -54.729-102.533 -37.641  0.00  0.00    -0.305 OA
ATOM      6  C   UNL d   1     -54.721-101.349 -36.781  0.00  0.00     0.090 A 
ATOM      7  C   UNL d   1     -54.726-102.186 -36.921  0.00  0.00     0.116 A 
ATOM      8  C   UNL d   1     -54.724-101.196 -39.270  0.00  0.00     0.028 A 
ATOM      9  O   UNL d   1     -54.717-100.126 -38.582  0.00  0.00    -0.267 OA
ATOM     10  C   UNL d   1     -54.733-102.776 -38.836  0.00  0.00     0.026 A 
ATOM     11  C   UNL d   1     -54.729-101.780 -39.852  0.00  0.00     0.103 A 
ATOM     12  C   UNL d   1     -54.713 -99.966 -37.045  0.00  0.00     0.102 C 
ATOM     13  N   UNL d   1     -54.729-101.568 -40.644  0.00  0.00    -0.148 N 
ATOM     14  C   UNL d   1     -54.733-102.571 -39.635  0.00  0.00     0.023 A 
ATOM     15  C   UNL d   1     -54.718-101.053 -35.987  0.00  0.00     0.020 A 
ATOM     16  C   UNL d   1     -54.728-102.716 -36.273  0.00  0.00     0.026 A 
ATOM     17  C   UNL d   1     -54.720-101.590 -35.337  0.00  0.00     0.002 A 
ATOM     18  C   UNL d   1     -54.725-102.428 -35.480  0.00  0.00     0.002 A 
ENDROOT
TORSDOF 0
ENDMDL
