MODEL 1
REMARK VINA RESULT:      57.4      0.000      0.000
REMARK  2 active torsions:
REMARK  status: ('A' for Active; 'I' for Inactive)
REMARK    1  A    between atoms: C_12  and  C_4 
REMARK    2  A    between atoms: C_10  and  C_5 
ROOT
ATOM      1  N   UNL d   1      58.117  49.575  51.355  0.00  0.00    -0.208 N 
ATOM      2  N   UNL d   1      58.892  49.524  51.643  0.00  0.00    -0.163 NA
ATOM      3  C   UNL d   1      58.150  49.554  50.530  0.00  0.00     0.088 A 
ATOM      4  C   UNL d   1      57.396  49.636  51.740  0.00  0.00     0.183 A 
ATOM      5  C   UNL d   1      59.402  49.473  51.000  0.00  0.00     0.109 A 
ATOM      6  O   UNL d   1      56.702  49.677  51.299  0.00  0.00    -0.289 OA
ATOM      7  C   UNL d   1      58.948  49.491  50.311  0.00  0.00     0.041 A 
ATOM      8  C   UNL d   1      57.462  49.595  50.093  0.00  0.00     0.041 A 
ATOM      9  C   UNL d   1      56.731  49.657  50.476  0.00  0.00     0.103 A 
ATOM     10  C   UNL d   1      57.491  49.575  49.270  0.00  0.00     0.004 A 
ATOM     11  C   UNL d   1      56.037  49.698  50.037  0.00  0.00     0.025 A 
ATOM     12  C   UNL d   1      56.798  49.616  48.830  0.00  0.00     0.000 A 
ATOM     13  C   UNL d   1      56.068  49.677  49.215  0.00  0.00     0.002 A 
ENDROOT
BRANCH   4  14
ATOM     14  C   UNL d   1      57.366  49.656  52.564  0.00  0.00     0.041 A 
ATOM     15  C   UNL d   1      58.060  49.679  52.990  0.00  0.00     0.004 A 
ATOM     16  C   UNL d   1      58.033  49.700  53.821  0.00  0.00     0.000 A 
ATOM     17  C   UNL d   1      57.299  49.697  54.211  0.00  0.00     0.000 A 
ATOM     18  C   UNL d   1      56.601  49.674  53.765  0.00  0.00     0.000 A 
ATOM     19  C   UNL d   1      56.631  49.653  52.943  0.00  0.00     0.004 A 
ENDBRANCH   4  14
BRANCH   5  20
ATOM     20  C   UNL d   1      60.222  49.414  51.032  0.00  0.00     0.049 A 
ATOM     21  S   UNL d   1      60.706  49.699  51.632  0.00  0.00    -0.085 SA
ATOM     22  C   UNL d   1      61.486  49.520  51.438  0.00  0.00     0.035 A 
ATOM     23  C   UNL d   1      61.487  49.120  50.713  0.00  0.00     0.007 A 
ATOM     24  C   UNL d   1      60.713  49.051  50.458  0.00  0.00     0.009 A 
ENDBRANCH   5  20
TORSDOF 2
ENDMDL
