MODEL 1
REMARK VINA RESULT:      78.5      0.000      0.000
REMARK  5 active torsions:
REMARK  status: ('A' for Active; 'I' for Inactive)
REMARK    1  A    between atoms: N_6  and  C_1 
REMARK    2  A    between atoms: C_12  and  C_2 
REMARK       I    between atoms: C_9  and  N_6 
REMARK       I    between atoms: C_11  and  N_7 
REMARK    3  A    between atoms: C_8  and  C_9 
REMARK    4  A    between atoms: O_24  and  C_11 
REMARK    5  A    between atoms: C_25  and  O_24 
ROOT
ATOM      1  C   UNL d   1     -48.980  28.820  34.144  0.00  0.00     0.119 A 
ATOM      2  C   UNL d   1     -48.375  29.036  34.663  0.00  0.00     0.084 A 
ATOM      3  C   UNL d   1     -48.788  30.133  34.032  0.00  0.00     0.049 A 
ATOM      4  C   UNL d   1     -48.263  29.857  34.586  0.00  0.00     0.016 A 
ATOM      5  S   UNL d   1     -49.239  29.506  33.749  0.00  0.00    -0.066 SA
ATOM      6  N   UNL d   1     -48.280  31.460  34.213  0.00  0.00    -0.251 N 
ATOM      7  C   UNL d   1     -48.283  32.273  34.029  0.00  0.00     0.378 C 
ATOM      8  C   UNL d   1     -48.800  30.951  33.839  0.00  0.00     0.091 A 
ATOM      9  C   UNL d   1     -47.731  30.370  34.971  0.00  0.00     0.020 A 
ATOM     10  C   UNL d   1     -47.749  31.172  34.775  0.00  0.00     0.085 A 
ATOM     11  O   UNL d   1     -48.814  32.562  33.467  0.00  0.00    -0.237 OA
ENDROOT
BRANCH   1  12
ATOM     12  N   UNL d   1     -49.278  28.058  34.034  0.00  0.00    -0.201 NA
ATOM     13  C   UNL d   1     -49.978  27.946  33.618  0.00  0.00     0.286 C 
ATOM     14  O   UNL d   1     -50.389  28.597  33.307  0.00  0.00    -0.265 OA
BRANCH  13  15
ATOM     15  C   UNL d   1     -50.276  27.184  33.508  0.00  0.00     0.088 A 
ATOM     16  S   UNL d   1     -51.082  26.961  33.487  0.00  0.00    -0.071 SA
ATOM     17  C   UNL d   1     -51.113  26.138  33.364  0.00  0.00     0.087 A 
ATOM     18 CL   UNL d   1     -51.813  25.675  33.306  0.00  0.00    -0.075 Cl
ATOM     19  C   UNL d   1     -50.338  25.860  33.310  0.00  0.00     0.019 A 
ATOM     20  C   UNL d   1     -49.830  26.511  33.400  0.00  0.00     0.013 A 
ENDBRANCH  13  15
ENDBRANCH   1  12
BRANCH   2  21
ATOM     21  C   UNL d   1     -47.962  28.532  35.163  0.00  0.00     0.299 C 
ATOM     22  O   UNL d   1     -47.215  28.273  34.955  0.00  0.00    -0.264 OA
ATOM     23  N   UNL d   1     -48.302  28.287  35.875  0.00  0.00    -0.102 N 
ENDBRANCH   2  21
BRANCH   7  24
ATOM     24  O   UNL d   1     -47.761  32.788  34.405  0.00  0.00    -0.257 OA
BRANCH  24  25
ATOM     25  C   UNL d   1     -47.530  33.489  34.036  0.00  0.00     0.128 C 
ATOM     26  C   UNL d   1     -46.827  33.529  33.613  0.00  0.00     0.029 C 
ENDBRANCH  24  25
ENDBRANCH   7  24
TORSDOF 5
ENDMDL
MODEL 2
REMARK VINA RESULT:      81.3      2.164      5.138
REMARK  5 active torsions:
REMARK  status: ('A' for Active; 'I' for Inactive)
REMARK    1  A    between atoms: N_6  and  C_1 
REMARK    2  A    between atoms: C_12  and  C_2 
REMARK       I    between atoms: C_9  and  N_6 
REMARK       I    between atoms: C_11  and  N_7 
REMARK    3  A    between atoms: C_8  and  C_9 
REMARK    4  A    between atoms: O_24  and  C_11 
REMARK    5  A    between atoms: C_25  and  O_24 
ROOT
ATOM      1  C   UNL d   1     -48.503  29.765  34.426  0.00  0.00     0.119 A 
ATOM      2  C   UNL d   1     -48.274  29.099  34.858  0.00  0.00     0.084 A 
ATOM      3  C   UNL d   1     -49.350  28.777  34.144  0.00  0.00     0.049 A 
ATOM      4  C   UNL d   1     -48.808  28.488  34.675  0.00  0.00     0.016 A 
ATOM      5  S   UNL d   1     -49.176  29.564  33.980  0.00  0.00    -0.066 SA
ATOM      6  N   UNL d   1     -50.004  27.503  34.122  0.00  0.00    -0.251 N 
ATOM      7  C   UNL d   1     -50.608  26.998  33.845  0.00  0.00     0.378 C 
ATOM      8  C   UNL d   1     -49.963  28.277  33.859  0.00  0.00     0.091 A 
ATOM      9  C   UNL d   1     -48.845  27.702  34.946  0.00  0.00     0.020 A 
ATOM     10  C   UNL d   1     -49.450  27.217  34.661  0.00  0.00     0.085 A 
ATOM     11  O   UNL d   1     -51.163  27.284  33.306  0.00  0.00    -0.237 OA
ENDROOT
BRANCH   1  12
ATOM     12  N   UNL d   1     -48.131  30.501  34.434  0.00  0.00    -0.201 NA
ATOM     13  C   UNL d   1     -48.524  31.164  34.144  0.00  0.00     0.286 C 
ATOM     14  O   UNL d   1     -49.294  31.095  33.843  0.00  0.00    -0.265 OA
BRANCH  13  15
ATOM     15  C   UNL d   1     -48.152  31.900  34.152  0.00  0.00     0.088 A 
ATOM     16  S   UNL d   1     -47.802  32.291  33.500  0.00  0.00    -0.071 SA
ATOM     17  C   UNL d   1     -47.498  33.016  33.773  0.00  0.00     0.087 A 
ATOM     18 CL   UNL d   1     -47.098  33.590  33.306  0.00  0.00    -0.075 Cl
ATOM     19  C   UNL d   1     -47.659  33.071  34.581  0.00  0.00     0.019 A 
ATOM     20  C   UNL d   1     -48.062  32.380  34.805  0.00  0.00     0.013 A 
ENDBRANCH  13  15
ENDBRANCH   1  12
BRANCH   2  21
ATOM     21  C   UNL d   1     -47.635  29.051  35.372  0.00  0.00     0.299 C 
ATOM     22  O   UNL d   1     -47.743  29.187  36.171  0.00  0.00    -0.264 OA
ATOM     23  N   UNL d   1     -46.884  28.866  35.081  0.00  0.00    -0.102 N 
ENDBRANCH   2  21
BRANCH   7  24
ATOM     24  O   UNL d   1     -50.652  26.219  34.108  0.00  0.00    -0.257 OA
BRANCH  24  25
ATOM     25  C   UNL d   1     -50.492  25.596  33.591  0.00  0.00     0.128 C 
ATOM     26  C   UNL d   1     -50.961  24.921  33.588  0.00  0.00     0.029 C 
ENDBRANCH  24  25
ENDBRANCH   7  24
TORSDOF 5
ENDMDL
