MODEL 1
REMARK VINA RESULT:      -2.3      0.000      0.000
REMARK  4 active torsions:
REMARK  status: ('A' for Active; 'I' for Inactive)
REMARK    1  A    between atoms: S_3  and  N_1 
REMARK    2  A    between atoms: C_7  and  C_4 
REMARK    3  A    between atoms: C_10  and  C_5 
REMARK    4  A    between atoms: C_21  and  C_20 
ROOT
ATOM      1  N   UNL d   1     -42.752-122.889 -49.675  0.00  0.00    -0.155 N 
ATOM      2  N   UNL d   1     -42.720-122.959 -48.844  0.00  0.00    -0.153 NA
ATOM      3  C   UNL d   1     -41.929-123.030 -48.634  0.00  0.00     0.126 A 
ATOM      4  C   UNL d   1     -41.991-122.918 -49.956  0.00  0.00     0.096 A 
ATOM      5  C   UNL d   1     -41.485-123.003 -49.338  0.00  0.00     0.043 A 
ENDROOT
BRANCH   4   6
ATOM      6  C   UNL d   1     -41.775-122.869 -50.751  0.00  0.00     0.018 A 
ATOM      7  C   UNL d   1     -41.686-122.129 -51.135  0.00  0.00     0.002 A 
ATOM      8  C   UNL d   1     -41.470-122.079 -51.930  0.00  0.00     0.000 A 
ATOM      9  C   UNL d   1     -41.343-122.770 -52.341  0.00  0.00     0.000 A 
ATOM     10  C   UNL d   1     -41.418-123.496 -52.004  0.00  0.00     0.000 A 
ATOM     11  C   UNL d   1     -41.635-123.546 -51.209  0.00  0.00     0.002 A 
BRANCH   9  12
ATOM     12  C   UNL d   1     -41.127-122.720 -53.135  0.00  0.00     0.000 C 
ATOM     13  C   UNL d   1     -41.411-123.275 -53.675  0.00  0.00     0.000 C 
ENDBRANCH   9  12
ENDBRANCH   4   6
BRANCH   1  14
ATOM     14  S   UNL d   1     -43.460-122.807 -50.092  0.00  0.00     0.266 S 
ATOM     15  O   UNL d   1     -43.561-123.630 -50.081  0.00  0.00    -0.203 OA
ATOM     16  O   UNL d   1     -43.384-121.993 -50.117  0.00  0.00    -0.203 OA
ATOM     17  C   UNL d   1     -44.169-122.755 -50.507  0.00  0.00     0.165 C 
ENDBRANCH   1  14
BRANCH   3  18
ATOM     18  C   UNL d   1     -41.626-123.112 -47.868  0.00  0.00     0.119 A 
ATOM     19  O   UNL d   1     -41.394-122.481 -47.404  0.00  0.00    -0.304 OA
ATOM     20  C   UNL d   1     -41.123-122.815 -46.676  0.00  0.00     0.123 A 
ATOM     21  C   UNL d   1     -41.203-123.629 -46.734  0.00  0.00     0.029 A 
ATOM     22  C   UNL d   1     -41.509-123.817 -47.457  0.00  0.00     0.028 A 
ENDBRANCH   3  18
TORSDOF 4
ENDMDL
MODEL 2
REMARK VINA RESULT:      -0.8      1.617      4.347
REMARK  4 active torsions:
REMARK  status: ('A' for Active; 'I' for Inactive)
REMARK    1  A    between atoms: S_3  and  N_1 
REMARK    2  A    between atoms: C_7  and  C_4 
REMARK    3  A    between atoms: C_10  and  C_5 
REMARK    4  A    between atoms: C_21  and  C_20 
ROOT
ATOM      1  N   UNL d   1     -41.805-122.008 -51.623  0.00  0.00    -0.155 N 
ATOM      2  N   UNL d   1     -41.687-121.992 -52.449  0.00  0.00    -0.153 NA
ATOM      3  C   UNL d   1     -41.532-122.761 -52.690  0.00  0.00     0.126 A 
ATOM      4  C   UNL d   1     -41.721-122.776 -51.375  0.00  0.00     0.096 A 
ATOM      5  C   UNL d   1     -41.556-123.241 -52.009  0.00  0.00     0.043 A 
ENDROOT
BRANCH   4   6
ATOM      6  C   UNL d   1     -41.794-123.035 -50.595  0.00  0.00     0.018 A 
ATOM      7  C   UNL d   1     -41.123-123.141 -50.104  0.00  0.00     0.002 A 
ATOM      8  C   UNL d   1     -41.196-123.401 -49.325  0.00  0.00     0.000 A 
ATOM      9  C   UNL d   1     -41.940-123.554 -49.035  0.00  0.00     0.000 A 
ATOM     10  C   UNL d   1     -42.606-123.463 -49.477  0.00  0.00     0.000 A 
ATOM     11  C   UNL d   1     -42.533-123.204 -50.257  0.00  0.00     0.002 A 
BRANCH   9  12
ATOM     12  C   UNL d   1     -42.013-123.813 -48.256  0.00  0.00     0.000 C 
ATOM     13  C   UNL d   1     -42.266-123.290 -47.669  0.00  0.00     0.000 C 
ENDBRANCH   9  12
ENDBRANCH   4   6
BRANCH   1  14
ATOM     14  S   UNL d   1     -41.975-121.331 -51.180  0.00  0.00     0.266 S 
ATOM     15  O   UNL d   1     -41.185-121.299 -50.929  0.00  0.00    -0.203 OA
ATOM     16  O   UNL d   1     -42.759-121.342 -51.413  0.00  0.00    -0.203 OA
ATOM     17  C   UNL d   1     -42.115-120.657 -50.730  0.00  0.00     0.165 C 
ENDBRANCH   1  14
BRANCH   3  18
ATOM     18  C   UNL d   1     -41.380-123.018 -53.462  0.00  0.00     0.119 A 
ATOM     19  O   UNL d   1     -41.320-123.805 -53.673  0.00  0.00    -0.304 OA
ATOM     20  C   UNL d   1     -41.163-123.812 -54.504  0.00  0.00     0.123 A 
ATOM     21  C   UNL d   1     -41.136-123.032 -54.755  0.00  0.00     0.029 A 
ATOM     22  C   UNL d   1     -41.267-122.544 -54.126  0.00  0.00     0.028 A 
ENDBRANCH   3  18
TORSDOF 4
ENDMDL
