MODEL 1
REMARK VINA RESULT:      -7.7      0.000      0.000
REMARK  3 active torsions:
REMARK  status: ('A' for Active; 'I' for Inactive)
REMARK    1  A    between atoms: N_3  and  S_1 
REMARK    2  A    between atoms: C_10  and  S_1 
REMARK    3  A    between atoms: C_2  and  N_3 
ROOT
ATOM      1  N   UNL d   1     -48.609  14.071  23.042  0.00  0.00     0.034 NA
ENDROOT
BRANCH   1   2
ATOM      2  C   UNL d   1     -48.107  13.431  23.176  0.00  0.00     0.760 A 
ATOM      3  N   UNL d   1     -48.321  12.666  23.402  0.00  0.00    -0.057 NA
ATOM      4  C   UNL d   1     -47.660  12.213  23.471  0.00  0.00     0.118 A 
ATOM      5  C   UNL d   1     -47.551  11.422  23.678  0.00  0.00     0.021 A 
ATOM      6  C   UNL d   1     -47.010  12.687  23.288  0.00  0.00     0.118 A 
ATOM      7  C   UNL d   1     -46.805  11.125  23.697  0.00  0.00     0.002 A 
ATOM      8  C   UNL d   1     -46.155  11.599  23.515  0.00  0.00     0.002 A 
ATOM      9  C   UNL d   1     -46.249  12.369  23.312  0.00  0.00     0.021 A 
ATOM     10  N   UNL d   1     -47.280  13.424  23.109  0.00  0.00    -0.057 NA
ENDBRANCH   1   2
BRANCH   1  11
ATOM     11  S   UNL d   1     -49.033  14.123  22.335  0.00  0.00     0.300 S 
ATOM     12  O   UNL d   1     -49.456  14.174  21.625  0.00  0.00    -0.198 OA
ATOM     13  O   UNL d   1     -48.472  13.645  21.965  0.00  0.00    -0.198 OA
BRANCH  11  14
ATOM     14  C   UNL d   1     -49.594  14.602  22.707  0.00  0.00     0.106 A 
ATOM     15  C   UNL d   1     -50.363  14.325  22.817  0.00  0.00     0.013 A 
ATOM     16  C   UNL d   1     -50.926  14.804  23.189  0.00  0.00     0.001 A 
ATOM     17  C   UNL d   1     -50.717  15.558  23.450  0.00  0.00     0.000 A 
ATOM     18  C   UNL d   1     -49.953  15.807  23.329  0.00  0.00     0.001 A 
ATOM     19  C   UNL d   1     -49.385  15.356  22.968  0.00  0.00     0.013 A 
ENDBRANCH  11  14
ENDBRANCH   1  11
TORSDOF 3
ENDMDL
MODEL 2
REMARK VINA RESULT:      -7.5      0.710      3.838
REMARK  3 active torsions:
REMARK  status: ('A' for Active; 'I' for Inactive)
REMARK    1  A    between atoms: N_3  and  S_1 
REMARK    2  A    between atoms: C_10  and  S_1 
REMARK    3  A    between atoms: C_2  and  N_3 
ROOT
ATOM      1  N   UNL d   1     -48.100  13.448  23.172  0.00  0.00     0.034 NA
ENDROOT
BRANCH   1   2
ATOM      2  C   UNL d   1     -48.743  13.956  23.264  0.00  0.00     0.760 A 
ATOM      3  N   UNL d   1     -49.519  13.749  23.458  0.00  0.00    -0.057 NA
ATOM      4  C   UNL d   1     -49.971  14.414  23.492  0.00  0.00     0.118 A 
ATOM      5  C   UNL d   1     -50.771  14.531  23.658  0.00  0.00     0.021 A 
ATOM      6  C   UNL d   1     -49.487  15.058  23.318  0.00  0.00     0.118 A 
ATOM      7  C   UNL d   1     -51.064  15.277  23.647  0.00  0.00     0.002 A 
ATOM      8  C   UNL d   1     -50.580  15.922  23.474  0.00  0.00     0.002 A 
ATOM      9  C   UNL d   1     -49.801  15.820  23.310  0.00  0.00     0.021 A 
ATOM     10  N   UNL d   1     -48.743  14.782  23.180  0.00  0.00    -0.057 NA
ENDBRANCH   1   2
BRANCH   1  11
ATOM     11  S   UNL d   1     -48.011  13.017  22.474  0.00  0.00     0.300 S 
ATOM     12  O   UNL d   1     -47.924  12.585  21.772  0.00  0.00    -0.198 OA
ATOM     13  O   UNL d   1     -48.532  13.530  22.091  0.00  0.00    -0.198 OA
BRANCH  11  14
ATOM     14  C   UNL d   1     -47.491  12.503  22.858  0.00  0.00     0.106 A 
ATOM     15  C   UNL d   1     -47.768  11.790  23.166  0.00  0.00     0.013 A 
ATOM     16  C   UNL d   1     -47.248  11.275  23.551  0.00  0.00     0.001 A 
ATOM     17  C   UNL d   1     -46.451  11.475  23.626  0.00  0.00     0.000 A 
ATOM     18  C   UNL d   1     -46.203  12.183  23.313  0.00  0.00     0.001 A 
ATOM     19  C   UNL d   1     -46.694  12.703  22.933  0.00  0.00     0.013 A 
ENDBRANCH  11  14
ENDBRANCH   1  11
TORSDOF 3
ENDMDL
MODEL 3
REMARK VINA RESULT:      -7.1      1.694      3.917
REMARK  3 active torsions:
REMARK  status: ('A' for Active; 'I' for Inactive)
REMARK    1  A    between atoms: N_3  and  S_1 
REMARK    2  A    between atoms: C_10  and  S_1 
REMARK    3  A    between atoms: C_2  and  N_3 
ROOT
ATOM      1  N   UNL d   1     -47.552  12.968  22.594  0.00  0.00     0.034 NA
ENDROOT
BRANCH   1   2
ATOM      2  C   UNL d   1     -48.366  13.016  22.474  0.00  0.00     0.760 A 
ATOM      3  N   UNL d   1     -48.756  13.359  21.833  0.00  0.00    -0.057 NA
ATOM      4  C   UNL d   1     -49.551  13.287  21.934  0.00  0.00     0.118 A 
ATOM      5  C   UNL d   1     -50.192  13.526  21.473  0.00  0.00     0.021 A 
ATOM      6  C   UNL d   1     -49.679  12.893  22.648  0.00  0.00     0.118 A 
ATOM      7  C   UNL d   1     -50.936  13.369  21.730  0.00  0.00     0.002 A 
ATOM      8  C   UNL d   1     -51.064  12.976  22.444  0.00  0.00     0.002 A 
ATOM      9  C   UNL d   1     -50.449  12.739  22.900  0.00  0.00     0.021 A 
ATOM     10  N   UNL d   1     -48.962  12.729  22.975  0.00  0.00    -0.057 NA
ENDBRANCH   1   2
BRANCH   1  11
ATOM     11  S   UNL d   1     -47.149  13.593  22.953  0.00  0.00     0.300 S 
ATOM     12  O   UNL d   1     -46.748  14.222  23.313  0.00  0.00    -0.198 OA
ATOM     13  O   UNL d   1     -47.870  13.960  23.120  0.00  0.00    -0.198 OA
BRANCH  11  14
ATOM     14  C   UNL d   1     -46.429  13.225  22.786  0.00  0.00     0.106 A 
ATOM     15  C   UNL d   1     -45.919  13.554  22.228  0.00  0.00     0.013 A 
ATOM     16  C   UNL d   1     -45.197  13.187  22.059  0.00  0.00     0.001 A 
ATOM     17  C   UNL d   1     -44.988  12.491  22.450  0.00  0.00     0.000 A 
ATOM     18  C   UNL d   1     -45.509  12.187  22.995  0.00  0.00     0.001 A 
ATOM     19  C   UNL d   1     -46.221  12.529  23.176  0.00  0.00     0.013 A 
ENDBRANCH  11  14
ENDBRANCH   1  11
TORSDOF 3
ENDMDL
MODEL 4
REMARK VINA RESULT:      -6.2      8.961     10.252
REMARK  3 active torsions:
REMARK  status: ('A' for Active; 'I' for Inactive)
REMARK    1  A    between atoms: N_3  and  S_1 
REMARK    2  A    between atoms: C_10  and  S_1 
REMARK    3  A    between atoms: C_2  and  N_3 
ROOT
ATOM      1  N   UNL d   1     -39.790  14.597  18.802  0.00  0.00     0.034 NA
ENDROOT
BRANCH   1   2
ATOM      2  C   UNL d   1     -39.386  14.371  18.120  0.00  0.00     0.760 A 
ATOM      3  N   UNL d   1     -38.924  13.695  18.014  0.00  0.00    -0.057 NA
ATOM      4  C   UNL d   1     -38.630  13.687  17.265  0.00  0.00     0.118 A 
ATOM      5  C   UNL d   1     -38.143  13.153  16.867  0.00  0.00     0.021 A 
ATOM      6  C   UNL d   1     -38.903  14.364  16.880  0.00  0.00     0.118 A 
ATOM      7  C   UNL d   1     -37.943  13.304  16.105  0.00  0.00     0.002 A 
ATOM      8  C   UNL d   1     -38.216  13.980  15.720  0.00  0.00     0.002 A 
ATOM      9  C   UNL d   1     -38.689  14.507  16.097  0.00  0.00     0.021 A 
ATOM     10  N   UNL d   1     -39.361  14.779  17.398  0.00  0.00    -0.057 NA
ENDBRANCH   1   2
BRANCH   1  11
ATOM     11  S   UNL d   1     -40.555  14.320  18.939  0.00  0.00     0.300 S 
ATOM     12  O   UNL d   1     -41.324  14.040  19.075  0.00  0.00    -0.198 OA
ATOM     13  O   UNL d   1     -40.527  13.894  18.233  0.00  0.00    -0.198 OA
BRANCH  11  14
ATOM     14  C   UNL d   1     -40.583  14.746  19.646  0.00  0.00     0.106 A 
ATOM     15  C   UNL d   1     -40.328  14.395  20.348  0.00  0.00     0.013 A 
ATOM     16  C   UNL d   1     -40.356  14.822  21.057  0.00  0.00     0.001 A 
ATOM     17  C   UNL d   1     -40.637  15.597  21.061  0.00  0.00     0.000 A 
ATOM     18  C   UNL d   1     -40.882  15.919  20.355  0.00  0.00     0.001 A 
ATOM     19  C   UNL d   1     -40.865  15.521  19.650  0.00  0.00     0.013 A 
ENDBRANCH  11  14
ENDBRANCH   1  11
TORSDOF 3
ENDMDL
MODEL 5
REMARK VINA RESULT:      -6.2      9.171      9.764
REMARK  3 active torsions:
REMARK  status: ('A' for Active; 'I' for Inactive)
REMARK    1  A    between atoms: N_3  and  S_1 
REMARK    2  A    between atoms: C_10  and  S_1 
REMARK    3  A    between atoms: C_2  and  N_3 
ROOT
ATOM      1  N   UNL d   1     -39.954  14.798  18.925  0.00  0.00     0.034 NA
ENDROOT
BRANCH   1   2
ATOM      2  C   UNL d   1     -39.666  14.569  19.662  0.00  0.00     0.760 A 
ATOM      3  N   UNL d   1     -38.969  14.154  19.818  0.00  0.00    -0.057 NA
ATOM      4  C   UNL d   1     -38.896  14.043  20.612  0.00  0.00     0.118 A 
ATOM      5  C   UNL d   1     -38.318  13.671  21.068  0.00  0.00     0.021 A 
ATOM      6  C   UNL d   1     -39.551  14.389  20.976  0.00  0.00     0.118 A 
ATOM      7  C   UNL d   1     -38.405  13.652  21.866  0.00  0.00     0.002 A 
ATOM      8  C   UNL d   1     -39.060  13.998  22.230  0.00  0.00     0.002 A 
ATOM      9  C   UNL d   1     -39.628  14.363  21.796  0.00  0.00     0.021 A 
ATOM     10  N   UNL d   1     -40.017  14.707  20.401  0.00  0.00    -0.057 NA
ENDBRANCH   1   2
BRANCH   1  11
ATOM     11  S   UNL d   1     -40.446  14.291  18.498  0.00  0.00     0.300 S 
ATOM     12  O   UNL d   1     -40.939  13.781  18.071  0.00  0.00    -0.198 OA
ATOM     13  O   UNL d   1     -40.467  13.773  19.139  0.00  0.00    -0.198 OA
BRANCH  11  14
ATOM     14  C   UNL d   1     -40.424  14.811  17.857  0.00  0.00     0.106 A 
ATOM     15  C   UNL d   1     -39.854  14.715  17.268  0.00  0.00     0.013 A 
ATOM     16  C   UNL d   1     -39.831  15.235  16.625  0.00  0.00     0.001 A 
ATOM     17  C   UNL d   1     -40.379  15.849  16.573  0.00  0.00     0.000 A 
ATOM     18  C   UNL d   1     -40.931  15.922  17.166  0.00  0.00     0.001 A 
ATOM     19  C   UNL d   1     -40.972  15.425  17.804  0.00  0.00     0.013 A 
ENDBRANCH  11  14
ENDBRANCH   1  11
TORSDOF 3
ENDMDL
MODEL 6
REMARK VINA RESULT:      -6.1      8.906     10.357
REMARK  3 active torsions:
REMARK  status: ('A' for Active; 'I' for Inactive)
REMARK    1  A    between atoms: N_3  and  S_1 
REMARK    2  A    between atoms: C_10  and  S_1 
REMARK    3  A    between atoms: C_2  and  N_3 
ROOT
ATOM      1  N   UNL d   1     -39.696  15.060  17.946  0.00  0.00     0.034 NA
ENDROOT
BRANCH   1   2
ATOM      2  C   UNL d   1     -40.055  15.071  18.688  0.00  0.00     0.760 A 
ATOM      3  N   UNL d   1     -40.275  15.735  19.126  0.00  0.00    -0.057 NA
ATOM      4  C   UNL d   1     -40.607  15.500  19.820  0.00  0.00     0.118 A 
ATOM      5  C   UNL d   1     -40.920  15.922  20.456  0.00  0.00     0.021 A 
ATOM      6  C   UNL d   1     -40.603  14.675  19.834  0.00  0.00     0.118 A 
ATOM      7  C   UNL d   1     -41.217  15.518  21.082  0.00  0.00     0.002 A 
ATOM      8  C   UNL d   1     -41.214  14.693  21.096  0.00  0.00     0.002 A 
ATOM      9  C   UNL d   1     -40.912  14.272  20.483  0.00  0.00     0.021 A 
ATOM     10  N   UNL d   1     -40.269  14.415  19.148  0.00  0.00    -0.057 NA
ENDBRANCH   1   2
BRANCH   1  11
ATOM     11  S   UNL d   1     -40.160  15.044  17.263  0.00  0.00     0.300 S 
ATOM     12  O   UNL d   1     -40.628  15.028  16.580  0.00  0.00    -0.198 OA
ATOM     13  O   UNL d   1     -40.842  15.032  17.728  0.00  0.00    -0.198 OA
BRANCH  11  14
ATOM     14  C   UNL d   1     -39.477  15.056  16.799  0.00  0.00     0.106 A 
ATOM     15  C   UNL d   1     -39.116  14.347  16.579  0.00  0.00     0.013 A 
ATOM     16  C   UNL d   1     -38.432  14.358  16.114  0.00  0.00     0.001 A 
ATOM     17  C   UNL d   1     -38.111  15.078  15.871  0.00  0.00     0.000 A 
ATOM     18  C   UNL d   1     -38.486  15.762  16.101  0.00  0.00     0.001 A 
ATOM     19  C   UNL d   1     -39.156  15.776  16.556  0.00  0.00     0.013 A 
ENDBRANCH  11  14
ENDBRANCH   1  11
TORSDOF 3
ENDMDL
