MODEL 1
REMARK VINA RESULT:      -2.8      0.000      0.000
REMARK  3 active torsions:
REMARK  status: ('A' for Active; 'I' for Inactive)
REMARK    1  A    between atoms: S_6  and  C_2 
REMARK    2  A    between atoms: C_8  and  S_6 
REMARK    3  A    between atoms: C_9  and  C_8 
ROOT
ATOM      1  S   UNL d   1      33.197  20.543 -22.079  0.00  0.00    -0.048 SA
ENDROOT
BRANCH   1   2
ATOM      2  C   UNL d   1      33.167  19.852 -22.541  0.00  0.00     0.203 A 
ATOM      3  N   UNL d   1      33.149  19.080 -22.252  0.00  0.00    -0.193 NA
ATOM      4  C   UNL d   1      33.121  18.567 -22.901  0.00  0.00     0.234 A 
ATOM      5  S   UNL d   1      33.121  19.022 -23.586  0.00  0.00     0.056 SA
ATOM      6  N   UNL d   1      33.097  17.747 -22.861  0.00  0.00    -0.118 N 
ATOM      7  N   UNL d   1      33.150  19.819 -23.368  0.00  0.00    -0.181 NA
ENDBRANCH   1   2
BRANCH   1   8
ATOM      8  C   UNL d   1      32.706  20.617 -21.419  0.00  0.00     0.038 C 
BRANCH   8   9
ATOM      9  C   UNL d   1      32.707  21.309 -20.977  0.00  0.00     0.007 A 
ATOM     10  C   UNL d   1      32.162  21.906 -21.163  0.00  0.00     0.001 A 
ATOM     11  C   UNL d   1      32.160  22.607 -20.719  0.00  0.00     0.000 A 
ATOM     12  C   UNL d   1      32.697  22.704 -20.101  0.00  0.00     0.000 A 
ATOM     13  C   UNL d   1      33.240  22.098 -19.923  0.00  0.00     0.000 A 
ATOM     14  C   UNL d   1      33.239  21.405 -20.365  0.00  0.00     0.001 A 
ENDBRANCH   8   9
ENDBRANCH   1   8
TORSDOF 3
ENDMDL
MODEL 2
REMARK VINA RESULT:      -2.8      2.927      3.910
REMARK  3 active torsions:
REMARK  status: ('A' for Active; 'I' for Inactive)
REMARK    1  A    between atoms: S_6  and  C_2 
REMARK    2  A    between atoms: C_8  and  S_6 
REMARK    3  A    between atoms: C_9  and  C_8 
ROOT
ATOM      1  S   UNL d   1      32.552  22.643 -19.547  0.00  0.00    -0.048 SA
ENDROOT
BRANCH   1   2
ATOM      2  C   UNL d   1      32.575  22.744 -20.373  0.00  0.00     0.203 A 
ATOM      3  N   UNL d   1      32.148  23.303 -20.802  0.00  0.00    -0.193 NA
ATOM      4  C   UNL d   1      32.338  23.208 -21.601  0.00  0.00     0.234 A 
ATOM      5  S   UNL d   1      32.880  22.592 -21.664  0.00  0.00     0.056 SA
ATOM      6  N   UNL d   1      32.035  23.655 -22.221  0.00  0.00    -0.118 N 
ATOM      7  N   UNL d   1      33.030  22.302 -20.905  0.00  0.00    -0.181 NA
ENDBRANCH   1   2
BRANCH   1   8
ATOM      8  C   UNL d   1      33.101  23.035 -19.071  0.00  0.00     0.038 C 
BRANCH   8   9
ATOM      9  C   UNL d   1      33.017  23.032 -18.254  0.00  0.00     0.007 A 
ATOM     10  C   UNL d   1      32.701  23.701 -17.879  0.00  0.00     0.001 A 
ATOM     11  C   UNL d   1      32.615  23.702 -17.054  0.00  0.00     0.000 A 
ATOM     12  C   UNL d   1      32.841  23.041 -16.616  0.00  0.00     0.000 A 
ATOM     13  C   UNL d   1      33.157  22.374 -17.002  0.00  0.00     0.000 A 
ATOM     14  C   UNL d   1      33.241  22.377 -17.820  0.00  0.00     0.001 A 
ENDBRANCH   8   9
ENDBRANCH   1   8
TORSDOF 3
ENDMDL
MODEL 3
REMARK VINA RESULT:      -2.6      4.156      5.550
REMARK  3 active torsions:
REMARK  status: ('A' for Active; 'I' for Inactive)
REMARK    1  A    between atoms: S_6  and  C_2 
REMARK    2  A    between atoms: C_8  and  S_6 
REMARK    3  A    between atoms: C_9  and  C_8 
ROOT
ATOM      1  S   UNL d   1      31.208  16.965 -23.916  0.00  0.00    -0.048 SA
ENDROOT
BRANCH   1   2
ATOM      2  C   UNL d   1      31.811  17.396 -24.296  0.00  0.00     0.203 A 
ATOM      3  N   UNL d   1      32.000  18.186 -24.155  0.00  0.00    -0.193 NA
ATOM      4  C   UNL d   1      32.630  18.388 -24.651  0.00  0.00     0.234 A 
ATOM      5  S   UNL d   1      32.828  17.725 -25.095  0.00  0.00     0.056 SA
ATOM      6  N   UNL d   1      32.992  19.125 -24.688  0.00  0.00    -0.118 N 
ATOM      7  N   UNL d   1      32.323  17.108 -24.879  0.00  0.00    -0.181 NA
ENDBRANCH   1   2
BRANCH   1   8
ATOM      8  C   UNL d   1      30.558  16.701 -24.352  0.00  0.00     0.038 C 
BRANCH   8   9
ATOM      9  C   UNL d   1      29.904  16.386 -23.968  0.00  0.00     0.007 A 
ATOM     10  C   UNL d   1      29.152  16.694 -24.135  0.00  0.00     0.001 A 
ATOM     11  C   UNL d   1      28.489  16.379 -23.749  0.00  0.00     0.000 A 
ATOM     12  C   UNL d   1      28.582  15.765 -23.206  0.00  0.00     0.000 A 
ATOM     13  C   UNL d   1      29.341  15.463 -23.046  0.00  0.00     0.000 A 
ATOM     14  C   UNL d   1      29.996  15.778 -23.430  0.00  0.00     0.001 A 
ENDBRANCH   8   9
ENDBRANCH   1   8
TORSDOF 3
ENDMDL
MODEL 4
REMARK VINA RESULT:      -2.5      4.378      5.376
REMARK  3 active torsions:
REMARK  status: ('A' for Active; 'I' for Inactive)
REMARK    1  A    between atoms: S_6  and  C_2 
REMARK    2  A    between atoms: C_8  and  S_6 
REMARK    3  A    between atoms: C_9  and  C_8 
ROOT
ATOM      1  S   UNL d   1      30.361  17.073 -24.398  0.00  0.00    -0.048 SA
ENDROOT
BRANCH   1   2
ATOM      2  C   UNL d   1      29.753  16.506 -24.431  0.00  0.00     0.203 A 
ATOM      3  N   UNL d   1      29.169  16.392 -23.860  0.00  0.00    -0.193 NA
ATOM      4  C   UNL d   1      28.682  15.774 -24.115  0.00  0.00     0.234 A 
ATOM      5  S   UNL d   1      28.964  15.509 -24.841  0.00  0.00     0.056 SA
ATOM      6  N   UNL d   1      28.030  15.481 -23.709  0.00  0.00    -0.118 N 
ATOM      7  N   UNL d   1      29.628  15.960 -25.040  0.00  0.00    -0.181 NA
ENDBRANCH   1   2
BRANCH   1   8
ATOM      8  C   UNL d   1      31.140  16.830 -24.269  0.00  0.00     0.038 C 
BRANCH   8   9
ATOM      9  C   UNL d   1      31.730  17.386 -24.137  0.00  0.00     0.007 A 
ATOM     10  C   UNL d   1      32.144  17.370 -23.418  0.00  0.00     0.001 A 
ATOM     11  C   UNL d   1      32.740  17.930 -23.280  0.00  0.00     0.000 A 
ATOM     12  C   UNL d   1      32.916  18.494 -23.855  0.00  0.00     0.000 A 
ATOM     13  C   UNL d   1      32.494  18.502 -24.574  0.00  0.00     0.000 A 
ATOM     14  C   UNL d   1      31.904  17.945 -24.706  0.00  0.00     0.001 A 
ENDBRANCH   8   9
ENDBRANCH   1   8
TORSDOF 3
ENDMDL
MODEL 5
REMARK VINA RESULT:      -2.5      1.544      3.849
REMARK  3 active torsions:
REMARK  status: ('A' for Active; 'I' for Inactive)
REMARK    1  A    between atoms: S_6  and  C_2 
REMARK    2  A    between atoms: C_8  and  S_6 
REMARK    3  A    between atoms: C_9  and  C_8 
ROOT
ATOM      1  S   UNL d   1      33.144  19.961 -21.958  0.00  0.00    -0.048 SA
ENDROOT
BRANCH   1   2
ATOM      2  C   UNL d   1      33.042  20.746 -21.699  0.00  0.00     0.203 A 
ATOM      3  N   UNL d   1      32.724  20.977 -20.974  0.00  0.00    -0.193 NA
ATOM      4  C   UNL d   1      32.725  21.803 -20.948  0.00  0.00     0.234 A 
ATOM      5  S   UNL d   1      33.043  22.080 -21.655  0.00  0.00     0.056 SA
ATOM      6  N   UNL d   1      32.455  22.263 -20.322  0.00  0.00    -0.118 N 
ATOM      7  N   UNL d   1      33.241  21.429 -22.123  0.00  0.00    -0.181 NA
ENDBRANCH   1   2
BRANCH   1   8
ATOM      8  C   UNL d   1      33.040  19.777 -22.756  0.00  0.00     0.038 C 
BRANCH   8   9
ATOM      9  C   UNL d   1      32.969  18.994 -22.994  0.00  0.00     0.007 A 
ATOM     10  C   UNL d   1      32.618  18.826 -23.726  0.00  0.00     0.001 A 
ATOM     11  C   UNL d   1      32.545  18.037 -23.971  0.00  0.00     0.000 A 
ATOM     12  C   UNL d   1      32.820  17.429 -23.485  0.00  0.00     0.000 A 
ATOM     13  C   UNL d   1      33.170  17.609 -22.751  0.00  0.00     0.000 A 
ATOM     14  C   UNL d   1      33.241  18.392 -22.513  0.00  0.00     0.001 A 
ENDBRANCH   8   9
ENDBRANCH   1   8
TORSDOF 3
ENDMDL
MODEL 6
REMARK VINA RESULT:      -2.4      3.838      4.939
REMARK  3 active torsions:
REMARK  status: ('A' for Active; 'I' for Inactive)
REMARK    1  A    between atoms: S_6  and  C_2 
REMARK    2  A    between atoms: C_8  and  S_6 
REMARK    3  A    between atoms: C_9  and  C_8 
ROOT
ATOM      1  S   UNL d   1      32.830  23.327 -19.224  0.00  0.00    -0.048 SA
ENDROOT
BRANCH   1   2
ATOM      2  C   UNL d   1      32.707  23.395 -18.404  0.00  0.00     0.203 A 
ATOM      3  N   UNL d   1      33.241  23.173 -17.817  0.00  0.00    -0.193 NA
ATOM      4  C   UNL d   1      32.895  23.337 -17.084  0.00  0.00     0.234 A 
ATOM      5  S   UNL d   1      32.151  23.660 -17.219  0.00  0.00     0.056 SA
ATOM      6  N   UNL d   1      33.240  23.200 -16.351  0.00  0.00    -0.118 N 
ATOM      7  N   UNL d   1      32.030  23.698 -18.036  0.00  0.00    -0.181 NA
ENDBRANCH   1   2
BRANCH   1   8
ATOM      8  C   UNL d   1      33.140  22.628 -19.535  0.00  0.00     0.038 C 
BRANCH   8   9
ATOM      9  C   UNL d   1      33.051  22.455 -20.333  0.00  0.00     0.007 A 
ATOM     10  C   UNL d   1      32.773  21.705 -20.553  0.00  0.00     0.001 A 
ATOM     11  C   UNL d   1      32.682  21.525 -21.358  0.00  0.00     0.000 A 
ATOM     12  C   UNL d   1      32.867  22.091 -21.929  0.00  0.00     0.000 A 
ATOM     13  C   UNL d   1      33.146  22.841 -21.697  0.00  0.00     0.000 A 
ATOM     14  C   UNL d   1      33.235  23.015 -20.899  0.00  0.00     0.001 A 
ENDBRANCH   8   9
ENDBRANCH   1   8
TORSDOF 3
ENDMDL
MODEL 7
REMARK VINA RESULT:      -2.3      1.445      2.208
REMARK  3 active torsions:
REMARK  status: ('A' for Active; 'I' for Inactive)
REMARK    1  A    between atoms: S_6  and  C_2 
REMARK    2  A    between atoms: C_8  and  S_6 
REMARK    3  A    between atoms: C_9  and  C_8 
ROOT
ATOM      1  S   UNL d   1      32.711  18.895 -23.159  0.00  0.00    -0.048 SA
ENDROOT
BRANCH   1   2
ATOM      2  C   UNL d   1      32.623  18.105 -23.406  0.00  0.00     0.203 A 
ATOM      3  N   UNL d   1      31.910  17.698 -23.475  0.00  0.00    -0.193 NA
ATOM      4  C   UNL d   1      32.079  16.932 -23.736  0.00  0.00     0.234 A 
ATOM      5  S   UNL d   1      32.894  16.868 -23.828  0.00  0.00     0.056 SA
ATOM      6  N   UNL d   1      31.525  16.342 -23.878  0.00  0.00    -0.118 N 
ATOM      7  N   UNL d   1      33.235  17.592 -23.624  0.00  0.00    -0.181 NA
ENDBRANCH   1   2
BRANCH   1   8
ATOM      8  C   UNL d   1      33.241  19.077 -22.552  0.00  0.00     0.038 C 
BRANCH   8   9
ATOM      9  C   UNL d   1      33.240  19.826 -22.213  0.00  0.00     0.007 A 
ATOM     10  C   UNL d   1      33.238  19.894 -21.387  0.00  0.00     0.001 A 
ATOM     11  C   UNL d   1      33.236  20.648 -21.040  0.00  0.00     0.000 A 
ATOM     12  C   UNL d   1      33.237  21.320 -21.519  0.00  0.00     0.000 A 
ATOM     13  C   UNL d   1      33.239  21.240 -22.348  0.00  0.00     0.000 A 
ATOM     14  C   UNL d   1      33.240  20.492 -22.687  0.00  0.00     0.001 A 
ENDBRANCH   8   9
ENDBRANCH   1   8
TORSDOF 3
ENDMDL
