MODEL 1
REMARK VINA RESULT:      37.9      0.000      0.000
REMARK  4 active torsions:
REMARK  status: ('A' for Active; 'I' for Inactive)
REMARK    1  A    between atoms: N_8  and  C_2 
REMARK    2  A    between atoms: C_9  and  C_3 
REMARK       I    between atoms: C_6  and  N_7 
REMARK    3  A    between atoms: C_11  and  C_6 
REMARK    4  A    between atoms: N_7  and  N_8 
ROOT
ATOM      1  N   UNL d   1      14.828  14.827  -1.197  0.00  0.00    -0.221 NA
ATOM      2  C   UNL d   1      14.978  14.548  -0.447  0.00  0.00     0.186 A 
ATOM      3  C   UNL d   1      15.084  15.594  -1.222  0.00  0.00     0.090 A 
ATOM      4  S   UNL d   1      15.323  15.139  -0.014  0.00  0.00    -0.047 SA
ATOM      5  C   UNL d   1      15.389  15.789  -0.496  0.00  0.00     0.058 A 
ENDROOT
BRANCH   2   6
ATOM      6  N   UNL d   1      14.805  13.776  -0.163  0.00  0.00    -0.275 N 
ATOM      7  H   UNL d   1      14.040  13.603   0.087  0.00  0.00     0.189 HD
BRANCH   6   8
ATOM      8  N   UNL d   1      15.400  13.204  -0.138  0.00  0.00    -0.264 N 
ATOM      9  C   UNL d   1      15.211  12.423  -0.337  0.00  0.00     0.271 C 
ATOM     10  O   UNL d   1      15.807  11.851  -0.312  0.00  0.00    -0.266 OA
ATOM     11  H   UNL d   1      16.156  13.423   0.081  0.00  0.00     0.190 HD
BRANCH   9  12
ATOM     12  C   UNL d   1      14.454  12.216  -0.554  0.00  0.00     0.057 A 
ATOM     13  C   UNL d   1      14.331  12.004  -1.346  0.00  0.00     0.005 A 
ATOM     14  C   UNL d   1      13.572  11.788  -1.598  0.00  0.00     0.000 A 
ATOM     15  C   UNL d   1      12.939  11.779  -1.075  0.00  0.00     0.000 A 
ATOM     16  C   UNL d   1      13.075  11.996  -0.270  0.00  0.00     0.000 A 
ATOM     17  C   UNL d   1      13.827  12.211  -0.019  0.00  0.00     0.005 A 
ENDBRANCH   9  12
ENDBRANCH   6   8
ENDBRANCH   2   6
BRANCH   3  18
ATOM     18  C   UNL d   1      15.040  16.090  -1.879  0.00  0.00     0.018 A 
ATOM     19  C   UNL d   1      14.805  15.780  -2.607  0.00  0.00     0.002 A 
ATOM     20  C   UNL d   1      14.759  16.270  -3.267  0.00  0.00     0.000 A 
ATOM     21  C   UNL d   1      14.950  17.076  -3.195  0.00  0.00     0.000 A 
ATOM     22  C   UNL d   1      15.185  17.385  -2.467  0.00  0.00     0.000 A 
ATOM     23  C   UNL d   1      14.907  17.576  -3.850  0.00  0.00     0.000 C 
ATOM     24  C   UNL d   1      15.231  16.889  -1.804  0.00  0.00     0.002 A 
ENDBRANCH   3  18
TORSDOF 4
ENDMDL
MODEL 2
REMARK VINA RESULT:      39.9      1.074      1.616
REMARK  4 active torsions:
REMARK  status: ('A' for Active; 'I' for Inactive)
REMARK    1  A    between atoms: N_8  and  C_2 
REMARK    2  A    between atoms: C_9  and  C_3 
REMARK       I    between atoms: C_6  and  N_7 
REMARK    3  A    between atoms: C_11  and  C_6 
REMARK    4  A    between atoms: N_7  and  N_8 
ROOT
ATOM      1  N   UNL d   1      14.888  14.463  -1.090  0.00  0.00    -0.221 NA
ATOM      2  C   UNL d   1      15.055  13.789  -0.664  0.00  0.00     0.186 A 
ATOM      3  C   UNL d   1      15.291  15.072  -0.741  0.00  0.00     0.090 A 
ATOM      4  S   UNL d   1      15.557  13.982  -0.059  0.00  0.00    -0.047 SA
ATOM      5  C   UNL d   1      15.704  14.779  -0.107  0.00  0.00     0.058 A 
ENDROOT
BRANCH   2   6
ATOM      6  N   UNL d   1      14.758  13.019  -0.823  0.00  0.00    -0.275 N 
ATOM      7  H   UNL d   1      15.000  12.629  -1.507  0.00  0.00     0.189 HD
BRANCH   6   8
ATOM      8  N   UNL d   1      14.232  12.664  -0.295  0.00  0.00    -0.264 N 
ATOM      9  C   UNL d   1      13.628  12.185  -0.596  0.00  0.00     0.271 C 
ATOM     10  O   UNL d   1      13.101  11.831  -0.066  0.00  0.00    -0.266 OA
ATOM     11  H   UNL d   1      14.321  12.795   0.507  0.00  0.00     0.190 HD
BRANCH   9  12
ATOM     12  C   UNL d   1      13.548  12.062  -1.396  0.00  0.00     0.057 A 
ATOM     13  C   UNL d   1      14.239  11.910  -1.828  0.00  0.00     0.005 A 
ATOM     14  C   UNL d   1      14.190  11.781  -2.645  0.00  0.00     0.000 A 
ATOM     15  C   UNL d   1      13.467  11.799  -3.033  0.00  0.00     0.000 A 
ATOM     16  C   UNL d   1      12.769  11.953  -2.585  0.00  0.00     0.000 A 
ATOM     17  C   UNL d   1      12.816  12.083  -1.775  0.00  0.00     0.005 A 
ENDBRANCH   9  12
ENDBRANCH   6   8
ENDBRANCH   2   6
BRANCH   3  18
ATOM     18  C   UNL d   1      15.281  15.856  -0.993  0.00  0.00     0.018 A 
ATOM     19  C   UNL d   1      15.594  16.444  -0.504  0.00  0.00     0.002 A 
ATOM     20  C   UNL d   1      15.587  17.229  -0.750  0.00  0.00     0.000 A 
ATOM     21  C   UNL d   1      15.264  17.426  -1.490  0.00  0.00     0.000 A 
ATOM     22  C   UNL d   1      14.951  16.839  -1.978  0.00  0.00     0.000 A 
ATOM     23  C   UNL d   1      15.252  18.211  -1.746  0.00  0.00     0.000 C 
ATOM     24  C   UNL d   1      14.960  16.048  -1.727  0.00  0.00     0.002 A 
ENDBRANCH   3  18
TORSDOF 4
ENDMDL
