MODEL 1
REMARK VINA RESULT:      12.5      0.000      0.000
REMARK  6 active torsions:
REMARK  status: ('A' for Active; 'I' for Inactive)
REMARK    1  A    between atoms: N_5  and  S_1 
REMARK    2  A    between atoms: C_6  and  S_1 
REMARK    3  A    between atoms: C_2  and  C_10 
REMARK       I    between atoms: N_3  and  C_2 
REMARK    4  A    between atoms: C_11  and  N_4 
REMARK    5  A    between atoms: C_17  and  N_5 
REMARK    6  A    between atoms: O_29  and  C_23 
ROOT
ATOM      1  C   UNL d   1     -41.472-121.608 -52.593  0.00  0.00     0.057 A 
ATOM      2  C   UNL d   1     -41.608-122.408 -54.029  0.00  0.00     0.094 A 
ATOM      3  C   UNL d   1     -41.177-122.379 -52.667  0.00  0.00     0.006 A 
ATOM      4  C   UNL d   1     -41.832-121.245 -53.241  0.00  0.00     0.006 A 
ATOM      5  C   UNL d   1     -41.249-122.773 -53.388  0.00  0.00     0.020 A 
ATOM      6  C   UNL d   1     -41.900-121.639 -53.950  0.00  0.00     0.020 A 
ENDROOT
BRANCH   1   7
ATOM      7  C   UNL d   1     -41.404-121.202 -51.870  0.00  0.00     0.265 C 
ATOM      8  N   UNL d   1     -41.609-121.577 -51.158  0.00  0.00    -0.269 N 
ATOM      9  C   UNL d   1     -41.542-121.177 -50.452  0.00  0.00     0.102 A 
ATOM     10  C   UNL d   1     -41.880-122.355 -51.170  0.00  0.00     0.102 A 
ATOM     11  C   UNL d   1     -41.745-121.551 -49.745  0.00  0.00     0.100 A 
ATOM     12  N   UNL d   1     -42.014-122.326 -49.761  0.00  0.00    -0.301 N 
ATOM     13  C   UNL d   1     -42.082-122.727 -50.469  0.00  0.00     0.100 A 
ATOM     14  O   UNL d   1     -41.133-120.425 -51.863  0.00  0.00    -0.267 OA
BRANCH  12  15
ATOM     15  C   UNL d   1     -42.215-122.696 -49.069  0.00  0.00     0.064 A 
ATOM     16  C   UNL d   1     -41.824-122.497 -48.370  0.00  0.00     0.020 A 
ATOM     17  C   UNL d   1     -42.025-122.869 -47.669  0.00  0.00     0.026 A 
ATOM     18  C   UNL d   1     -42.618-123.444 -47.657  0.00  0.00     0.094 A 
ATOM     19  C   UNL d   1     -43.005-123.637 -48.365  0.00  0.00     0.026 A 
ATOM     20  C   UNL d   1     -42.802-123.265 -49.059  0.00  0.00     0.020 A 
BRANCH  18  21
ATOM     21  O   UNL d   1     -42.819-123.817 -46.955  0.00  0.00    -0.328 OA
ATOM     22  C   UNL d   1     -43.592-123.769 -46.676  0.00  0.00     0.181 C 
ENDBRANCH  18  21
ENDBRANCH  12  15
ENDBRANCH   1   7
BRANCH   2  23
ATOM     23  N   UNL d   1     -41.672-122.808 -54.736  0.00  0.00    -0.158 NA
BRANCH  23  24
ATOM     24  S   UNL d   1     -41.969-122.432 -55.409  0.00  0.00     0.285 S 
ATOM     25  O   UNL d   1     -41.204-122.314 -55.677  0.00  0.00    -0.198 OA
ATOM     26  O   UNL d   1     -42.732-122.556 -55.128  0.00  0.00    -0.198 OA
BRANCH  24  27
ATOM     27  C   UNL d   1     -42.272-122.060 -56.072  0.00  0.00     0.107 A 
ATOM     28  C   UNL d   1     -41.829-121.499 -56.471  0.00  0.00     0.043 A 
ATOM     29  C   UNL d   1     -42.137-121.124 -57.143  0.00  0.00     0.141 A 
ATOM     30  F   UNL d   1     -41.690-120.554 -57.552  0.00  0.00    -0.204 F 
ATOM     31  C   UNL d   1     -42.895-121.318 -57.409  0.00  0.00     0.030 A 
ATOM     32  C   UNL d   1     -43.345-121.887 -57.004  0.00  0.00     0.003 A 
ATOM     33  C   UNL d   1     -43.030-122.257 -56.335  0.00  0.00     0.013 A 
ENDBRANCH  24  27
ENDBRANCH  23  24
ENDBRANCH   2  23
TORSDOF 6
ENDMDL
