MODEL 1
REMARK VINA RESULT:      16.8      0.000      0.000
REMARK  2 active torsions:
REMARK  status: ('A' for Active; 'I' for Inactive)
REMARK    1  A    between atoms: C_13  and  N_8 
REMARK    2  A    between atoms: C_14  and  C_13 
ROOT
ATOM      1  C   UNL d   1      59.374  49.706  50.698  0.00  0.00     0.093 A 
ATOM      2  N   UNL d   1      60.763  49.706  51.030  0.00  0.00    -0.179 NA
ATOM      3  C   UNL d   1      60.163  49.707  50.457  0.00  0.00     0.284 A 
ATOM      4  C   UNL d   1      59.187  49.706  51.503  0.00  0.00     0.091 A 
ATOM      5  C   UNL d   1      60.576  49.706  51.834  0.00  0.00     0.223 A 
ATOM      6  N   UNL d   1      59.789  49.706  52.067  0.00  0.00    -0.217 NA
ATOM      7  C   UNL d   1      58.772  49.707  50.134  0.00  0.00     0.087 A 
ATOM      8  N   UNL d   1      57.992  49.707  50.377  0.00  0.00    -0.302 N 
ATOM      9  C   UNL d   1      58.398  49.706  51.744  0.00  0.00     0.038 A 
ATOM     10  S   UNL d   1      61.177  49.706  52.403  0.00  0.00    -0.037 SA
ATOM     11  O   UNL d   1      60.359  49.707  49.654  0.00  0.00    -0.265 OA
ATOM     12  C   UNL d   1      57.805  49.706  51.182  0.00  0.00     0.082 A 
ENDROOT
BRANCH   8  13
ATOM     13  C   UNL d   1      57.381  49.707  49.811  0.00  0.00     0.080 C 
BRANCH  13  14
ATOM     14  C   UNL d   1      56.614  49.492  50.035  0.00  0.00     0.019 C 
ATOM     15  C   UNL d   1      56.054  49.328  49.453  0.00  0.00     0.002 C 
ENDBRANCH  13  14
ENDBRANCH   8  13
TORSDOF 2
ENDMDL
