MODEL 1
REMARK VINA RESULT:      51.1      0.000      0.000
REMARK  1 active torsions:
REMARK  status: ('A' for Active; 'I' for Inactive)
REMARK    1  A    between atoms: C_7  and  C_1 
ROOT
ATOM      1  C   UNL d   1     -54.912-101.072 -43.155  0.00  0.00     0.062 A 
ATOM      2  C   UNL d   1     -54.841-100.787 -42.397  0.00  0.00     0.199 A 
ATOM      3  C   UNL d   1     -54.957-101.879 -43.307  0.00  0.00     0.103 A 
ATOM      4  C   UNL d   1     -54.813-101.318 -41.744  0.00  0.00     0.062 A 
ATOM      5  C   UNL d   1     -54.856-102.118 -41.870  0.00  0.00     0.106 A 
ATOM      6  O   UNL d   1     -54.929-102.410 -42.655  0.00  0.00    -0.307 OA
ATOM      7  C   UNL d   1     -54.828-102.639 -41.231  0.00  0.00     0.067 A 
ATOM      8  C   UNL d   1     -54.740-101.005 -40.968  0.00  0.00     0.009 A 
ATOM      9  O   UNL d   1     -54.797 -99.936 -42.281  0.00  0.00    -0.286 OA
ATOM     10  C   UNL d   1     -54.757-102.351 -40.476  0.00  0.00     0.198 A 
ATOM     11  C   UNL d   1     -54.711-101.535 -40.316  0.00  0.00     0.042 A 
ATOM     12  C   UNL d   1     -55.030-102.174 -44.093  0.00  0.00     0.027 C 
ATOM     13  O   UNL d   1     -54.729-102.880 -39.827  0.00  0.00    -0.286 OA
ENDROOT
BRANCH   1  14
ATOM     14  C   UNL d   1     -54.938-100.541 -43.776  0.00  0.00     0.005 A 
ATOM     15  C   UNL d   1     -54.841-100.796 -44.555  0.00  0.00     0.000 A 
ATOM     16  C   UNL d   1     -54.713-101.609 -44.718  0.00  0.00     0.000 C 
ATOM     17  C   UNL d   1     -54.868-100.256 -45.179  0.00  0.00     0.000 A 
ATOM     18  C   UNL d   1     -54.991 -99.474 -45.017  0.00  0.00     0.000 A 
ATOM     19  C   UNL d   1     -55.090 -99.196 -44.264  0.00  0.00     0.000 A 
ATOM     20  C   UNL d   1     -55.063 -99.739 -43.629  0.00  0.00     0.000 A 
ENDBRANCH   1  14
TORSDOF 1
ENDMDL
MODEL 2
REMARK VINA RESULT:      51.6      2.749      4.022
REMARK  1 active torsions:
REMARK  status: ('A' for Active; 'I' for Inactive)
REMARK    1  A    between atoms: C_7  and  C_1 
ROOT
ATOM      1  C   UNL d   1     -56.612 -99.220 -44.215  0.00  0.00     0.062 A 
ATOM      2  C   UNL d   1     -57.356 -99.097 -44.521  0.00  0.00     0.199 A 
ATOM      3  C   UNL d   1     -56.485 -99.263 -43.404  0.00  0.00     0.103 A 
ATOM      4  C   UNL d   1     -58.017 -99.010 -44.007  0.00  0.00     0.062 A 
ATOM      5  C   UNL d   1     -57.915 -99.050 -43.204  0.00  0.00     0.106 A 
ATOM      6  O   UNL d   1     -57.145 -99.177 -42.891  0.00  0.00    -0.307 OA
ATOM      7  C   UNL d   1     -58.563 -98.965 -42.700  0.00  0.00     0.067 A 
ATOM      8  C   UNL d   1     -58.778 -98.884 -44.342  0.00  0.00     0.009 A 
ATOM      9  O   UNL d   1     -57.447 -99.058 -45.376  0.00  0.00    -0.286 OA
ATOM     10  C   UNL d   1     -59.303 -98.843 -43.009  0.00  0.00     0.198 A 
ATOM     11  C   UNL d   1     -59.438 -98.798 -43.829  0.00  0.00     0.042 A 
ATOM     12  C   UNL d   1     -55.714 -99.391 -43.088  0.00  0.00     0.027 C 
ATOM     13  O   UNL d   1     -59.961 -98.757 -42.498  0.00  0.00    -0.286 OA
ENDROOT
BRANCH   1  14
ATOM     14  C   UNL d   1     -55.982 -99.301 -44.729  0.00  0.00     0.005 A 
ATOM     15  C   UNL d   1     -55.448 -99.926 -44.649  0.00  0.00     0.000 A 
ATOM     16  C   UNL d   1     -55.549-100.487 -44.033  0.00  0.00     0.000 C 
ATOM     17  C   UNL d   1     -54.814-100.004 -45.170  0.00  0.00     0.000 A 
ATOM     18  C   UNL d   1     -54.722 -99.461 -45.762  0.00  0.00     0.000 A 
ATOM     19  C   UNL d   1     -55.228 -98.839 -45.865  0.00  0.00     0.000 A 
ATOM     20  C   UNL d   1     -55.873 -98.756 -45.339  0.00  0.00     0.000 A 
ENDBRANCH   1  14
TORSDOF 1
ENDMDL
MODEL 3
REMARK VINA RESULT:      52.1      2.945      4.628
REMARK  1 active torsions:
REMARK  status: ('A' for Active; 'I' for Inactive)
REMARK    1  A    between atoms: C_7  and  C_1 
ROOT
ATOM      1  C   UNL d   1     -56.147-102.751 -39.135  0.00  0.00     0.062 A 
ATOM      2  C   UNL d   1     -55.456-102.725 -38.707  0.00  0.00     0.199 A 
ATOM      3  C   UNL d   1     -56.879-102.813 -38.764  0.00  0.00     0.103 A 
ATOM      4  C   UNL d   1     -55.476-102.762 -37.866  0.00  0.00     0.062 A 
ATOM      5  C   UNL d   1     -56.186-102.824 -37.479  0.00  0.00     0.106 A 
ATOM      6  O   UNL d   1     -56.898-102.850 -37.924  0.00  0.00    -0.307 OA
ATOM      7  C   UNL d   1     -56.205-102.860 -36.655  0.00  0.00     0.067 A 
ATOM      8  C   UNL d   1     -54.751-102.734 -37.441  0.00  0.00     0.009 A 
ATOM      9  O   UNL d   1     -54.712-102.660 -39.133  0.00  0.00    -0.286 OA
ATOM     10  C   UNL d   1     -55.514-102.835 -36.231  0.00  0.00     0.198 A 
ATOM     11  C   UNL d   1     -54.771-102.772 -36.601  0.00  0.00     0.042 A 
ATOM     12  C   UNL d   1     -57.594-102.839 -39.209  0.00  0.00     0.027 C 
ATOM     13  O   UNL d   1     -55.534-102.871 -35.395  0.00  0.00    -0.286 OA
ENDROOT
BRANCH   1  14
ATOM     14  C   UNL d   1     -56.108-102.713 -39.950  0.00  0.00     0.005 A 
ATOM     15  C   UNL d   1     -55.404-102.514 -40.332  0.00  0.00     0.000 A 
ATOM     16  C   UNL d   1     -54.715-102.345 -39.881  0.00  0.00     0.000 C 
ATOM     17  C   UNL d   1     -55.368-102.477 -41.155  0.00  0.00     0.000 A 
ATOM     18  C   UNL d   1     -56.034-102.640 -41.584  0.00  0.00     0.000 A 
ATOM     19  C   UNL d   1     -56.737-102.838 -41.239  0.00  0.00     0.000 A 
ATOM     20  C   UNL d   1     -56.777-102.876 -40.404  0.00  0.00     0.000 A 
ENDBRANCH   1  14
TORSDOF 1
ENDMDL
