MODEL 1
REMARK VINA RESULT:     102.9      0.000      0.000
REMARK  6 active torsions:
REMARK  status: ('A' for Active; 'I' for Inactive)
REMARK    1  A    between atoms: C_6  and  C_1 
REMARK    2  A    between atoms: C_8  and  C_2 
REMARK    3  A    between atoms: C_9  and  C_4 
REMARK    4  A    between atoms: C_12  and  C_8 
REMARK    5  A    between atoms: O_27  and  C_11 
REMARK    6  A    between atoms: C_30  and  O_27 
ROOT
ATOM      1  C   UNL d   1     -47.597  29.640  36.259  0.00  0.00     0.306 A 
ATOM      2  C   UNL d   1     -47.560  30.201  35.654  0.00  0.00     0.114 A 
ATOM      3  N   UNL d   1     -47.206  29.796  36.977  0.00  0.00    -0.152 NA
ATOM      4  C   UNL d   1     -47.143  30.904  35.763  0.00  0.00     0.094 A 
ATOM      5  C   UNL d   1     -46.790  30.499  37.081  0.00  0.00     0.371 A 
ATOM      6  N   UNL d   1     -46.759  31.059  36.466  0.00  0.00    -0.191 NA
ATOM      7  O   UNL d   1     -46.399  30.657  37.798  0.00  0.00    -0.242 OA
ATOM      8  O   UNL d   1     -47.699  29.024  36.777  0.00  0.00    -0.266 OA
ENDROOT
BRANCH   4   9
ATOM      9  C   UNL d   1     -47.112  31.464  35.148  0.00  0.00     0.020 A 
ATOM     10  C   UNL d   1     -47.646  32.087  35.128  0.00  0.00     0.029 A 
ATOM     11  C   UNL d   1     -47.615  32.647  34.514  0.00  0.00     0.139 A 
ATOM     12  C   UNL d   1     -47.042  32.579  33.915  0.00  0.00     0.218 A 
ATOM     13  C   UNL d   1     -46.504  31.947  33.940  0.00  0.00     0.044 A 
ATOM     14  O   UNL d   1     -47.012  33.126  33.315  0.00  0.00    -0.284 OA
ATOM     15  C   UNL d   1     -46.535  31.388  34.553  0.00  0.00     0.005 A 
BRANCH  11  16
ATOM     16  O   UNL d   1     -48.150  33.266  34.499  0.00  0.00    -0.302 OA
BRANCH  16  17
ATOM     17  C   UNL d   1     -48.554  33.433  33.823  0.00  0.00     0.123 C 
ATOM     18  C   UNL d   1     -49.347  33.633  33.858  0.00  0.00     0.029 C 
ENDBRANCH  16  17
ENDBRANCH  11  16
ENDBRANCH   4   9
BRANCH   2  19
ATOM     19  C   UNL d   1     -47.952  30.044  34.936  0.00  0.00     0.201 C 
ATOM     20  O   UNL d   1     -47.350  29.874  34.547  0.00  0.00    -0.286 OA
BRANCH  19  21
ATOM     21  C   UNL d   1     -48.473  29.981  34.514  0.00  0.00     0.039 A 
ATOM     22  C   UNL d   1     -48.568  29.561  33.813  0.00  0.00     0.004 A 
ATOM     23  C   UNL d   1     -49.283  29.595  33.417  0.00  0.00     0.011 A 
ATOM     24  C   UNL d   1     -49.909  30.044  33.712  0.00  0.00     0.058 A 
ATOM     25  C   UNL d   1     -49.810  30.468  34.421  0.00  0.00     0.011 A 
ATOM     26 CL   UNL d   1     -50.617  30.071  33.308  0.00  0.00    -0.082 Cl
ATOM     27  C   UNL d   1     -49.095  30.435  34.818  0.00  0.00     0.004 A 
ENDBRANCH  19  21
ENDBRANCH   2  19
BRANCH   1  28
ATOM     28  C   UNL d   1     -48.021  29.004  36.052  0.00  0.00     0.470 C 
ATOM     29  F   UNL d   1     -47.920  28.490  35.423  0.00  0.00    -0.162 F 
ATOM     30  F   UNL d   1     -48.411  28.430  35.872  0.00  0.00    -0.162 F 
ATOM     31  F   UNL d   1     -48.688  28.686  36.423  0.00  0.00    -0.162 F 
ENDBRANCH   1  28
TORSDOF 6
ENDMDL
MODEL 2
REMARK VINA RESULT:     104.0      2.288      4.100
REMARK  6 active torsions:
REMARK  status: ('A' for Active; 'I' for Inactive)
REMARK    1  A    between atoms: C_6  and  C_1 
REMARK    2  A    between atoms: C_8  and  C_2 
REMARK    3  A    between atoms: C_9  and  C_4 
REMARK    4  A    between atoms: C_12  and  C_8 
REMARK    5  A    between atoms: O_27  and  C_11 
REMARK    6  A    between atoms: C_30  and  O_27 
ROOT
ATOM      1  C   UNL d   1     -47.786  31.873  34.800  0.00  0.00     0.306 A 
ATOM      2  C   UNL d   1     -47.892  31.057  34.866  0.00  0.00     0.114 A 
ATOM      3  N   UNL d   1     -48.270  32.301  34.276  0.00  0.00    -0.152 NA
ATOM      4  C   UNL d   1     -48.469  30.675  34.418  0.00  0.00     0.094 A 
ATOM      5  C   UNL d   1     -48.845  31.916  33.831  0.00  0.00     0.371 A 
ATOM      6  N   UNL d   1     -48.946  31.093  33.903  0.00  0.00    -0.191 NA
ATOM      7  O   UNL d   1     -49.330  32.342  33.306  0.00  0.00    -0.242 OA
ATOM      8  O   UNL d   1     -47.594  32.662  34.817  0.00  0.00    -0.266 OA
ENDROOT
BRANCH   4   9
ATOM      9  C   UNL d   1     -48.570  29.852  34.491  0.00  0.00     0.020 A 
ATOM     10  C   UNL d   1     -49.263  29.495  34.235  0.00  0.00     0.029 A 
ATOM     11  C   UNL d   1     -49.364  28.673  34.307  0.00  0.00     0.139 A 
ATOM     12  C   UNL d   1     -48.762  28.206  34.640  0.00  0.00     0.218 A 
ATOM     13  C   UNL d   1     -48.062  28.572  34.897  0.00  0.00     0.044 A 
ATOM     14  O   UNL d   1     -48.860  27.402  34.711  0.00  0.00    -0.284 OA
ATOM     15  C   UNL d   1     -47.962  29.393  34.825  0.00  0.00     0.005 A 
BRANCH  11  16
ATOM     16  O   UNL d   1     -50.058  28.323  34.050  0.00  0.00    -0.302 OA
BRANCH  16  17
ATOM     17  C   UNL d   1     -50.053  27.850  33.398  0.00  0.00     0.123 C 
ATOM     18  C   UNL d   1     -50.619  27.266  33.312  0.00  0.00     0.029 C 
ENDBRANCH  16  17
ENDBRANCH  11  16
ENDBRANCH   4   9
BRANCH   2  19
ATOM     19  C   UNL d   1     -47.407  30.630  35.392  0.00  0.00     0.201 C 
ATOM     20  O   UNL d   1     -46.962  30.342  34.880  0.00  0.00    -0.286 OA
BRANCH  19  21
ATOM     21  C   UNL d   1     -47.187  30.399  35.985  0.00  0.00     0.039 A 
ATOM     22  C   UNL d   1     -47.544  30.352  36.724  0.00  0.00     0.004 A 
ATOM     23  C   UNL d   1     -47.126  30.037  37.354  0.00  0.00     0.011 A 
ATOM     24  C   UNL d   1     -46.354  29.766  37.255  0.00  0.00     0.058 A 
ATOM     25  C   UNL d   1     -45.996  29.814  36.505  0.00  0.00     0.011 A 
ATOM     26 CL   UNL d   1     -45.947  29.453  37.889  0.00  0.00    -0.082 Cl
ATOM     27  C   UNL d   1     -46.413  30.129  35.876  0.00  0.00     0.004 A 
ENDBRANCH  19  21
ENDBRANCH   2  19
BRANCH   1  28
ATOM     28  C   UNL d   1     -47.208  32.139  35.272  0.00  0.00     0.470 C 
ATOM     29  F   UNL d   1     -47.236  32.362  36.060  0.00  0.00    -0.162 F 
ATOM     30  F   UNL d   1     -46.678  32.378  35.692  0.00  0.00    -0.162 F 
ATOM     31  F   UNL d   1     -46.410  32.262  35.092  0.00  0.00    -0.162 F 
ENDBRANCH   1  28
TORSDOF 6
ENDMDL
MODEL 3
REMARK VINA RESULT:     104.2      1.861      3.396
REMARK  6 active torsions:
REMARK  status: ('A' for Active; 'I' for Inactive)
REMARK    1  A    between atoms: C_6  and  C_1 
REMARK    2  A    between atoms: C_8  and  C_2 
REMARK    3  A    between atoms: C_9  and  C_4 
REMARK    4  A    between atoms: C_12  and  C_8 
REMARK    5  A    between atoms: O_27  and  C_11 
REMARK    6  A    between atoms: C_30  and  O_27 
ROOT
ATOM      1  C   UNL d   1     -47.041  30.635  36.085  0.00  0.00     0.306 A 
ATOM      2  C   UNL d   1     -47.579  30.388  35.510  0.00  0.00     0.114 A 
ATOM      3  N   UNL d   1     -46.967  30.191  36.785  0.00  0.00    -0.152 NA
ATOM      4  C   UNL d   1     -48.035  29.712  35.630  0.00  0.00     0.094 A 
ATOM      5  C   UNL d   1     -47.425  29.517  36.901  0.00  0.00     0.371 A 
ATOM      6  N   UNL d   1     -47.965  29.274  36.316  0.00  0.00    -0.191 NA
ATOM      7  O   UNL d   1     -47.352  29.072  37.601  0.00  0.00    -0.242 OA
ATOM      8  O   UNL d   1     -46.486  30.968  36.575  0.00  0.00    -0.266 OA
ENDROOT
BRANCH   4   9
ATOM      9  C   UNL d   1     -48.575  29.469  35.046  0.00  0.00     0.020 A 
ATOM     10  C   UNL d   1     -48.509  28.727  34.702  0.00  0.00     0.029 A 
ATOM     11  C   UNL d   1     -49.049  28.484  34.118  0.00  0.00     0.139 A 
ATOM     12  C   UNL d   1     -49.661  28.993  33.877  0.00  0.00     0.218 A 
ATOM     13  C   UNL d   1     -49.724  29.744  34.227  0.00  0.00     0.044 A 
ATOM     14  O   UNL d   1     -50.188  28.757  33.306  0.00  0.00    -0.284 OA
ATOM     15  C   UNL d   1     -49.184  29.986  34.811  0.00  0.00     0.005 A 
BRANCH  11  16
ATOM     16  O   UNL d   1     -48.978  27.743  33.779  0.00  0.00    -0.302 OA
BRANCH  16  17
ATOM     17  C   UNL d   1     -49.550  27.188  33.899  0.00  0.00     0.123 C 
ATOM     18  C   UNL d   1     -49.660  26.589  33.352  0.00  0.00     0.029 C 
ENDBRANCH  16  17
ENDBRANCH  11  16
ENDBRANCH   4   9
BRANCH   2  19
ATOM     19  C   UNL d   1     -47.652  30.833  34.809  0.00  0.00     0.201 C 
ATOM     20  O   UNL d   1     -47.377  30.322  34.356  0.00  0.00    -0.286 OA
BRANCH  19  21
ATOM     21  C   UNL d   1     -47.807  31.363  34.425  0.00  0.00     0.039 A 
ATOM     22  C   UNL d   1     -47.688  31.518  33.626  0.00  0.00     0.004 A 
ATOM     23  C   UNL d   1     -47.944  32.229  33.310  0.00  0.00     0.011 A 
ATOM     24  C   UNL d   1     -48.319  32.790  33.784  0.00  0.00     0.058 A 
ATOM     25  C   UNL d   1     -48.439  32.630  34.592  0.00  0.00     0.011 A 
ATOM     26 CL   UNL d   1     -48.570  33.495  33.459  0.00  0.00    -0.082 Cl
ATOM     27  C   UNL d   1     -48.183  31.919  34.907  0.00  0.00     0.004 A 
ENDBRANCH  19  21
ENDBRANCH   2  19
BRANCH   1  28
ATOM     28  C   UNL d   1     -46.655  31.293  35.871  0.00  0.00     0.470 C 
ATOM     29  F   UNL d   1     -46.759  32.065  36.122  0.00  0.00    -0.162 F 
ATOM     30  F   UNL d   1     -46.301  31.883  35.671  0.00  0.00    -0.162 F 
ATOM     31  F   UNL d   1     -46.037  31.375  35.327  0.00  0.00    -0.162 F 
ENDBRANCH   1  28
TORSDOF 6
ENDMDL
MODEL 4
REMARK VINA RESULT:     105.9      4.625      6.399
REMARK  6 active torsions:
REMARK  status: ('A' for Active; 'I' for Inactive)
REMARK    1  A    between atoms: C_6  and  C_1 
REMARK    2  A    between atoms: C_8  and  C_2 
REMARK    3  A    between atoms: C_9  and  C_4 
REMARK    4  A    between atoms: C_12  and  C_8 
REMARK    5  A    between atoms: O_27  and  C_11 
REMARK    6  A    between atoms: C_30  and  O_27 
ROOT
ATOM      1  C   UNL d   1     -49.806  26.963  34.726  0.00  0.00     0.306 A 
ATOM      2  C   UNL d   1     -50.459  26.692  35.153  0.00  0.00     0.114 A 
ATOM      3  N   UNL d   1     -49.253  27.457  35.105  0.00  0.00    -0.152 NA
ATOM      4  C   UNL d   1     -50.558  26.909  35.942  0.00  0.00     0.094 A 
ATOM      5  C   UNL d   1     -49.357  27.670  35.893  0.00  0.00     0.371 A 
ATOM      6  N   UNL d   1     -50.018  27.393  36.316  0.00  0.00    -0.191 NA
ATOM      7  O   UNL d   1     -48.805  28.164  36.274  0.00  0.00    -0.242 OA
ATOM      8  O   UNL d   1     -49.210  27.167  34.214  0.00  0.00    -0.266 OA
ENDROOT
BRANCH   4   9
ATOM      9  C   UNL d   1     -51.219  26.631  36.365  0.00  0.00     0.020 A 
ATOM     10  C   UNL d   1     -51.120  26.125  37.003  0.00  0.00     0.029 A 
ATOM     11  C   UNL d   1     -51.779  25.847  37.426  0.00  0.00     0.139 A 
ATOM     12  C   UNL d   1     -52.546  26.081  37.205  0.00  0.00     0.218 A 
ATOM     13  C   UNL d   1     -52.642  26.594  36.559  0.00  0.00     0.044 A 
ATOM     14  O   UNL d   1     -53.191  25.810  37.618  0.00  0.00    -0.284 OA
ATOM     15  C   UNL d   1     -51.983  26.871  36.136  0.00  0.00     0.005 A 
BRANCH  11  16
ATOM     16  O   UNL d   1     -51.674  25.342  38.061  0.00  0.00    -0.302 OA
BRANCH  16  17
ATOM     17  C   UNL d   1     -52.245  25.279  38.625  0.00  0.00     0.123 C 
ATOM     18  C   UNL d   1     -52.207  24.680  39.182  0.00  0.00     0.029 C 
ENDBRANCH  16  17
ENDBRANCH  11  16
ENDBRANCH   4   9
BRANCH   2  19
ATOM     19  C   UNL d   1     -51.011  26.198  34.772  0.00  0.00     0.201 C 
ATOM     20  O   UNL d   1     -51.541  26.704  34.701  0.00  0.00    -0.286 OA
BRANCH  19  21
ATOM     21  C   UNL d   1     -51.253  25.632  34.500  0.00  0.00     0.039 A 
ATOM     22  C   UNL d   1     -50.998  24.851  34.537  0.00  0.00     0.004 A 
ATOM     23  C   UNL d   1     -51.417  24.271  34.139  0.00  0.00     0.011 A 
ATOM     24  C   UNL d   1     -52.090  24.461  33.701  0.00  0.00     0.058 A 
ATOM     25  C   UNL d   1     -52.345  25.253  33.666  0.00  0.00     0.011 A 
ATOM     26 CL   UNL d   1     -52.499  23.876  33.308  0.00  0.00    -0.082 Cl
ATOM     27  C   UNL d   1     -51.926  25.832  34.064  0.00  0.00     0.004 A 
ENDBRANCH  19  21
ENDBRANCH   2  19
BRANCH   1  28
ATOM     28  C   UNL d   1     -49.805  26.698  33.980  0.00  0.00     0.470 C 
ATOM     29  F   UNL d   1     -50.267  26.926  33.342  0.00  0.00    -0.162 F 
ATOM     30  F   UNL d   1     -49.798  26.451  33.306  0.00  0.00    -0.162 F 
ATOM     31  F   UNL d   1     -49.332  26.110  33.641  0.00  0.00    -0.162 F 
ENDBRANCH   1  28
TORSDOF 6
ENDMDL
