MODEL 1
REMARK VINA RESULT:      42.0      0.000      0.000
REMARK  5 active torsions:
REMARK  status: ('A' for Active; 'I' for Inactive)
REMARK    1  A    between atoms: C_6  and  C_1 
REMARK    2  A    between atoms: C_8  and  N_3 
REMARK    3  A    between atoms: C_7  and  C_8 
REMARK    4  A    between atoms: C_9  and  C_7 
REMARK    5  A    between atoms: C_10  and  C_9 
ROOT
ATOM      1  C   UNL d   1      61.129  49.410  50.373  0.00  0.00     0.187 A 
ATOM      2  N   UNL d   1      61.636  49.517  51.032  0.00  0.00    -0.224 NA
ATOM      3  N   UNL d   1      60.344  49.395  50.650  0.00  0.00    -0.287 N 
ATOM      4  C   UNL d   1      60.356  49.491  51.471  0.00  0.00     0.083 A 
ATOM      5  C   UNL d   1      61.149  49.567  51.710  0.00  0.00     0.099 A 
ATOM      6  C   UNL d   1      59.752  49.522  52.050  0.00  0.00     0.019 A 
ATOM      7  C   UNL d   1      61.344  49.673  52.515  0.00  0.00     0.021 A 
ATOM      8  C   UNL d   1      59.942  49.627  52.846  0.00  0.00     0.002 A 
ATOM      9  C   UNL d   1      60.737  49.702  53.078  0.00  0.00     0.002 A 
ENDROOT
BRANCH   3  10
ATOM     10  C   UNL d   1      59.780  49.291  50.056  0.00  0.00     0.082 C 
BRANCH  10  11
ATOM     11  C   UNL d   1      58.988  49.438  50.209  0.00  0.00     0.019 C 
BRANCH  11  12
ATOM     12  C   UNL d   1      58.408  49.089  49.734  0.00  0.00     0.002 C 
BRANCH  12  13
ATOM     13  C   UNL d   1      57.617  49.294  49.836  0.00  0.00     0.000 A 
ATOM     14  C   UNL d   1      57.319  49.416  50.596  0.00  0.00     0.000 A 
ATOM     15  C   UNL d   1      56.531  49.620  50.690  0.00  0.00     0.000 A 
ATOM     16  C   UNL d   1      56.038  49.704  50.034  0.00  0.00     0.000 A 
ATOM     17  C   UNL d   1      56.340  49.581  49.274  0.00  0.00     0.000 A 
ATOM     18  C   UNL d   1      57.124  49.378  49.179  0.00  0.00     0.000 A 
ENDBRANCH  12  13
ENDBRANCH  11  12
ENDBRANCH  10  11
ENDBRANCH   3  10
BRANCH   1  19
ATOM     19  C   UNL d   1      61.433  49.352  49.716  0.00  0.00     0.230 C 
ATOM     20  O   UNL d   1      62.218  49.142  49.573  0.00  0.00    -0.283 OA
ATOM     21  C   UNL d   1      60.959  49.507  49.060  0.00  0.00     0.049 C 
ENDBRANCH   1  19
TORSDOF 5
ENDMDL
