MODEL 1
REMARK VINA RESULT:      -2.6      0.000      0.000
REMARK  2 active torsions:
REMARK  status: ('A' for Active; 'I' for Inactive)
REMARK    1  A    between atoms: C_2  and  N_1 
REMARK    2  A    between atoms: O_12  and  C_10 
ROOT
ATOM      1  C   UNL d   1      30.544  16.230 -23.959  0.00  0.00     0.072 A 
ATOM      2  C   UNL d   1      30.935  16.911 -23.714  0.00  0.00     0.042 A 
ATOM      3  C   UNL d   1      31.743  16.977 -23.858  0.00  0.00     0.096 A 
ATOM      4  C   UNL d   1      30.959  15.626 -24.342  0.00  0.00     0.018 A 
ATOM      5  C   UNL d   1      31.748  15.688 -24.484  0.00  0.00     0.004 A 
ATOM      6  C   UNL d   1      32.161  16.379 -24.239  0.00  0.00     0.024 A 
ENDROOT
BRANCH   1   7
ATOM      7  N   UNL d   1      29.733  16.161 -23.816  0.00  0.00    -0.242 N 
ATOM      8  C   UNL d   1      29.130  16.428 -24.292  0.00  0.00     0.267 A 
ATOM      9  C   UNL d   1      28.409  16.242 -23.937  0.00  0.00     0.066 A 
ATOM     10  O   UNL d   1      29.223  16.819 -25.013  0.00  0.00    -0.267 OA
ATOM     11  C   UNL d   1      28.576  15.852 -23.223  0.00  0.00     0.066 A 
ATOM     12  C   UNL d   1      29.399  15.797 -23.141  0.00  0.00     0.267 A 
ATOM     13  O   UNL d   1      29.801  15.453 -22.516  0.00  0.00    -0.267 OA
ENDBRANCH   1   7
BRANCH   3  14
ATOM     14  O   UNL d   1      32.146  17.666 -23.612  0.00  0.00    -0.328 OA
ATOM     15  C   UNL d   1      32.853  17.585 -23.221  0.00  0.00     0.181 C 
ENDBRANCH   3  14
TORSDOF 2
ENDMDL
MODEL 2
REMARK VINA RESULT:      -2.5      1.570      2.442
REMARK  2 active torsions:
REMARK  status: ('A' for Active; 'I' for Inactive)
REMARK    1  A    between atoms: C_2  and  N_1 
REMARK    2  A    between atoms: O_12  and  C_10 
ROOT
ATOM      1  C   UNL d   1      32.252  17.594 -23.839  0.00  0.00     0.072 A 
ATOM      2  C   UNL d   1      32.369  17.981 -23.123  0.00  0.00     0.042 A 
ATOM      3  C   UNL d   1      32.863  18.639 -23.105  0.00  0.00     0.096 A 
ATOM      4  C   UNL d   1      32.627  17.864 -24.525  0.00  0.00     0.018 A 
ATOM      5  C   UNL d   1      33.110  18.506 -24.510  0.00  0.00     0.004 A 
ATOM      6  C   UNL d   1      33.239  18.912 -23.784  0.00  0.00     0.024 A 
ENDROOT
BRANCH   1   7
ATOM      7  N   UNL d   1      31.756  16.934 -23.860  0.00  0.00    -0.242 N 
ATOM      8  C   UNL d   1      30.968  16.923 -24.059  0.00  0.00     0.267 A 
ATOM      9  C   UNL d   1      30.690  16.147 -24.006  0.00  0.00     0.066 A 
ATOM     10  O   UNL d   1      30.517  17.579 -24.278  0.00  0.00    -0.267 OA
ATOM     11  C   UNL d   1      31.328  15.671 -23.768  0.00  0.00     0.066 A 
ATOM     12  C   UNL d   1      31.996  16.154 -23.675  0.00  0.00     0.267 A 
ATOM     13  O   UNL d   1      32.742  15.908 -23.446  0.00  0.00    -0.267 OA
ENDBRANCH   1   7
BRANCH   3  14
ATOM     14  O   UNL d   1      32.986  19.037 -22.381  0.00  0.00    -0.328 OA
ATOM     15  C   UNL d   1      33.110  19.839 -22.392  0.00  0.00     0.181 C 
ENDBRANCH   3  14
TORSDOF 2
ENDMDL
MODEL 3
REMARK VINA RESULT:      -2.5      1.051      3.099
REMARK  2 active torsions:
REMARK  status: ('A' for Active; 'I' for Inactive)
REMARK    1  A    between atoms: C_2  and  N_1 
REMARK    2  A    between atoms: O_12  and  C_10 
ROOT
ATOM      1  C   UNL d   1      30.947  16.231 -24.058  0.00  0.00     0.072 A 
ATOM      2  C   UNL d   1      30.312  16.237 -23.535  0.00  0.00     0.042 A 
ATOM      3  C   UNL d   1      29.620  15.846 -23.749  0.00  0.00     0.096 A 
ATOM      4  C   UNL d   1      30.887  15.838 -24.783  0.00  0.00     0.018 A 
ATOM      5  C   UNL d   1      30.212  15.456 -24.994  0.00  0.00     0.004 A 
ATOM      6  C   UNL d   1      29.554  15.453 -24.469  0.00  0.00     0.024 A 
ENDROOT
BRANCH   1   7
ATOM      7  N   UNL d   1      31.643  16.623 -23.846  0.00  0.00    -0.242 N 
ATOM      8  C   UNL d   1      32.282  16.304 -23.456  0.00  0.00     0.267 A 
ATOM      9  C   UNL d   1      32.853  16.891 -23.358  0.00  0.00     0.066 A 
ATOM     10  O   UNL d   1      32.348  15.522 -23.199  0.00  0.00    -0.267 OA
ATOM     11  C   UNL d   1      32.555  17.588 -23.698  0.00  0.00     0.066 A 
ATOM     12  C   UNL d   1      31.801  17.429 -24.004  0.00  0.00     0.267 A 
ATOM     13  O   UNL d   1      31.312  17.963 -24.386  0.00  0.00    -0.267 OA
ENDBRANCH   1   7
BRANCH   3  14
ATOM     14  O   UNL d   1      28.972  15.849 -23.222  0.00  0.00    -0.328 OA
ATOM     15  C   UNL d   1      28.277  16.193 -23.462  0.00  0.00     0.181 C 
ENDBRANCH   3  14
TORSDOF 2
ENDMDL
MODEL 4
REMARK VINA RESULT:      -2.5      1.052      2.903
REMARK  2 active torsions:
REMARK  status: ('A' for Active; 'I' for Inactive)
REMARK    1  A    between atoms: C_2  and  N_1 
REMARK    2  A    between atoms: O_12  and  C_10 
ROOT
ATOM      1  C   UNL d   1      30.949  16.235 -24.051  0.00  0.00     0.072 A 
ATOM      2  C   UNL d   1      30.315  16.241 -23.529  0.00  0.00     0.042 A 
ATOM      3  C   UNL d   1      29.623  15.849 -23.741  0.00  0.00     0.096 A 
ATOM      4  C   UNL d   1      30.889  15.840 -24.776  0.00  0.00     0.018 A 
ATOM      5  C   UNL d   1      30.215  15.456 -24.986  0.00  0.00     0.004 A 
ATOM      6  C   UNL d   1      29.557  15.454 -24.460  0.00  0.00     0.024 A 
ENDROOT
BRANCH   1   7
ATOM      7  N   UNL d   1      31.645  16.628 -23.841  0.00  0.00    -0.242 N 
ATOM      8  C   UNL d   1      31.822  17.410 -23.975  0.00  0.00     0.267 A 
ATOM      9  C   UNL d   1      32.573  17.569 -23.673  0.00  0.00     0.066 A 
ATOM     10  O   UNL d   1      31.331  17.957 -24.351  0.00  0.00    -0.267 OA
ATOM     11  C   UNL d   1      32.864  16.862 -23.346  0.00  0.00     0.066 A 
ATOM     12  C   UNL d   1      32.291  16.272 -23.446  0.00  0.00     0.267 A 
ATOM     13  O   UNL d   1      32.352  15.492 -23.203  0.00  0.00    -0.267 OA
ENDBRANCH   1   7
BRANCH   3  14
ATOM     14  O   UNL d   1      28.975  15.852 -23.214  0.00  0.00    -0.328 OA
ATOM     15  C   UNL d   1      28.278  16.193 -23.455  0.00  0.00     0.181 C 
ENDBRANCH   3  14
TORSDOF 2
ENDMDL
MODEL 5
REMARK VINA RESULT:      -1.7      5.709      7.365
REMARK  2 active torsions:
REMARK  status: ('A' for Active; 'I' for Inactive)
REMARK    1  A    between atoms: C_2  and  N_1 
REMARK    2  A    between atoms: O_12  and  C_10 
ROOT
ATOM      1  C   UNL d   1      32.578  22.360 -20.953  0.00  0.00     0.072 A 
ATOM      2  C   UNL d   1      32.945  22.520 -20.234  0.00  0.00     0.042 A 
ATOM      3  C   UNL d   1      32.715  23.188 -19.812  0.00  0.00     0.096 A 
ATOM      4  C   UNL d   1      31.990  22.864 -21.242  0.00  0.00     0.018 A 
ATOM      5  C   UNL d   1      31.763  23.517 -20.832  0.00  0.00     0.004 A 
ATOM      6  C   UNL d   1      32.130  23.694 -20.095  0.00  0.00     0.024 A 
ENDROOT
BRANCH   1   7
ATOM      7  N   UNL d   1      32.807  21.689 -21.378  0.00  0.00    -0.242 N 
ATOM      8  C   UNL d   1      32.848  20.926 -21.099  0.00  0.00     0.267 A 
ATOM      9  C   UNL d   1      33.103  20.433 -21.710  0.00  0.00     0.066 A 
ATOM     10  O   UNL d   1      32.665  20.684 -20.332  0.00  0.00    -0.267 OA
ATOM     11  C   UNL d   1      33.221  20.909 -22.381  0.00  0.00     0.066 A 
ATOM     12  C   UNL d   1      33.039  21.693 -22.182  0.00  0.00     0.267 A 
ATOM     13  O   UNL d   1      33.081  22.341 -22.681  0.00  0.00    -0.267 OA
ENDBRANCH   1   7
BRANCH   3  14
ATOM     14  O   UNL d   1      33.084  23.356 -19.082  0.00  0.00    -0.328 OA
ATOM     15  C   UNL d   1      32.620  23.575 -18.452  0.00  0.00     0.181 C 
ENDBRANCH   3  14
TORSDOF 2
ENDMDL
MODEL 6
REMARK VINA RESULT:      -1.5      4.513      6.286
REMARK  2 active torsions:
REMARK  status: ('A' for Active; 'I' for Inactive)
REMARK    1  A    between atoms: C_2  and  N_1 
REMARK    2  A    between atoms: O_12  and  C_10 
ROOT
ATOM      1  C   UNL d   1      32.715  21.230 -21.510  0.00  0.00     0.072 A 
ATOM      2  C   UNL d   1      32.558  20.776 -22.178  0.00  0.00     0.042 A 
ATOM      3  C   UNL d   1      32.747  19.975 -22.165  0.00  0.00     0.096 A 
ATOM      4  C   UNL d   1      33.056  20.883 -20.841  0.00  0.00     0.018 A 
ATOM      5  C   UNL d   1      33.241  20.101 -20.825  0.00  0.00     0.004 A 
ATOM      6  C   UNL d   1      33.086  19.624 -21.502  0.00  0.00     0.024 A 
ENDROOT
BRANCH   1   7
ATOM      7  N   UNL d   1      32.527  22.034 -21.520  0.00  0.00    -0.242 N 
ATOM      8  C   UNL d   1      32.077  22.436 -20.975  0.00  0.00     0.267 A 
ATOM      9  C   UNL d   1      32.030  23.228 -21.201  0.00  0.00     0.066 A 
ATOM     10  O   UNL d   1      31.723  22.107 -20.306  0.00  0.00    -0.267 OA
ATOM     11  C   UNL d   1      32.465  23.313 -21.904  0.00  0.00     0.066 A 
ATOM     12  C   UNL d   1      32.777  22.573 -22.110  0.00  0.00     0.267 A 
ATOM     13  O   UNL d   1      33.241  22.408 -22.764  0.00  0.00    -0.267 OA
ENDBRANCH   1   7
BRANCH   3  14
ATOM     14  O   UNL d   1      32.590  19.508 -22.840  0.00  0.00    -0.328 OA
ATOM     15  C   UNL d   1      32.870  18.747 -22.861  0.00  0.00     0.181 C 
ENDBRANCH   3  14
TORSDOF 2
ENDMDL
