MODEL 1
REMARK VINA RESULT:      12.6      0.000      0.000
REMARK  5 active torsions:
REMARK  status: ('A' for Active; 'I' for Inactive)
REMARK       I    between atoms: N_3  and  C_1 
REMARK    1  A    between atoms: C_4  and  C_1 
REMARK    2  A    between atoms: C_2  and  C_6 
REMARK    3  A    between atoms: O_5  and  C_2 
REMARK    4  A    between atoms: C_11  and  N_3 
REMARK    5  A    between atoms: C_14  and  O_5 
ROOT
ATOM      1  C   UNL d   1      45.893 -16.447  44.383  0.00  0.00     0.064 A 
ATOM      2  C   UNL d   1      45.181 -16.108  44.633  0.00  0.00     0.008 A 
ATOM      3  C   UNL d   1      46.513 -15.960  44.124  0.00  0.00     0.008 A 
ATOM      4  C   UNL d   1      45.707 -14.805  44.365  0.00  0.00     0.135 A 
ATOM      5  C   UNL d   1      45.087 -15.291  44.625  0.00  0.00     0.032 A 
ATOM      6  C   UNL d   1      46.417 -15.139  44.116  0.00  0.00     0.032 A 
ENDROOT
BRANCH   1   7
ATOM      7  C   UNL d   1      45.981 -17.269  44.395  0.00  0.00     0.300 C 
ATOM      8  O   UNL d   1      45.572 -17.712  44.955  0.00  0.00    -0.259 OA
BRANCH   7   9
ATOM      9  O   UNL d   1      46.474 -17.641  43.848  0.00  0.00    -0.273 OA
BRANCH   9  10
ATOM     10  C   UNL d   1      46.452 -18.461  43.769  0.00  0.00     0.103 A 
ATOM     11  C   UNL d   1      46.244 -18.798  43.046  0.00  0.00     0.025 A 
ATOM     12  C   UNL d   1      46.224 -19.610  42.972  0.00  0.00     0.002 A 
ATOM     13  C   UNL d   1      46.409 -20.099  43.610  0.00  0.00     0.000 A 
ATOM     14  C   UNL d   1      46.619 -19.755  44.337  0.00  0.00     0.002 A 
ATOM     15  C   UNL d   1      46.641 -18.937  44.416  0.00  0.00     0.025 A 
ENDBRANCH   9  10
ENDBRANCH   7   9
ENDBRANCH   1   7
BRANCH   4  16
ATOM     16  N   UNL d   1      45.609 -13.980  44.357  0.00  0.00    -0.368 NA
ATOM     17  C   UNL d   1      45.511 -13.165  44.348  0.00  0.00     0.303 C 
ATOM     18  O   UNL d   1      45.826 -12.705  44.955  0.00  0.00    -0.256 OA
BRANCH  17  19
ATOM     19  C   UNL d   1      45.096 -12.808  43.732  0.00  0.00     0.085 C 
ATOM     20  C   UNL d   1      44.428 -13.172  43.413  0.00  0.00     0.011 C 
ATOM     21  C   UNL d   1      45.718 -12.288  43.899  0.00  0.00     0.011 C 
ATOM     22  C   UNL d   1      45.348 -12.084  43.430  0.00  0.00     0.011 C 
ENDBRANCH  17  19
ENDBRANCH   4  16
TORSDOF 5
ENDMDL
