MODEL 1
REMARK VINA RESULT:      12.2      0.000      0.000
REMARK  3 active torsions:
REMARK  status: ('A' for Active; 'I' for Inactive)
REMARK    1  A    between atoms: C_4  and  C_1 
REMARK    2  A    between atoms: N_7  and  C_4 
REMARK    3  A    between atoms: C_9  and  N_7 
ROOT
ATOM      1  C   UNL d   1      46.168 -17.747  43.723  0.00  0.00     0.139 A 
ATOM      2  N   UNL d   1      46.277 -17.763  42.920  0.00  0.00    -0.236 NA
ATOM      3  S   UNL d   1      46.221 -18.511  44.019  0.00  0.00    -0.064 SA
ATOM      4  C   UNL d   1      46.402 -18.556  42.694  0.00  0.00     0.088 A 
ATOM      5  C   UNL d   1      46.367 -19.017  43.376  0.00  0.00     0.049 A 
ATOM      6  C   UNL d   1      46.542 -18.911  41.963  0.00  0.00     0.020 A 
ATOM      7  C   UNL d   1      46.471 -19.839  43.330  0.00  0.00     0.008 A 
ATOM      8  C   UNL d   1      46.611 -20.194  42.599  0.00  0.00     0.001 A 
ATOM      9  C   UNL d   1      46.646 -19.727  41.913  0.00  0.00     0.002 A 
ENDROOT
BRANCH   1  10
ATOM     10  C   UNL d   1      46.027 -17.060  44.166  0.00  0.00     0.159 C 
ATOM     11  S   UNL d   1      45.780 -17.116  44.955  0.00  0.00    -0.055 SA
BRANCH  10  12
ATOM     12  N   UNL d   1      46.134 -16.318  43.822  0.00  0.00    -0.233 NA
BRANCH  12  13
ATOM     13  C   UNL d   1      45.844 -15.640  44.201  0.00  0.00     0.082 A 
ATOM     14  C   UNL d   1      46.315 -14.964  44.228  0.00  0.00     0.019 A 
ATOM     15  C   UNL d   1      46.037 -14.286  44.602  0.00  0.00     0.002 A 
ATOM     16  C   UNL d   1      45.288 -14.286  44.948  0.00  0.00     0.000 A 
ATOM     17  C   UNL d   1      44.817 -14.969  44.919  0.00  0.00     0.002 A 
ATOM     18  C   UNL d   1      45.095 -15.648  44.545  0.00  0.00     0.019 A 
ENDBRANCH  12  13
ENDBRANCH  10  12
ENDBRANCH   1  10
TORSDOF 3
ENDMDL
MODEL 2
REMARK VINA RESULT:      13.2      0.800      1.229
REMARK  3 active torsions:
REMARK  status: ('A' for Active; 'I' for Inactive)
REMARK    1  A    between atoms: C_4  and  C_1 
REMARK    2  A    between atoms: N_7  and  C_4 
REMARK    3  A    between atoms: C_9  and  N_7 
ROOT
ATOM      1  C   UNL d   1      45.942 -16.975  44.280  0.00  0.00     0.139 A 
ATOM      2  N   UNL d   1      46.085 -17.195  43.512  0.00  0.00    -0.236 NA
ATOM      3  S   UNL d   1      46.041 -17.625  44.771  0.00  0.00    -0.064 SA
ATOM      4  C   UNL d   1      46.280 -18.005  43.510  0.00  0.00     0.088 A 
ATOM      5  C   UNL d   1      46.252 -18.270  44.290  0.00  0.00     0.049 A 
ATOM      6  C   UNL d   1      46.476 -18.529  42.904  0.00  0.00     0.020 A 
ATOM      7  C   UNL d   1      46.421 -19.063  44.469  0.00  0.00     0.008 A 
ATOM      8  C   UNL d   1      46.618 -19.586  43.862  0.00  0.00     0.001 A 
ATOM      9  C   UNL d   1      46.645 -19.317  43.076  0.00  0.00     0.002 A 
ENDROOT
BRANCH   1  10
ATOM     10  C   UNL d   1      45.730 -16.210  44.520  0.00  0.00     0.159 C 
ATOM     11  S   UNL d   1      45.037 -16.086  44.955  0.00  0.00    -0.055 SA
BRANCH  10  12
ATOM     12  N   UNL d   1      46.211 -15.569  44.324  0.00  0.00    -0.233 NA
BRANCH  12  13
ATOM     13  C   UNL d   1      45.914 -14.796  44.377  0.00  0.00     0.082 A 
ATOM     14  C   UNL d   1      45.284 -14.576  43.894  0.00  0.00     0.019 A 
ATOM     15  C   UNL d   1      44.982 -13.811  43.940  0.00  0.00     0.002 A 
ATOM     16  C   UNL d   1      45.312 -13.270  44.468  0.00  0.00     0.000 A 
ATOM     17  C   UNL d   1      45.947 -13.497  44.953  0.00  0.00     0.002 A 
ATOM     18  C   UNL d   1      46.249 -14.261  44.908  0.00  0.00     0.019 A 
ENDBRANCH  12  13
ENDBRANCH  10  12
ENDBRANCH   1  10
TORSDOF 3
ENDMDL
