MODEL 1
REMARK VINA RESULT:      56.4      0.000      0.000
REMARK  10 active torsions:
REMARK  status: ('A' for Active; 'I' for Inactive)
REMARK    1  A    between atoms: C_11  and  C_1 
REMARK    2  A    between atoms: C_21  and  N_5 
REMARK    3  A    between atoms: N_20  and  C_8 
REMARK    4  A    between atoms: C_9  and  C_11 
REMARK    5  A    between atoms: C_25  and  N_20 
REMARK    6  A    between atoms: C_28  and  C_21 
REMARK    7  A    between atoms: C_22  and  C_25 
REMARK    8  A    between atoms: C_26  and  C_22 
REMARK    9  A    between atoms: O_24  and  C_26 
REMARK   10  A    between atoms: C_27  and  O_24 
ROOT
ATOM      1  C   UNL d   1      14.052  14.978  -2.318  0.00  0.00     0.093 A 
ATOM      2  N   UNL d   1      14.739  16.036  -3.006  0.00  0.00    -0.258 N 
ATOM      3  N   UNL d   1      14.144  14.966  -3.760  0.00  0.00    -0.209 NA
ATOM      4  C   UNL d   1      14.571  15.674  -3.742  0.00  0.00     0.152 A 
ATOM      5  C   UNL d   1      14.485  15.697  -2.293  0.00  0.00     0.269 A 
ATOM      6  C   UNL d   1      13.881  14.612  -3.053  0.00  0.00     0.169 A 
ATOM      7  C   UNL d   1      14.828  16.020  -4.441  0.00  0.00     0.035 A 
ATOM      8  C   UNL d   1      15.166  16.744  -2.988  0.00  0.00     0.084 A 
ATOM      9  O   UNL d   1      14.652  16.053  -1.578  0.00  0.00    -0.266 OA
ATOM     10  C   UNL d   1      15.420  17.085  -3.697  0.00  0.00     0.019 A 
ATOM     11  C   UNL d   1      15.252  16.725  -4.420  0.00  0.00     0.005 A 
ATOM     12  C   UNL d   1      14.659  15.660  -5.163  0.00  0.00     0.003 C 
ENDROOT
BRANCH   1  13
ATOM     13  C   UNL d   1      13.794  14.629  -1.623  0.00  0.00     0.019 C 
BRANCH  13  14
ATOM     14  C   UNL d   1      14.332  14.225  -1.146  0.00  0.00     0.088 A 
ATOM     15  C   UNL d   1      14.244  13.454  -0.863  0.00  0.00     0.272 A 
ATOM     16  N   UNL d   1      14.909  13.268  -0.408  0.00  0.00    -0.259 N 
ATOM     17  O   UNL d   1      13.600  12.952  -1.007  0.00  0.00    -0.266 OA
ATOM     18  C   UNL d   1      15.411  13.933  -0.413  0.00  0.00     0.153 A 
ATOM     19  S   UNL d   1      15.047  14.518  -0.870  0.00  0.00    -0.053 SA
ATOM     20  S   UNL d   1      16.132  13.991  -0.033  0.00  0.00    -0.052 SA
BRANCH  16  21
ATOM     21  C   UNL d   1      15.055  12.559  -0.020  0.00  0.00     0.084 C 
BRANCH  21  22
ATOM     22  C   UNL d   1      15.631  12.040  -0.315  0.00  0.00     0.019 C 
ATOM     23  C   UNL d   1      15.592  11.779  -1.098  0.00  0.00     0.002 C 
ENDBRANCH  21  22
ENDBRANCH  16  21
ENDBRANCH  13  14
ENDBRANCH   1  13
BRANCH   6  24
ATOM     24  N   UNL d   1      13.456  13.906  -3.073  0.00  0.00    -0.225 NA
BRANCH  24  25
ATOM     25  C   UNL d   1      13.222  13.584  -3.788  0.00  0.00     0.103 C 
BRANCH  25  26
ATOM     26  C   UNL d   1      12.799  12.877  -3.807  0.00  0.00     0.047 C 
BRANCH  26  27
ATOM     27  C   UNL d   1      12.783  12.426  -4.493  0.00  0.00     0.124 C 
BRANCH  27  28
ATOM     28  O   UNL d   1      13.485  12.141  -4.816  0.00  0.00    -0.303 OA
BRANCH  28  29
ATOM     29  C   UNL d   1      13.484  11.787  -5.566  0.00  0.00     0.123 C 
ATOM     30  C   UNL d   1      13.884  12.147  -6.191  0.00  0.00     0.029 C 
ENDBRANCH  28  29
ENDBRANCH  27  28
ENDBRANCH  26  27
ENDBRANCH  25  26
ENDBRANCH  24  25
ENDBRANCH   6  24
TORSDOF 10
ENDMDL
