MODEL 1
REMARK VINA RESULT:      -1.1      0.000      0.000
REMARK  4 active torsions:
REMARK  status: ('A' for Active; 'I' for Inactive)
REMARK    1  A    between atoms: N_2  and  S_1 
REMARK    2  A    between atoms: C_3  and  S_1 
REMARK    3  A    between atoms: O_19  and  C_14 
REMARK    4  A    between atoms: O_20  and  C_17 
ROOT
ATOM      1  S   UNL d   1      57.827  -0.063  30.764  0.00  0.00     0.275 S 
ATOM      2  O   UNL d   1      57.023   0.110  30.408  0.00  0.00    -0.199 OA
ATOM      3  O   UNL d   1      58.634  -0.237  31.125  0.00  0.00    -0.199 OA
ENDROOT
BRANCH   1   4
ATOM      4  N   UNL d   1      58.179  -0.047  29.944  0.00  0.00    -0.212 N 
ATOM      5  C   UNL d   1      58.401  -0.733  29.577  0.00  0.00     0.094 A 
ATOM      6  C   UNL d   1      58.723  -0.718  28.828  0.00  0.00     0.100 A 
ATOM      7  C   UNL d   1      58.299  -1.440  29.968  0.00  0.00     0.020 A 
ATOM      8  C   UNL d   1      58.944  -1.415  28.467  0.00  0.00     0.021 A 
ATOM      9  N   UNL d   1      58.603   0.682  28.804  0.00  0.00    -0.223 NA
ATOM     10  C   UNL d   1      58.844  -2.129  28.852  0.00  0.00     0.002 A 
ATOM     11  C   UNL d   1      58.522  -2.144  29.601  0.00  0.00     0.002 A 
ATOM     12  C   UNL d   1      59.065  -2.831  28.491  0.00  0.00     0.000 C 
ATOM     13  C   UNL d   1      58.419  -2.853  29.994  0.00  0.00     0.000 C 
ATOM     14  C   UNL d   1      58.281   0.667  29.553  0.00  0.00     0.193 A 
ENDBRANCH   1   4
BRANCH   1  15
ATOM     15  C   UNL d   1      57.471  -0.079  31.586  0.00  0.00     0.128 A 
ATOM     16  C   UNL d   1      56.670  -0.470  31.733  0.00  0.00     0.039 A 
ATOM     17  C   UNL d   1      56.320  -0.482  32.557  0.00  0.00     0.095 A 
ATOM     18  C   UNL d   1      56.763  -0.107  33.234  0.00  0.00     0.026 A 
ATOM     19  C   UNL d   1      57.558   0.282  33.094  0.00  0.00     0.027 A 
ATOM     20  C   UNL d   1      57.903   0.292  32.270  0.00  0.00     0.106 A 
BRANCH  17  21
ATOM     21  O   UNL d   1      55.532  -0.866  32.706  0.00  0.00    -0.328 OA
ATOM     22  C   UNL d   1      55.492  -1.616  33.213  0.00  0.00     0.181 C 
ENDBRANCH  17  21
BRANCH  20  23
ATOM     23  O   UNL d   1      58.703   0.682  32.122  0.00  0.00    -0.327 OA
ATOM     24  C   UNL d   1      59.343   0.624  32.753  0.00  0.00     0.181 C 
ENDBRANCH  20  23
ENDBRANCH   1  15
TORSDOF 4
ENDMDL
MODEL 2
REMARK VINA RESULT:       0.8      1.244      3.856
REMARK  4 active torsions:
REMARK  status: ('A' for Active; 'I' for Inactive)
REMARK    1  A    between atoms: N_2  and  S_1 
REMARK    2  A    between atoms: C_3  and  S_1 
REMARK    3  A    between atoms: O_19  and  C_14 
REMARK    4  A    between atoms: O_20  and  C_17 
ROOT
ATOM      1  S   UNL d   1      58.216  -0.693  30.792  0.00  0.00     0.275 S 
ATOM      2  O   UNL d   1      57.466  -0.315  30.478  0.00  0.00    -0.199 OA
ATOM      3  O   UNL d   1      58.970  -1.073  31.105  0.00  0.00    -0.199 OA
ENDROOT
BRANCH   1   4
ATOM      4  N   UNL d   1      58.091  -0.265  31.565  0.00  0.00    -0.212 N 
ATOM      5  C   UNL d   1      57.441  -0.419  32.022  0.00  0.00     0.094 A 
ATOM      6  C   UNL d   1      57.327  -0.028  32.729  0.00  0.00     0.100 A 
ATOM      7  C   UNL d   1      56.901  -0.971  31.764  0.00  0.00     0.020 A 
ATOM      8  C   UNL d   1      56.669  -0.191  33.181  0.00  0.00     0.021 A 
ATOM      9  N   UNL d   1      58.523   0.682  32.529  0.00  0.00    -0.223 NA
ATOM     10  C   UNL d   1      56.121  -0.745  32.930  0.00  0.00     0.002 A 
ATOM     11  C   UNL d   1      56.235  -1.135  32.223  0.00  0.00     0.002 A 
ATOM     12  C   UNL d   1      55.459  -0.910  33.384  0.00  0.00     0.000 C 
ATOM     13  C   UNL d   1      55.694  -1.690  31.964  0.00  0.00     0.000 C 
ATOM     14  C   UNL d   1      58.637   0.291  31.822  0.00  0.00     0.193 A 
ENDBRANCH   1   4
BRANCH   1  15
ATOM     15  C   UNL d   1      58.338  -1.120  30.015  0.00  0.00     0.128 A 
ATOM     16  C   UNL d   1      58.139  -1.998  29.936  0.00  0.00     0.039 A 
ATOM     17  C   UNL d   1      58.264  -2.419  29.156  0.00  0.00     0.095 A 
ATOM     18  C   UNL d   1      58.586  -1.971  28.455  0.00  0.00     0.026 A 
ATOM     19  C   UNL d   1      58.785  -1.100  28.527  0.00  0.00     0.027 A 
ATOM     20  C   UNL d   1      58.659  -0.685  29.308  0.00  0.00     0.106 A 
BRANCH  17  21
ATOM     21  O   UNL d   1      58.069  -3.283  29.074  0.00  0.00    -0.328 OA
ATOM     22  C   UNL d   1      58.547  -3.793  28.497  0.00  0.00     0.181 C 
ENDBRANCH  17  21
BRANCH  20  23
ATOM     23  O   UNL d   1      58.857   0.192  29.387  0.00  0.00    -0.327 OA
ATOM     24  C   UNL d   1      58.991   0.681  28.643  0.00  0.00     0.181 C 
ENDBRANCH  20  23
ENDBRANCH   1  15
TORSDOF 4
ENDMDL
MODEL 3
REMARK VINA RESULT:       0.8      1.398      2.003
REMARK  4 active torsions:
REMARK  status: ('A' for Active; 'I' for Inactive)
REMARK    1  A    between atoms: N_2  and  S_1 
REMARK    2  A    between atoms: C_3  and  S_1 
REMARK    3  A    between atoms: O_19  and  C_14 
REMARK    4  A    between atoms: O_20  and  C_17 
ROOT
ATOM      1  S   UNL d   1      58.941   0.148  30.322  0.00  0.00     0.275 S 
ATOM      2  O   UNL d   1      59.347   0.016  31.110  0.00  0.00    -0.199 OA
ATOM      3  O   UNL d   1      58.531   0.280  29.531  0.00  0.00    -0.199 OA
ENDROOT
BRANCH   1   4
ATOM      4  N   UNL d   1      59.724   0.017  29.913  0.00  0.00    -0.212 N 
ATOM      5  C   UNL d   1      59.899  -0.698  29.578  0.00  0.00     0.094 A 
ATOM      6  C   UNL d   1      60.615  -0.817  29.204  0.00  0.00     0.100 A 
ATOM      7  C   UNL d   1      59.351  -1.298  29.621  0.00  0.00     0.020 A 
ATOM      8  C   UNL d   1      60.782  -1.542  28.870  0.00  0.00     0.021 A 
ATOM      9  N   UNL d   1      60.989   0.505  29.498  0.00  0.00    -0.223 NA
ATOM     10  C   UNL d   1      60.237  -2.150  28.908  0.00  0.00     0.002 A 
ATOM     11  C   UNL d   1      59.522  -2.031  29.282  0.00  0.00     0.002 A 
ATOM     12  C   UNL d   1      60.404  -2.880  28.573  0.00  0.00     0.000 C 
ATOM     13  C   UNL d   1      58.971  -2.633  29.325  0.00  0.00     0.000 C 
ATOM     14  C   UNL d   1      60.274   0.624  29.872  0.00  0.00     0.193 A 
ENDBRANCH   1   4
BRANCH   1  15
ATOM     15  C   UNL d   1      58.158   0.278  30.735  0.00  0.00     0.128 A 
ATOM     16  C   UNL d   1      58.078   0.141  31.625  0.00  0.00     0.039 A 
ATOM     17  C   UNL d   1      57.291   0.274  32.031  0.00  0.00     0.095 A 
ATOM     18  C   UNL d   1      56.585   0.541  31.557  0.00  0.00     0.026 A 
ATOM     19  C   UNL d   1      56.658   0.679  30.674  0.00  0.00     0.027 A 
ATOM     20  C   UNL d   1      57.445   0.545  30.274  0.00  0.00     0.106 A 
BRANCH  17  21
ATOM     21  O   UNL d   1      57.208   0.140  32.906  0.00  0.00    -0.328 OA
ATOM     22  C   UNL d   1      56.458  -0.255  33.226  0.00  0.00     0.181 C 
ENDBRANCH  17  21
BRANCH  20  23
ATOM     23  O   UNL d   1      57.525   0.682  29.386  0.00  0.00    -0.327 OA
ATOM     24  C   UNL d   1      56.785   0.682  28.872  0.00  0.00     0.181 C 
ENDBRANCH  20  23
ENDBRANCH   1  15
TORSDOF 4
ENDMDL
