MODEL 1
REMARK VINA RESULT:       8.6      0.000      0.000
REMARK  6 active torsions:
REMARK  status: ('A' for Active; 'I' for Inactive)
REMARK    1  A    between atoms: C_10  and  N_1 
REMARK    2  A    between atoms: S_8  and  C_2 
REMARK       I    between atoms: N_7  and  C_9 
REMARK    3  A    between atoms: C_13  and  S_8 
REMARK    4  A    between atoms: C_9  and  C_13 
REMARK    5  A    between atoms: C_21  and  N_11 
REMARK    6  A    between atoms: C_25  and  C_21 
ROOT
ATOM      1  N   UNL d   1     -43.032-122.846 -49.334  0.00  0.00    -0.254 N 
ATOM      2  C   UNL d   1     -42.291-122.564 -49.545  0.00  0.00     0.182 A 
ATOM      3  C   UNL d   1     -43.134-123.231 -48.610  0.00  0.00     0.268 A 
ATOM      4  N   UNL d   1     -41.653-122.666 -49.031  0.00  0.00    -0.222 NA
ATOM      5  C   UNL d   1     -42.495-123.333 -48.097  0.00  0.00     0.074 A 
ATOM      6  C   UNL d   1     -41.754-123.050 -48.307  0.00  0.00     0.088 A 
ATOM      7  O   UNL d   1     -43.873-123.513 -48.400  0.00  0.00    -0.267 OA
ATOM      8  C   UNL d   1     -42.603-123.711 -47.388  0.00  0.00     0.006 A 
ATOM      9  C   UNL d   1     -41.123-123.147 -47.808  0.00  0.00     0.019 A 
ATOM     10  C   UNL d   1     -41.964-123.814 -46.874  0.00  0.00     0.000 A 
ATOM     11  C   UNL d   1     -41.224-123.531 -47.084  0.00  0.00     0.002 A 
ENDROOT
BRANCH   2  12
ATOM     12  S   UNL d   1     -42.174-122.174 -50.273  0.00  0.00    -0.044 SA
BRANCH  12  13
ATOM     13  C   UNL d   1     -41.456-122.297 -50.679  0.00  0.00     0.099 C 
BRANCH  13  14
ATOM     14  C   UNL d   1     -41.326-121.884 -51.392  0.00  0.00     0.272 C 
ATOM     15  N   UNL d   1     -41.289-122.320 -52.103  0.00  0.00    -0.269 N 
ATOM     16  C   UNL d   1     -41.162-121.906 -52.796  0.00  0.00     0.102 A 
ATOM     17  C   UNL d   1     -41.377-123.135 -52.101  0.00  0.00     0.102 A 
ATOM     18  C   UNL d   1     -41.124-122.342 -53.506  0.00  0.00     0.100 A 
ATOM     19  N   UNL d   1     -41.213-123.157 -53.504  0.00  0.00    -0.297 N 
ATOM     20  C   UNL d   1     -41.340-123.553 -52.791  0.00  0.00     0.100 A 
ATOM     21  O   UNL d   1     -41.238-121.070 -51.395  0.00  0.00    -0.266 OA
BRANCH  19  22
ATOM     22  C   UNL d   1     -41.171-123.576 -54.237  0.00  0.00     0.126 C 
BRANCH  22  23
ATOM     23  C   UNL d   1     -41.152-123.175 -54.936  0.00  0.00     0.253 C 
ATOM     24  O   UNL d   1     -41.297-123.578 -55.643  0.00  0.00    -0.281 OA
ENDBRANCH  22  23
ENDBRANCH  19  22
ENDBRANCH  13  14
ENDBRANCH  12  13
ENDBRANCH   2  12
BRANCH   1  25
ATOM     25  C   UNL d   1     -43.654-122.744 -49.840  0.00  0.00     0.069 A 
ATOM     26  C   UNL d   1     -43.959-121.980 -49.963  0.00  0.00     0.018 A 
ATOM     27  C   UNL d   1     -44.595-121.871 -50.479  0.00  0.00     0.002 A 
ATOM     28  C   UNL d   1     -44.920-122.523 -50.866  0.00  0.00     0.000 A 
ATOM     29  C   UNL d   1     -44.619-123.276 -50.745  0.00  0.00     0.002 A 
ATOM     30  C   UNL d   1     -43.982-123.388 -50.229  0.00  0.00     0.018 A 
ENDBRANCH   1  25
TORSDOF 6
ENDMDL
MODEL 2
REMARK VINA RESULT:      10.8      1.623      5.019
REMARK  6 active torsions:
REMARK  status: ('A' for Active; 'I' for Inactive)
REMARK    1  A    between atoms: C_10  and  N_1 
REMARK    2  A    between atoms: S_8  and  C_2 
REMARK       I    between atoms: N_7  and  C_9 
REMARK    3  A    between atoms: C_13  and  S_8 
REMARK    4  A    between atoms: C_9  and  C_13 
REMARK    5  A    between atoms: C_21  and  N_11 
REMARK    6  A    between atoms: C_25  and  C_21 
ROOT
ATOM      1  N   UNL d   1     -41.548-121.721 -53.359  0.00  0.00    -0.254 N 
ATOM      2  C   UNL d   1     -41.458-122.039 -52.608  0.00  0.00     0.182 A 
ATOM      3  C   UNL d   1     -41.508-120.903 -53.464  0.00  0.00     0.268 A 
ATOM      4  N   UNL d   1     -41.329-121.539 -51.964  0.00  0.00    -0.222 NA
ATOM      5  C   UNL d   1     -41.379-120.403 -52.819  0.00  0.00     0.074 A 
ATOM      6  C   UNL d   1     -41.289-120.721 -52.069  0.00  0.00     0.088 A 
ATOM      7  O   UNL d   1     -41.598-120.585 -54.213  0.00  0.00    -0.267 OA
ATOM      8  C   UNL d   1     -41.342-119.600 -52.931  0.00  0.00     0.006 A 
ATOM      9  C   UNL d   1     -41.162-120.237 -51.432  0.00  0.00     0.019 A 
ATOM     10  C   UNL d   1     -41.213-119.100 -52.286  0.00  0.00     0.000 A 
ATOM     11  C   UNL d   1     -41.123-119.419 -51.536  0.00  0.00     0.002 A 
ENDROOT
BRANCH   2  12
ATOM     12  S   UNL d   1     -41.496-122.864 -52.487  0.00  0.00    -0.044 SA
BRANCH  12  13
ATOM     13  C   UNL d   1     -41.332-123.162 -51.725  0.00  0.00     0.099 C 
BRANCH  13  14
ATOM     14  C   UNL d   1     -41.959-123.489 -51.283  0.00  0.00     0.272 C 
ATOM     15  N   UNL d   1     -41.900-123.492 -50.450  0.00  0.00    -0.269 N 
ATOM     16  C   UNL d   1     -42.519-123.815 -50.027  0.00  0.00     0.102 A 
ATOM     17  C   UNL d   1     -41.241-123.180 -50.076  0.00  0.00     0.102 A 
ATOM     18  C   UNL d   1     -42.460-123.817 -49.195  0.00  0.00     0.100 A 
ATOM     19  N   UNL d   1     -41.801-123.505 -48.820  0.00  0.00    -0.297 N 
ATOM     20  C   UNL d   1     -41.187-123.184 -49.270  0.00  0.00     0.100 A 
ATOM     21  O   UNL d   1     -42.618-123.801 -51.657  0.00  0.00    -0.266 OA
BRANCH  19  22
ATOM     22  C   UNL d   1     -41.764-123.520 -47.976  0.00  0.00     0.126 C 
BRANCH  22  23
ATOM     23  C   UNL d   1     -42.437-123.448 -47.536  0.00  0.00     0.253 C 
ATOM     24  O   UNL d   1     -42.434-122.980 -46.856  0.00  0.00    -0.281 OA
ENDBRANCH  22  23
ENDBRANCH  19  22
ENDBRANCH  13  14
ENDBRANCH  12  13
ENDBRANCH   2  12
BRANCH   1  25
ATOM     25  C   UNL d   1     -41.674-122.214 -53.986  0.00  0.00     0.069 A 
ATOM     26  C   UNL d   1     -42.283-122.041 -54.526  0.00  0.00     0.018 A 
ATOM     27  C   UNL d   1     -42.416-122.542 -55.169  0.00  0.00     0.002 A 
ATOM     28  C   UNL d   1     -41.940-123.209 -55.268  0.00  0.00     0.000 A 
ATOM     29  C   UNL d   1     -41.340-123.379 -54.737  0.00  0.00     0.002 A 
ATOM     30  C   UNL d   1     -41.205-122.879 -54.091  0.00  0.00     0.018 A 
ENDBRANCH   1  25
TORSDOF 6
ENDMDL
