MODEL 1
REMARK VINA RESULT:      -4.9      0.000      0.000
REMARK  5 active torsions:
REMARK  status: ('A' for Active; 'I' for Inactive)
REMARK    1  A    between atoms: C_2  and  S_1 
REMARK    2  A    between atoms: N_8  and  S_1 
REMARK    3  A    between atoms: C_3  and  C_14 
REMARK    4  A    between atoms: C_17  and  N_8 
REMARK    5  A    between atoms: C_23  and  C_11 
ROOT
ATOM      1  C   UNL d   1     -41.620-122.387 -52.585  0.00  0.00     0.024 A 
ATOM      2  C   UNL d   1     -41.289-122.631 -50.978  0.00  0.00     0.094 A 
ATOM      3  C   UNL d   1     -41.774-121.784 -52.039  0.00  0.00     0.004 A 
ATOM      4  C   UNL d   1     -41.305-123.100 -52.320  0.00  0.00     0.004 A 
ATOM      5  C   UNL d   1     -41.142-123.220 -51.529  0.00  0.00     0.020 A 
ATOM      6  C   UNL d   1     -41.611-121.901 -51.243  0.00  0.00     0.020 A 
ENDROOT
BRANCH   2   7
ATOM      7  N   UNL d   1     -41.128-122.747 -50.187  0.00  0.00    -0.158 NA
BRANCH   7   8
ATOM      8  S   UNL d   1     -41.716-123.024 -49.681  0.00  0.00     0.291 S 
ATOM      9  O   UNL d   1     -41.655-123.763 -50.022  0.00  0.00    -0.198 OA
ATOM     10  O   UNL d   1     -41.777-122.285 -49.341  0.00  0.00    -0.198 OA
BRANCH   8  11
ATOM     11  C   UNL d   1     -42.302-123.293 -49.176  0.00  0.00     0.135 A 
ATOM     12  S   UNL d   1     -42.290-123.293 -48.347  0.00  0.00    -0.074 SA
ATOM     13  C   UNL d   1     -42.996-123.615 -48.071  0.00  0.00     0.030 A 
ATOM     14  C   UNL d   1     -43.450-123.817 -48.735  0.00  0.00     0.008 A 
ATOM     15  C   UNL d   1     -43.035-123.625 -49.412  0.00  0.00     0.020 A 
BRANCH  13  16
ATOM     16  C   UNL d   1     -43.206-123.715 -47.293  0.00  0.00     0.006 C 
ATOM     17  C   UNL d   1     -42.625-123.679 -46.702  0.00  0.00     0.001 C 
ENDBRANCH  13  16
ENDBRANCH   8  11
ENDBRANCH   7   8
ENDBRANCH   2   7
BRANCH   1  18
ATOM     18  C   UNL d   1     -41.785-122.266 -53.384  0.00  0.00     0.112 A 
ATOM     19  S   UNL d   1     -42.522-122.083 -53.696  0.00  0.00    -0.047 SA
ATOM     20  C   UNL d   1     -42.442-122.008 -54.528  0.00  0.00     0.130 A 
ATOM     21  N   UNL d   1     -42.983-121.833 -55.123  0.00  0.00    -0.236 NA
ATOM     22  C   UNL d   1     -41.642-122.148 -54.713  0.00  0.00     0.106 A 
ATOM     23  C   UNL d   1     -42.725-121.798 -55.909  0.00  0.00     0.100 A 
ATOM     24  C   UNL d   1     -41.930-121.937 -56.098  0.00  0.00     0.022 A 
ATOM     25  C   UNL d   1     -41.392-122.111 -55.501  0.00  0.00     0.023 A 
ATOM     26  N   UNL d   1     -41.236-122.308 -54.002  0.00  0.00    -0.237 NA
ENDBRANCH   1  18
TORSDOF 5
ENDMDL
MODEL 2
REMARK VINA RESULT:      -3.9      1.475      5.651
REMARK  5 active torsions:
REMARK  status: ('A' for Active; 'I' for Inactive)
REMARK    1  A    between atoms: C_2  and  S_1 
REMARK    2  A    between atoms: N_8  and  S_1 
REMARK    3  A    between atoms: C_3  and  C_14 
REMARK    4  A    between atoms: C_17  and  N_8 
REMARK    5  A    between atoms: C_23  and  C_11 
ROOT
ATOM      1  C   UNL d   1     -41.737-122.568 -50.458  0.00  0.00     0.024 A 
ATOM      2  C   UNL d   1     -41.324-122.060 -51.983  0.00  0.00     0.094 A 
ATOM      3  C   UNL d   1     -41.926-121.799 -50.699  0.00  0.00     0.004 A 
ATOM      4  C   UNL d   1     -41.345-123.070 -50.981  0.00  0.00     0.004 A 
ATOM      5  C   UNL d   1     -41.142-122.819 -51.732  0.00  0.00     0.020 A 
ATOM      6  C   UNL d   1     -41.723-121.544 -51.453  0.00  0.00     0.020 A 
ENDROOT
BRANCH   2   7
ATOM      7  N   UNL d   1     -41.123-121.807 -52.732  0.00  0.00    -0.158 NA
BRANCH   7   8
ATOM      8  S   UNL d   1     -41.496-122.130 -53.391  0.00  0.00     0.291 S 
ATOM      9  O   UNL d   1     -41.123-122.842 -53.248  0.00  0.00    -0.198 OA
ATOM     10  O   UNL d   1     -41.869-121.419 -53.534  0.00  0.00    -0.198 OA
BRANCH   8  11
ATOM     11  C   UNL d   1     -41.870-122.445 -54.048  0.00  0.00     0.135 A 
ATOM     12  S   UNL d   1     -42.099-122.044 -54.737  0.00  0.00    -0.074 SA
ATOM     13  C   UNL d   1     -42.456-122.581 -55.250  0.00  0.00     0.030 A 
ATOM     14  C   UNL d   1     -42.449-123.321 -54.876  0.00  0.00     0.008 A 
ATOM     15  C   UNL d   1     -42.094-123.247 -54.144  0.00  0.00     0.020 A 
BRANCH  13  16
ATOM     16  C   UNL d   1     -42.758-122.414 -55.985  0.00  0.00     0.006 C 
ATOM     17  C   UNL d   1     -42.575-121.691 -56.350  0.00  0.00     0.001 C 
ENDBRANCH  13  16
ENDBRANCH   8  11
ENDBRANCH   7   8
ENDBRANCH   2   7
BRANCH   1  18
ATOM     18  C   UNL d   1     -41.942-122.821 -49.700  0.00  0.00     0.112 A 
ATOM     19  S   UNL d   1     -42.667-123.137 -49.484  0.00  0.00    -0.047 SA
ATOM     20  C   UNL d   1     -42.639-123.318 -48.665  0.00  0.00     0.130 A 
ATOM     21  N   UNL d   1     -43.194-123.642 -48.150  0.00  0.00    -0.236 NA
ATOM     22  C   UNL d   1     -41.882-123.105 -48.390  0.00  0.00     0.106 A 
ATOM     23  C   UNL d   1     -42.993-123.754 -47.355  0.00  0.00     0.100 A 
ATOM     24  C   UNL d   1     -42.241-123.544 -47.077  0.00  0.00     0.022 A 
ATOM     25  C   UNL d   1     -41.689-123.221 -47.594  0.00  0.00     0.023 A 
ATOM     26  N   UNL d   1     -41.451-122.797 -49.034  0.00  0.00    -0.237 NA
ENDBRANCH   1  18
TORSDOF 5
ENDMDL
