MODEL 1
REMARK VINA RESULT:      37.8      0.000      0.000
REMARK  5 active torsions:
REMARK  status: ('A' for Active; 'I' for Inactive)
REMARK    1  A    between atoms: C_2  and  C_1 
REMARK       I    between atoms: N_3  and  C_1 
REMARK    2  A    between atoms: C_8  and  N_3 
REMARK    3  A    between atoms: C_5  and  C_4 
REMARK    4  A    between atoms: O_15  and  C_12 
REMARK    5  A    between atoms: O_16  and  C_13 
ROOT
ATOM      1  C   UNL d   1      13.876  13.524  -2.083  0.00  0.00     0.279 C 
ATOM      2  N   UNL d   1      14.263  13.524  -2.839  0.00  0.00    -0.208 NA
ATOM      3  O   UNL d   1      13.068  13.503  -2.039  0.00  0.00    -0.265 OA
ENDROOT
BRANCH   1   4
ATOM      4  C   UNL d   1      14.346  13.547  -1.406  0.00  0.00     0.062 A 
ATOM      5  C   UNL d   1      14.544  12.826  -1.042  0.00  0.00     0.029 A 
ATOM      6  C   UNL d   1      15.014  12.829  -0.364  0.00  0.00     0.096 A 
ATOM      7  C   UNL d   1      15.287  13.571  -0.049  0.00  0.00     0.048 A 
ATOM      8  C   UNL d   1      15.078  14.274  -0.426  0.00  0.00     0.096 A 
ATOM      9  C   UNL d   1      14.611  14.269  -1.100  0.00  0.00     0.029 A 
BRANCH   6  10
ATOM     10  O   UNL d   1      15.199  12.090  -0.018  0.00  0.00    -0.328 OA
ATOM     11  C   UNL d   1      15.975  11.780  -0.067  0.00  0.00     0.181 C 
ENDBRANCH   6  10
BRANCH   8  12
ATOM     12  O   UNL d   1      15.352  15.012  -0.109  0.00  0.00    -0.328 OA
ATOM     13  C   UNL d   1      16.012  15.382  -0.439  0.00  0.00     0.181 C 
ENDBRANCH   8  12
ENDBRANCH   1   4
BRANCH   2  14
ATOM     14  C   UNL d   1      13.780  13.501  -3.509  0.00  0.00     0.085 A 
ATOM     15  C   UNL d   1      13.838  12.853  -4.017  0.00  0.00     0.022 A 
ATOM     16  C   UNL d   1      13.400  12.788  -4.665  0.00  0.00     0.041 A 
ATOM     17  C   UNL d   1      12.841  13.410  -4.854  0.00  0.00     0.003 A 
ATOM     18  C   UNL d   1      12.776  14.062  -4.353  0.00  0.00     0.002 A 
ATOM     19  C   UNL d   1      13.252  14.098  -3.681  0.00  0.00     0.019 A 
BRANCH  16  20
ATOM     20  C   UNL d   1      13.475  12.118  -5.168  0.00  0.00     0.196 C 
ATOM     21  O   UNL d   1      14.225  11.806  -5.342  0.00  0.00    -0.287 OA
ATOM     22  C   UNL d   1      12.792  11.780  -5.482  0.00  0.00     0.045 C 
ENDBRANCH  16  20
ENDBRANCH   2  14
TORSDOF 5
ENDMDL
MODEL 2
REMARK VINA RESULT:      39.8      1.838      4.241
REMARK  5 active torsions:
REMARK  status: ('A' for Active; 'I' for Inactive)
REMARK    1  A    between atoms: C_2  and  C_1 
REMARK       I    between atoms: N_3  and  C_1 
REMARK    2  A    between atoms: C_8  and  N_3 
REMARK    3  A    between atoms: C_5  and  C_4 
REMARK    4  A    between atoms: O_15  and  C_12 
REMARK    5  A    between atoms: O_16  and  C_13 
ROOT
ATOM      1  C   UNL d   1      13.826  14.325  -3.503  0.00  0.00     0.279 C 
ATOM      2  N   UNL d   1      14.483  14.598  -3.039  0.00  0.00    -0.208 NA
ATOM      3  O   UNL d   1      13.390  14.849  -3.941  0.00  0.00    -0.265 OA
ENDROOT
BRANCH   1   4
ATOM      4  C   UNL d   1      13.652  13.519  -3.492  0.00  0.00     0.062 A 
ATOM      5  C   UNL d   1      13.302  13.185  -4.169  0.00  0.00     0.029 A 
ATOM      6  C   UNL d   1      13.120  12.380  -4.176  0.00  0.00     0.096 A 
ATOM      7  C   UNL d   1      13.294  11.907  -3.490  0.00  0.00     0.048 A 
ATOM      8  C   UNL d   1      13.641  12.260  -2.831  0.00  0.00     0.096 A 
ATOM      9  C   UNL d   1      13.821  13.060  -2.826  0.00  0.00     0.029 A 
BRANCH   6  10
ATOM     10  O   UNL d   1      12.769  12.069  -4.869  0.00  0.00    -0.328 OA
ATOM     11  C   UNL d   1      13.234  11.912  -5.547  0.00  0.00     0.181 C 
ENDBRANCH   6  10
BRANCH   8  12
ATOM     12  O   UNL d   1      13.814  11.785  -2.148  0.00  0.00    -0.328 OA
ATOM     13  C   UNL d   1      13.694  12.093  -1.392  0.00  0.00     0.181 C 
ENDBRANCH   8  12
ENDBRANCH   1   4
BRANCH   2  14
ATOM     14  C   UNL d   1      14.646  15.408  -3.060  0.00  0.00     0.085 A 
ATOM     15  C   UNL d   1      14.796  15.801  -2.349  0.00  0.00     0.022 A 
ATOM     16  C   UNL d   1      14.956  16.568  -2.319  0.00  0.00     0.041 A 
ATOM     17  C   UNL d   1      14.977  17.017  -3.050  0.00  0.00     0.003 A 
ATOM     18  C   UNL d   1      14.829  16.636  -3.765  0.00  0.00     0.002 A 
ATOM     19  C   UNL d   1      14.664  15.827  -3.759  0.00  0.00     0.019 A 
BRANCH  16  20
ATOM     20  C   UNL d   1      15.105  16.947  -1.583  0.00  0.00     0.196 C 
ATOM     21  O   UNL d   1      15.074  17.774  -1.523  0.00  0.00    -0.287 OA
ATOM     22  C   UNL d   1      15.283  16.480  -0.927  0.00  0.00     0.045 C 
ENDBRANCH  16  20
ENDBRANCH   2  14
TORSDOF 5
ENDMDL
