MODEL 1
REMARK VINA RESULT:       0.8      0.000      0.000
REMARK  10 active torsions:
REMARK  status: ('A' for Active; 'I' for Inactive)
REMARK    1  A    between atoms: N_2  and  S_1 
REMARK    2  A    between atoms: C_12  and  S_1 
REMARK    3  A    between atoms: C_4  and  N_2 
REMARK    4  A    between atoms: O_22  and  C_6 
REMARK    5  A    between atoms: C_7  and  N_15 
REMARK    6  A    between atoms: N_8  and  C_7 
REMARK       I    between atoms: C_10  and  N_8 
REMARK    7  A    between atoms: O_23  and  C_9 
REMARK    8  A    between atoms: C_20  and  C_10 
REMARK    9  A    between atoms: N_15  and  C_21 
REMARK   10  A    between atoms: C_26  and  C_20 
ROOT
ATOM      1  C   UNL d   1     -41.156-122.652 -51.067  0.00  0.00     0.105 A 
ATOM      2  C   UNL d   1     -41.170-121.844 -51.026  0.00  0.00     0.015 A 
ATOM      3  C   UNL d   1     -41.158-123.024 -51.793  0.00  0.00     0.015 A 
ATOM      4  C   UNL d   1     -41.189-121.768 -52.445  0.00  0.00     0.084 A 
ATOM      5  C   UNL d   1     -41.187-121.379 -51.697  0.00  0.00     0.020 A 
ATOM      6  C   UNL d   1     -41.174-122.579 -52.473  0.00  0.00     0.020 A 
ENDROOT
BRANCH   1   7
ATOM      7  S   UNL d   1     -41.139-123.126 -50.364  0.00  0.00     0.287 S 
ATOM      8  O   UNL d   1     -41.152-122.425 -49.906  0.00  0.00    -0.198 OA
ATOM      9  O   UNL d   1     -41.126-123.815 -50.824  0.00  0.00    -0.198 OA
BRANCH   7  10
ATOM     10  N   UNL d   1     -41.123-123.579 -49.661  0.00  0.00    -0.139 NA
BRANCH  10  11
ATOM     11  C   UNL d   1     -41.791-123.613 -49.156  0.00  0.00     0.182 A 
ATOM     12  N   UNL d   1     -41.694-123.563 -48.370  0.00  0.00    -0.185 NA
ATOM     13  C   UNL d   1     -42.339-123.594 -47.846  0.00  0.00     0.274 A 
ATOM     14  N   UNL d   1     -43.089-123.677 -48.151  0.00  0.00    -0.181 NA
ATOM     15  C   UNL d   1     -43.218-123.730 -48.945  0.00  0.00     0.185 A 
ATOM     16  C   UNL d   1     -42.529-123.696 -49.484  0.00  0.00     0.084 A 
BRANCH  13  17
ATOM     17  O   UNL d   1     -42.240-123.542 -47.020  0.00  0.00    -0.297 OA
ATOM     18  C   UNL d   1     -41.495-123.396 -46.685  0.00  0.00     0.185 C 
ENDBRANCH  13  17
BRANCH  15  19
ATOM     19  O   UNL d   1     -43.995-123.814 -49.227  0.00  0.00    -0.312 OA
ATOM     20  C   UNL d   1     -44.378-123.158 -49.554  0.00  0.00     0.183 C 
ENDBRANCH  15  19
ENDBRANCH  10  11
ENDBRANCH   7  10
ENDBRANCH   1   7
BRANCH   4  21
ATOM     21  N   UNL d   1     -41.205-121.330 -53.157  0.00  0.00    -0.217 NA
BRANCH  21  22
ATOM     22  C   UNL d   1     -41.850-121.427 -53.662  0.00  0.00     0.223 C 
ATOM     23  S   UNL d   1     -42.605-121.158 -53.452  0.00  0.00    -0.037 SA
BRANCH  22  24
ATOM     24  N   UNL d   1     -41.738-121.801 -54.389  0.00  0.00    -0.179 NA
ATOM     25  C   UNL d   1     -42.276-121.684 -55.012  0.00  0.00     0.281 C 
ATOM     26  O   UNL d   1     -42.930-121.188 -54.900  0.00  0.00    -0.265 OA
BRANCH  25  27
ATOM     27  C   UNL d   1     -42.163-122.059 -55.738  0.00  0.00     0.063 C 
BRANCH  27  28
ATOM     28  C   UNL d   1     -42.104-122.882 -55.787  0.00  0.00     0.005 C 
ATOM     29  C   UNL d   1     -42.779-123.382 -55.689  0.00  0.00     0.000 C 
ATOM     30  C   UNL d   1     -41.370-123.221 -55.936  0.00  0.00     0.000 C 
ENDBRANCH  27  28
ENDBRANCH  25  27
ENDBRANCH  22  24
ENDBRANCH  21  22
ENDBRANCH   4  21
TORSDOF 10
ENDMDL
MODEL 2
REMARK VINA RESULT:       1.4      0.503      1.451
REMARK  10 active torsions:
REMARK  status: ('A' for Active; 'I' for Inactive)
REMARK    1  A    between atoms: N_2  and  S_1 
REMARK    2  A    between atoms: C_12  and  S_1 
REMARK    3  A    between atoms: C_4  and  N_2 
REMARK    4  A    between atoms: O_22  and  C_6 
REMARK    5  A    between atoms: C_7  and  N_15 
REMARK    6  A    between atoms: N_8  and  C_7 
REMARK       I    between atoms: C_10  and  N_8 
REMARK    7  A    between atoms: O_23  and  C_9 
REMARK    8  A    between atoms: C_20  and  C_10 
REMARK    9  A    between atoms: N_15  and  C_21 
REMARK   10  A    between atoms: C_26  and  C_20 
ROOT
ATOM      1  C   UNL d   1     -41.190-122.649 -51.103  0.00  0.00     0.105 A 
ATOM      2  C   UNL d   1     -41.201-121.841 -51.045  0.00  0.00     0.015 A 
ATOM      3  C   UNL d   1     -41.211-123.005 -51.836  0.00  0.00     0.015 A 
ATOM      4  C   UNL d   1     -41.254-121.736 -52.461  0.00  0.00     0.084 A 
ATOM      5  C   UNL d   1     -41.232-121.363 -51.705  0.00  0.00     0.020 A 
ATOM      6  C   UNL d   1     -41.243-122.546 -52.507  0.00  0.00     0.020 A 
ENDROOT
BRANCH   1   7
ATOM      7  S   UNL d   1     -41.158-123.138 -50.411  0.00  0.00     0.287 S 
ATOM      8  O   UNL d   1     -41.131-122.446 -49.940  0.00  0.00    -0.198 OA
ATOM      9  O   UNL d   1     -41.185-123.817 -50.885  0.00  0.00    -0.198 OA
BRANCH   7  10
ATOM     10  N   UNL d   1     -41.125-123.606 -49.719  0.00  0.00    -0.139 NA
BRANCH  10  11
ATOM     11  C   UNL d   1     -41.748-123.588 -49.159  0.00  0.00     0.182 A 
ATOM     12  N   UNL d   1     -42.500-123.662 -49.402  0.00  0.00    -0.185 NA
ATOM     13  C   UNL d   1     -43.137-123.648 -48.869  0.00  0.00     0.274 A 
ATOM     14  N   UNL d   1     -42.982-123.556 -48.075  0.00  0.00    -0.181 NA
ATOM     15  C   UNL d   1     -42.229-123.479 -47.798  0.00  0.00     0.185 A 
ATOM     16  C   UNL d   1     -41.569-123.495 -48.372  0.00  0.00     0.084 A 
BRANCH  13  17
ATOM     17  O   UNL d   1     -43.928-123.725 -49.122  0.00  0.00    -0.297 OA
ATOM     18  C   UNL d   1     -44.167-123.458 -49.870  0.00  0.00     0.185 C 
ENDBRANCH  13  17
BRANCH  15  19
ATOM     19  O   UNL d   1     -42.102-123.386 -46.982  0.00  0.00    -0.312 OA
ATOM     20  C   UNL d   1     -41.875-122.646 -46.691  0.00  0.00     0.183 C 
ENDBRANCH  15  19
ENDBRANCH  10  11
ENDBRANCH   7  10
ENDBRANCH   1   7
BRANCH   4  21
ATOM     21  N   UNL d   1     -41.286-121.282 -53.163  0.00  0.00    -0.217 NA
BRANCH  21  22
ATOM     22  C   UNL d   1     -41.965-121.329 -53.628  0.00  0.00     0.223 C 
ATOM     23  S   UNL d   1     -42.579-120.776 -53.550  0.00  0.00    -0.037 SA
BRANCH  22  24
ATOM     24  N   UNL d   1     -42.034-121.938 -54.180  0.00  0.00    -0.179 NA
ATOM     25  C   UNL d   1     -41.923-121.790 -54.990  0.00  0.00     0.281 C 
ATOM     26  O   UNL d   1     -41.741-121.023 -55.244  0.00  0.00    -0.265 OA
BRANCH  25  27
ATOM     27  C   UNL d   1     -41.992-122.401 -55.540  0.00  0.00     0.063 C 
BRANCH  27  28
ATOM     28  C   UNL d   1     -42.699-122.820 -55.623  0.00  0.00     0.005 C 
ATOM     29  C   UNL d   1     -42.845-123.534 -55.193  0.00  0.00     0.000 C 
ATOM     30  C   UNL d   1     -43.274-122.535 -56.137  0.00  0.00     0.000 C 
ENDBRANCH  27  28
ENDBRANCH  25  27
ENDBRANCH  22  24
ENDBRANCH  21  22
ENDBRANCH   4  21
TORSDOF 10
ENDMDL
MODEL 3
REMARK VINA RESULT:       2.4      1.284      6.121
REMARK  10 active torsions:
REMARK  status: ('A' for Active; 'I' for Inactive)
REMARK    1  A    between atoms: N_2  and  S_1 
REMARK    2  A    between atoms: C_12  and  S_1 
REMARK    3  A    between atoms: C_4  and  N_2 
REMARK    4  A    between atoms: O_22  and  C_6 
REMARK    5  A    between atoms: C_7  and  N_15 
REMARK    6  A    between atoms: N_8  and  C_7 
REMARK       I    between atoms: C_10  and  N_8 
REMARK    7  A    between atoms: O_23  and  C_9 
REMARK    8  A    between atoms: C_20  and  C_10 
REMARK    9  A    between atoms: N_15  and  C_21 
REMARK   10  A    between atoms: C_26  and  C_20 
ROOT
ATOM      1  C   UNL d   1     -41.287-122.382 -52.200  0.00  0.00     0.105 A 
ATOM      2  C   UNL d   1     -41.124-123.176 -52.217  0.00  0.00     0.015 A 
ATOM      3  C   UNL d   1     -41.472-122.019 -51.493  0.00  0.00     0.015 A 
ATOM      4  C   UNL d   1     -41.330-123.252 -50.812  0.00  0.00     0.084 A 
ATOM      5  C   UNL d   1     -41.139-123.632 -51.540  0.00  0.00     0.020 A 
ATOM      6  C   UNL d   1     -41.491-122.456 -50.808  0.00  0.00     0.020 A 
ENDROOT
BRANCH   1   7
ATOM      7  S   UNL d   1     -41.270-121.917 -52.908  0.00  0.00     0.287 S 
ATOM      8  O   UNL d   1     -41.381-121.229 -52.444  0.00  0.00    -0.198 OA
ATOM      9  O   UNL d   1     -41.160-122.602 -53.360  0.00  0.00    -0.198 OA
BRANCH   7  10
ATOM     10  N   UNL d   1     -41.255-121.444 -53.598  0.00  0.00    -0.139 NA
BRANCH  10  11
ATOM     11  C   UNL d   1     -41.619-121.706 -54.306  0.00  0.00     0.182 A 
ATOM     12  N   UNL d   1     -41.405-121.388 -55.000  0.00  0.00    -0.185 NA
ATOM     13  C   UNL d   1     -41.749-121.628 -55.718  0.00  0.00     0.274 A 
ATOM     14  N   UNL d   1     -42.323-122.206 -55.703  0.00  0.00    -0.181 NA
ATOM     15  C   UNL d   1     -42.561-122.547 -55.012  0.00  0.00     0.185 A 
ATOM     16  C   UNL d   1     -42.188-122.283 -54.266  0.00  0.00     0.084 A 
BRANCH  13  17
ATOM     17  O   UNL d   1     -41.526-121.296 -56.449  0.00  0.00    -0.297 OA
ATOM     18  C   UNL d   1     -42.073-120.888 -56.921  0.00  0.00     0.185 C 
ENDBRANCH  13  17
BRANCH  15  19
ATOM     19  O   UNL d   1     -43.148-123.135 -55.029  0.00  0.00    -0.312 OA
ATOM     20  C   UNL d   1     -43.072-123.764 -55.560  0.00  0.00     0.183 C 
ENDBRANCH  15  19
ENDBRANCH  10  11
ENDBRANCH   7  10
ENDBRANCH   1   7
BRANCH   4  21
ATOM     21  N   UNL d   1     -41.356-123.683 -50.096  0.00  0.00    -0.217 NA
BRANCH  21  22
ATOM     22  C   UNL d   1     -41.909-123.463 -49.526  0.00  0.00     0.223 C 
ATOM     23  S   UNL d   1     -42.686-123.260 -49.736  0.00  0.00    -0.037 SA
BRANCH  22  24
ATOM     24  N   UNL d   1     -41.684-123.444 -48.733  0.00  0.00    -0.179 NA
ATOM     25  C   UNL d   1     -42.233-123.619 -48.133  0.00  0.00     0.281 C 
ATOM     26  O   UNL d   1     -43.012-123.815 -48.336  0.00  0.00    -0.265 OA
BRANCH  25  27
ATOM     27  C   UNL d   1     -42.005-123.600 -47.340  0.00  0.00     0.063 C 
BRANCH  27  28
ATOM     28  C   UNL d   1     -42.049-122.901 -46.902  0.00  0.00     0.005 C 
ATOM     29  C   UNL d   1     -41.355-122.474 -46.676  0.00  0.00     0.000 C 
ATOM     30  C   UNL d   1     -42.787-122.614 -46.681  0.00  0.00     0.000 C 
ENDBRANCH  27  28
ENDBRANCH  25  27
ENDBRANCH  22  24
ENDBRANCH  21  22
ENDBRANCH   4  21
TORSDOF 10
ENDMDL
