MODEL 1
REMARK VINA RESULT:      39.5      0.000      0.000
REMARK  1 active torsions:
REMARK  status: ('A' for Active; 'I' for Inactive)
REMARK    1  A    between atoms: C_3  and  C_1 
REMARK       I    between atoms: N_2  and  C_3 
ROOT
ATOM      1  N   UNL d   1      13.832  13.450  -2.863  0.00  0.00    -0.303 N 
ATOM      2  C   UNL d   1      14.164  13.650  -2.114  0.00  0.00     0.244 C 
ATOM      3  C   UNL d   1      13.686  12.632  -2.993  0.00  0.00     0.088 A 
ATOM      4  C   UNL d   1      13.368  14.067  -4.159  0.00  0.00     0.037 A 
ATOM      5  C   UNL d   1      13.688  14.093  -3.391  0.00  0.00     0.051 A 
ATOM      6  C   UNL d   1      13.405  13.115  -3.806  0.00  0.00     0.028 A 
ATOM      7  C   UNL d   1      13.109  12.598  -4.381  0.00  0.00     0.002 A 
ATOM      8  C   UNL d   1      13.364  12.261  -3.672  0.00  0.00     0.023 A 
ATOM      9  O   UNL d   1      14.314  14.402  -1.956  0.00  0.00    -0.271 OA
ATOM     10  C   UNL d   1      13.117  13.405  -4.585  0.00  0.00     0.006 A 
ATOM     11  C   UNL d   1      13.318  14.847  -4.497  0.00  0.00     0.006 C 
ATOM     12  C   UNL d   1      12.813  12.771  -5.149  0.00  0.00     0.000 C 
ATOM     13  C   UNL d   1      12.964  11.779  -4.509  0.00  0.00     0.000 C 
ENDROOT
BRANCH   2  14
ATOM     14  C   UNL d   1      14.315  13.078  -1.590  0.00  0.00     0.111 A 
ATOM     15  C   UNL d   1      14.973  12.453  -0.435  0.00  0.00     0.025 A 
ATOM     16  C   UNL d   1      14.482  12.513  -1.052  0.00  0.00     0.074 A 
ATOM     17  C   UNL d   1      15.514  12.915  -0.073  0.00  0.00     0.002 C 
ATOM     18  C   UNL d   1      14.984  11.779  -0.014  0.00  0.00     0.002 C 
ATOM     19  C   UNL d   1      14.500  11.855  -0.633  0.00  0.00     0.012 C 
ATOM     20  C   UNL d   1      13.948  12.048  -1.403  0.00  0.00    -0.023 A 
ATOM     21  C   UNL d   1      14.864  13.205  -1.017  0.00  0.00     0.172 A 
ATOM     22  C   UNL d   1      13.789  12.611  -1.931  0.00  0.00    -0.018 A 
ATOM     23  C   UNL d   1      14.703  13.774  -1.551  0.00  0.00     0.024 A 
ATOM     24  O   UNL d   1      15.420  13.515  -0.546  0.00  0.00    -0.291 OA
ENDBRANCH   2  14
TORSDOF 1
ENDMDL
