MODEL 1
REMARK VINA RESULT:      -7.4      0.000      0.000
REMARK  9 active torsions:
REMARK  status: ('A' for Active; 'I' for Inactive)
REMARK       I    between atoms: N_2  and  C_1 
REMARK    1  A    between atoms: C_16  and  C_1 
REMARK    2  A    between atoms: C_8  and  N_2 
REMARK    3  A    between atoms: N_4  and  C_3 
REMARK    4  A    between atoms: C_17  and  N_4 
REMARK    5  A    between atoms: C_18  and  N_4 
REMARK    6  A    between atoms: C_12  and  O_14 
REMARK    7  A    between atoms: O_14  and  C_21 
REMARK    8  A    between atoms: C_23  and  C_16 
REMARK    9  A    between atoms: C_21  and  C_23 
ROOT
ATOM      1  C   UNL d   1      50.103  34.484  52.415  0.00  0.00     0.328 C 
ATOM      2  N   UNL d   1      50.838  34.239  52.726  0.00  0.00    -0.365 NA
ATOM      3  O   UNL d   1      49.933  34.350  51.625  0.00  0.00    -0.251 OA
ENDROOT
BRANCH   1   4
ATOM      4  C   UNL d   1      49.557  34.856  52.897  0.00  0.00     0.078 C 
BRANCH   4   5
ATOM      5  C   UNL d   1      48.927  35.265  52.571  0.00  0.00     0.033 C 
BRANCH   5   6
ATOM      6  C   UNL d   1      48.320  35.568  53.053  0.00  0.00     0.123 C 
BRANCH   6   7
ATOM      7  O   UNL d   1      47.900  36.238  52.816  0.00  0.00    -0.305 OA
BRANCH   7   8
ATOM      8  C   UNL d   1      47.170  36.394  53.161  0.00  0.00     0.100 A 
ATOM      9  C   UNL d   1      46.487  36.475  52.666  0.00  0.00     0.025 A 
ATOM     10  C   UNL d   1      45.747  36.633  53.021  0.00  0.00     0.002 A 
ATOM     11  C   UNL d   1      45.094  36.709  52.530  0.00  0.00     0.000 C 
ATOM     12  C   UNL d   1      45.673  36.709  53.833  0.00  0.00     0.000 A 
ATOM     13  C   UNL d   1      46.337  36.631  54.317  0.00  0.00     0.002 A 
ATOM     14  C   UNL d   1      47.095  36.471  53.985  0.00  0.00     0.025 A 
ENDBRANCH   7   8
ENDBRANCH   6   7
ENDBRANCH   5   6
ENDBRANCH   4   5
ENDBRANCH   1   4
BRANCH   2  15
ATOM     15  C   UNL d   1      51.559  34.001  53.040  0.00  0.00     0.135 A 
ATOM     16  C   UNL d   1      51.673  33.228  53.311  0.00  0.00     0.034 A 
ATOM     17  C   UNL d   1      52.387  33.001  53.620  0.00  0.00     0.020 A 
ATOM     18  C   UNL d   1      53.012  33.531  53.669  0.00  0.00     0.064 A 
ATOM     19  C   UNL d   1      52.910  34.314  53.398  0.00  0.00     0.020 A 
ATOM     20  C   UNL d   1      52.185  34.552  53.083  0.00  0.00     0.034 A 
BRANCH  18  21
ATOM     21  N   UNL d   1      53.743  33.303  53.983  0.00  0.00    -0.304 N 
BRANCH  21  22
ATOM     22  C   UNL d   1      54.069  33.737  54.617  0.00  0.00     0.080 C 
ATOM     23  C   UNL d   1      54.433  33.344  55.244  0.00  0.00     0.021 C 
ENDBRANCH  21  22
BRANCH  21  24
ATOM     24  C   UNL d   1      54.152  32.658  53.682  0.00  0.00     0.080 C 
ATOM     25  C   UNL d   1      54.946  32.732  53.489  0.00  0.00     0.021 C 
ENDBRANCH  21  24
ENDBRANCH  18  21
ENDBRANCH   2  15
TORSDOF 9
ENDMDL
MODEL 2
REMARK VINA RESULT:      -6.8      1.429      6.746
REMARK  9 active torsions:
REMARK  status: ('A' for Active; 'I' for Inactive)
REMARK       I    between atoms: N_2  and  C_1 
REMARK    1  A    between atoms: C_16  and  C_1 
REMARK    2  A    between atoms: C_8  and  N_2 
REMARK    3  A    between atoms: N_4  and  C_3 
REMARK    4  A    between atoms: C_17  and  N_4 
REMARK    5  A    between atoms: C_18  and  N_4 
REMARK    6  A    between atoms: C_12  and  O_14 
REMARK    7  A    between atoms: O_14  and  C_21 
REMARK    8  A    between atoms: C_23  and  C_16 
REMARK    9  A    between atoms: C_21  and  C_23 
ROOT
ATOM      1  C   UNL d   1      50.252  34.469  51.999  0.00  0.00     0.328 C 
ATOM      2  N   UNL d   1      49.507  34.822  52.136  0.00  0.00    -0.365 NA
ATOM      3  O   UNL d   1      50.465  34.255  51.237  0.00  0.00    -0.251 OA
ENDROOT
BRANCH   1   4
ATOM      4  C   UNL d   1      50.765  34.339  52.622  0.00  0.00     0.078 C 
BRANCH   4   5
ATOM      5  C   UNL d   1      51.529  34.079  52.483  0.00  0.00     0.033 C 
BRANCH   5   6
ATOM      6  C   UNL d   1      51.971  33.712  53.085  0.00  0.00     0.123 C 
BRANCH   6   7
ATOM      7  O   UNL d   1      52.791  33.807  53.112  0.00  0.00    -0.305 OA
BRANCH   7   8
ATOM      8  C   UNL d   1      53.236  33.294  53.576  0.00  0.00     0.100 A 
ATOM      9  C   UNL d   1      53.694  33.608  54.217  0.00  0.00     0.025 A 
ATOM     10  C   UNL d   1      54.144  33.083  54.685  0.00  0.00     0.002 A 
ATOM     11  C   UNL d   1      54.583  33.400  55.303  0.00  0.00     0.000 C 
ATOM     12  C   UNL d   1      54.150  32.278  54.536  0.00  0.00     0.000 A 
ATOM     13  C   UNL d   1      53.706  31.970  53.913  0.00  0.00     0.002 A 
ATOM     14  C   UNL d   1      53.242  32.477  53.424  0.00  0.00     0.025 A 
ENDBRANCH   7   8
ENDBRANCH   6   7
ENDBRANCH   5   6
ENDBRANCH   4   5
ENDBRANCH   1   4
BRANCH   2  15
ATOM     15  C   UNL d   1      48.777  35.169  52.279  0.00  0.00     0.135 A 
ATOM     16  C   UNL d   1      48.628  35.576  52.983  0.00  0.00     0.034 A 
ATOM     17  C   UNL d   1      47.904  35.916  53.117  0.00  0.00     0.020 A 
ATOM     18  C   UNL d   1      47.305  35.864  52.558  0.00  0.00     0.064 A 
ATOM     19  C   UNL d   1      47.443  35.455  51.843  0.00  0.00     0.020 A 
ATOM     20  C   UNL d   1      48.177  35.106  51.701  0.00  0.00     0.034 A 
BRANCH  18  21
ATOM     21  N   UNL d   1      46.564  36.209  52.690  0.00  0.00    -0.304 N 
BRANCH  21  22
ATOM     22  C   UNL d   1      46.459  36.709  53.350  0.00  0.00     0.080 C 
ATOM     23  C   UNL d   1      45.807  36.608  53.846  0.00  0.00     0.021 C 
ENDBRANCH  21  22
BRANCH  21  24
ATOM     24  C   UNL d   1      45.933  36.068  52.184  0.00  0.00     0.080 C 
ATOM     25  C   UNL d   1      45.379  36.657  52.049  0.00  0.00     0.021 C 
ENDBRANCH  21  24
ENDBRANCH  18  21
ENDBRANCH   2  15
TORSDOF 9
ENDMDL
MODEL 3
REMARK VINA RESULT:      -5.9      1.673      2.175
REMARK  9 active torsions:
REMARK  status: ('A' for Active; 'I' for Inactive)
REMARK       I    between atoms: N_2  and  C_1 
REMARK    1  A    between atoms: C_16  and  C_1 
REMARK    2  A    between atoms: C_8  and  N_2 
REMARK    3  A    between atoms: N_4  and  C_3 
REMARK    4  A    between atoms: C_17  and  N_4 
REMARK    5  A    between atoms: C_18  and  N_4 
REMARK    6  A    between atoms: C_12  and  O_14 
REMARK    7  A    between atoms: O_14  and  C_21 
REMARK    8  A    between atoms: C_23  and  C_16 
REMARK    9  A    between atoms: C_21  and  C_23 
ROOT
ATOM      1  C   UNL d   1      51.547  34.069  52.815  0.00  0.00     0.328 C 
ATOM      2  N   UNL d   1      51.930  33.342  52.963  0.00  0.00    -0.365 NA
ATOM      3  O   UNL d   1      51.976  34.700  52.517  0.00  0.00    -0.251 OA
ENDROOT
BRANCH   1   4
ATOM      4  C   UNL d   1      50.748  34.149  52.969  0.00  0.00     0.078 C 
BRANCH   4   5
ATOM      5  C   UNL d   1      50.287  34.652  52.515  0.00  0.00     0.033 C 
BRANCH   5   6
ATOM      6  C   UNL d   1      49.529  34.883  52.769  0.00  0.00     0.123 C 
BRANCH   6   7
ATOM      7  O   UNL d   1      48.980  35.170  52.224  0.00  0.00    -0.305 OA
BRANCH   7   8
ATOM      8  C   UNL d   1      48.315  35.568  52.500  0.00  0.00     0.100 A 
ATOM      9  C   UNL d   1      47.634  35.633  51.999  0.00  0.00     0.025 A 
ATOM     10  C   UNL d   1      46.961  36.038  52.285  0.00  0.00     0.002 A 
ATOM     11  C   UNL d   1      46.309  36.094  51.789  0.00  0.00     0.000 C 
ATOM     12  C   UNL d   1      46.950  36.369  53.034  0.00  0.00     0.000 A 
ATOM     13  C   UNL d   1      47.611  36.307  53.523  0.00  0.00     0.002 A 
ATOM     14  C   UNL d   1      48.303  35.904  53.260  0.00  0.00     0.025 A 
ENDBRANCH   7   8
ENDBRANCH   6   7
ENDBRANCH   5   6
ENDBRANCH   4   5
ENDBRANCH   1   4
BRANCH   2  15
ATOM     15  C   UNL d   1      52.300  32.624  53.111  0.00  0.00     0.135 A 
ATOM     16  C   UNL d   1      52.021  31.922  52.773  0.00  0.00     0.034 A 
ATOM     17  C   UNL d   1      52.392  31.217  52.924  0.00  0.00     0.020 A 
ATOM     18  C   UNL d   1      53.050  31.184  53.413  0.00  0.00     0.064 A 
ATOM     19  C   UNL d   1      53.342  31.885  53.760  0.00  0.00     0.020 A 
ATOM     20  C   UNL d   1      52.969  32.606  53.611  0.00  0.00     0.034 A 
BRANCH  18  21
ATOM     21  N   UNL d   1      53.432  30.466  53.570  0.00  0.00    -0.304 N 
BRANCH  21  22
ATOM     22  C   UNL d   1      52.984  29.817  53.844  0.00  0.00     0.080 C 
ATOM     23  C   UNL d   1      53.294  29.317  54.423  0.00  0.00     0.021 C 
ENDBRANCH  21  22
BRANCH  21  24
ATOM     24  C   UNL d   1      54.241  30.382  53.459  0.00  0.00     0.080 C 
ATOM     25  C   UNL d   1      54.544  29.674  53.178  0.00  0.00     0.021 C 
ENDBRANCH  21  24
ENDBRANCH  18  21
ENDBRANCH   2  15
TORSDOF 9
ENDMDL
