MODEL 1
REMARK VINA RESULT:      -7.1      0.000      0.000
REMARK  4 active torsions:
REMARK  status: ('A' for Active; 'I' for Inactive)
REMARK    1  A    between atoms: C_5  and  C_1 
REMARK    2  A    between atoms: C_9  and  C_6 
REMARK    3  A    between atoms: C_10  and  C_9 
REMARK    4  A    between atoms: C_11  and  C_10 
ROOT
ATOM      1  C   UNL d   1      53.034  30.581  53.307  0.00  0.00     0.169 A 
ATOM      2  N   UNL d   1      52.639  31.104  52.812  0.00  0.00    -0.142 NA
ATOM      3  C   UNL d   1      53.660  30.990  53.661  0.00  0.00     0.048 A 
ATOM      4  N   UNL d   1      53.012  31.838  52.853  0.00  0.00    -0.148 NA
ATOM      5  C   UNL d   1      53.646  31.765  53.381  0.00  0.00     0.105 A 
ENDROOT
BRANCH   5   6
ATOM      6  C   UNL d   1      54.174  32.377  53.588  0.00  0.00     0.021 C 
BRANCH   6   7
ATOM      7  C   UNL d   1      54.140  32.721  54.334  0.00  0.00     0.002 C 
BRANCH   7   8
ATOM      8  C   UNL d   1      54.675  33.309  54.543  0.00  0.00     0.000 C 
ATOM      9  C   UNL d   1      54.723  33.558  55.330  0.00  0.00     0.000 C 
ENDBRANCH   7   8
ENDBRANCH   6   7
ENDBRANCH   5   6
BRANCH   1  10
ATOM     10  C   UNL d   1      52.844  29.789  53.430  0.00  0.00     0.231 C 
ATOM     11  O   UNL d   1      52.339  29.403  52.904  0.00  0.00    -0.643 OA
ATOM     12  O   UNL d   1      53.156  29.381  54.078  0.00  0.00    -0.643 OA
ENDBRANCH   1  10
TORSDOF 4
ENDMDL
MODEL 2
REMARK VINA RESULT:      -7.0      2.419      3.573
REMARK  4 active torsions:
REMARK  status: ('A' for Active; 'I' for Inactive)
REMARK    1  A    between atoms: C_5  and  C_1 
REMARK    2  A    between atoms: C_9  and  C_6 
REMARK    3  A    between atoms: C_10  and  C_9 
REMARK    4  A    between atoms: C_11  and  C_10 
ROOT
ATOM      1  C   UNL d   1      54.485  33.273  54.483  0.00  0.00     0.169 A 
ATOM      2  N   UNL d   1      54.967  33.132  53.833  0.00  0.00    -0.142 NA
ATOM      3  C   UNL d   1      53.844  32.753  54.442  0.00  0.00     0.048 A 
ATOM      4  N   UNL d   1      54.633  32.526  53.384  0.00  0.00    -0.148 NA
ATOM      5  C   UNL d   1      53.935  32.292  53.764  0.00  0.00     0.105 A 
ENDROOT
BRANCH   5   6
ATOM      6  C   UNL d   1      53.419  31.692  53.499  0.00  0.00     0.021 C 
BRANCH   6   7
ATOM      7  C   UNL d   1      53.592  30.902  53.644  0.00  0.00     0.002 C 
BRANCH   7   8
ATOM      8  C   UNL d   1      53.124  30.310  53.317  0.00  0.00     0.000 C 
ATOM      9  C   UNL d   1      53.129  29.554  53.652  0.00  0.00     0.000 C 
ENDBRANCH   7   8
ENDBRANCH   6   7
ENDBRANCH   5   6
BRANCH   1  10
ATOM     10  C   UNL d   1      54.616  33.833  55.073  0.00  0.00     0.231 C 
ATOM     11  O   UNL d   1      55.295  33.786  55.539  0.00  0.00    -0.643 OA
ATOM     12  O   UNL d   1      54.070  34.441  55.198  0.00  0.00    -0.643 OA
ENDBRANCH   1  10
TORSDOF 4
ENDMDL
MODEL 3
REMARK VINA RESULT:      -6.9      3.168      3.999
REMARK  4 active torsions:
REMARK  status: ('A' for Active; 'I' for Inactive)
REMARK    1  A    between atoms: C_5  and  C_1 
REMARK    2  A    between atoms: C_9  and  C_6 
REMARK    3  A    between atoms: C_10  and  C_9 
REMARK    4  A    between atoms: C_11  and  C_10 
ROOT
ATOM      1  C   UNL d   1      53.970  34.066  54.839  0.00  0.00     0.169 A 
ATOM      2  N   UNL d   1      53.646  34.758  55.141  0.00  0.00    -0.142 NA
ATOM      3  C   UNL d   1      53.623  33.926  54.101  0.00  0.00     0.048 A 
ATOM      4  N   UNL d   1      53.099  35.052  54.599  0.00  0.00    -0.148 NA
ATOM      5  C   UNL d   1      53.086  34.534  53.953  0.00  0.00     0.105 A 
ENDROOT
BRANCH   5   6
ATOM      6  C   UNL d   1      52.609  34.621  53.274  0.00  0.00     0.021 C 
BRANCH   6   7
ATOM      7  C   UNL d   1      51.841  34.328  53.267  0.00  0.00     0.002 C 
BRANCH   7   8
ATOM      8  C   UNL d   1      51.419  34.294  52.561  0.00  0.00     0.000 C 
ATOM      9  C   UNL d   1      50.596  34.222  52.581  0.00  0.00     0.000 C 
ENDBRANCH   7   8
ENDBRANCH   6   7
ENDBRANCH   5   6
BRANCH   1  10
ATOM     10  C   UNL d   1      54.538  33.595  55.203  0.00  0.00     0.231 C 
ATOM     11  O   UNL d   1      54.348  32.823  55.425  0.00  0.00    -0.643 OA
ATOM     12  O   UNL d   1      55.296  33.892  55.346  0.00  0.00    -0.643 OA
ENDBRANCH   1  10
TORSDOF 4
ENDMDL
MODEL 4
REMARK VINA RESULT:      -6.6      2.423      2.767
REMARK  4 active torsions:
REMARK  status: ('A' for Active; 'I' for Inactive)
REMARK    1  A    between atoms: C_5  and  C_1 
REMARK    2  A    between atoms: C_9  and  C_6 
REMARK    3  A    between atoms: C_10  and  C_9 
REMARK    4  A    between atoms: C_11  and  C_10 
ROOT
ATOM      1  C   UNL d   1      52.043  33.301  53.002  0.00  0.00     0.169 A 
ATOM      2  N   UNL d   1      52.442  32.720  52.580  0.00  0.00    -0.142 NA
ATOM      3  C   UNL d   1      52.437  33.407  53.722  0.00  0.00     0.048 A 
ATOM      4  N   UNL d   1      53.082  32.460  53.029  0.00  0.00    -0.148 NA
ATOM      5  C   UNL d   1      53.078  32.887  53.738  0.00  0.00     0.105 A 
ENDROOT
BRANCH   5   6
ATOM      6  C   UNL d   1      53.631  32.801  54.357  0.00  0.00     0.021 C 
BRANCH   6   7
ATOM      7  C   UNL d   1      54.203  33.377  54.486  0.00  0.00     0.002 C 
BRANCH   7   8
ATOM      8  C   UNL d   1      54.705  33.323  55.135  0.00  0.00     0.000 C 
ATOM      9  C   UNL d   1      55.331  33.857  55.213  0.00  0.00     0.000 C 
ENDBRANCH   7   8
ENDBRANCH   6   7
ENDBRANCH   5   6
BRANCH   1  10
ATOM     10  C   UNL d   1      51.371  33.708  52.755  0.00  0.00     0.231 C 
ATOM     11  O   UNL d   1      50.661  33.611  53.163  0.00  0.00    -0.643 OA
ATOM     12  O   UNL d   1      51.407  34.212  52.100  0.00  0.00    -0.643 OA
ENDBRANCH   1  10
TORSDOF 4
ENDMDL
MODEL 5
REMARK VINA RESULT:      -6.5      2.847      3.640
REMARK  4 active torsions:
REMARK  status: ('A' for Active; 'I' for Inactive)
REMARK    1  A    between atoms: C_5  and  C_1 
REMARK    2  A    between atoms: C_9  and  C_6 
REMARK    3  A    between atoms: C_10  and  C_9 
REMARK    4  A    between atoms: C_11  and  C_10 
ROOT
ATOM      1  C   UNL d   1      54.075  33.453  54.448  0.00  0.00     0.169 A 
ATOM      2  N   UNL d   1      54.108  32.947  53.802  0.00  0.00    -0.142 NA
ATOM      3  C   UNL d   1      53.492  34.020  54.297  0.00  0.00     0.048 A 
ATOM      4  N   UNL d   1      53.551  33.192  53.246  0.00  0.00    -0.148 NA
ATOM      5  C   UNL d   1      53.168  33.859  53.555  0.00  0.00     0.105 A 
ENDROOT
BRANCH   5   6
ATOM      6  C   UNL d   1      52.562  34.287  53.175  0.00  0.00     0.021 C 
BRANCH   6   7
ATOM      7  C   UNL d   1      51.792  33.999  53.168  0.00  0.00     0.002 C 
BRANCH   7   8
ATOM      8  C   UNL d   1      51.210  34.388  52.736  0.00  0.00     0.000 C 
ATOM      9  C   UNL d   1      50.428  34.122  52.773  0.00  0.00     0.000 C 
ENDBRANCH   7   8
ENDBRANCH   6   7
ENDBRANCH   5   6
BRANCH   1  10
ATOM     10  C   UNL d   1      54.538  33.406  55.127  0.00  0.00     0.231 C 
ATOM     11  O   UNL d   1      54.370  32.835  55.699  0.00  0.00    -0.643 OA
ATOM     12  O   UNL d   1      55.170  33.928  55.237  0.00  0.00    -0.643 OA
ENDBRANCH   1  10
TORSDOF 4
ENDMDL
MODEL 6
REMARK VINA RESULT:      -6.5      2.032      3.097
REMARK  4 active torsions:
REMARK  status: ('A' for Active; 'I' for Inactive)
REMARK    1  A    between atoms: C_5  and  C_1 
REMARK    2  A    between atoms: C_9  and  C_6 
REMARK    3  A    between atoms: C_10  and  C_9 
REMARK    4  A    between atoms: C_11  and  C_10 
ROOT
ATOM      1  C   UNL d   1      53.110  32.308  53.197  0.00  0.00     0.169 A 
ATOM      2  N   UNL d   1      52.610  31.946  52.654  0.00  0.00    -0.142 NA
ATOM      3  C   UNL d   1      53.537  31.714  53.583  0.00  0.00     0.048 A 
ATOM      4  N   UNL d   1      52.720  31.130  52.696  0.00  0.00    -0.148 NA
ATOM      5  C   UNL d   1      53.296  30.988  53.274  0.00  0.00     0.105 A 
ENDROOT
BRANCH   5   6
ATOM      6  C   UNL d   1      53.579  30.235  53.499  0.00  0.00     0.021 C 
BRANCH   6   7
ATOM      7  C   UNL d   1      53.148  29.769  54.021  0.00  0.00     0.002 C 
BRANCH   7   8
ATOM      8  C   UNL d   1      53.412  29.014  54.214  0.00  0.00     0.000 C 
ATOM      9  C   UNL d   1      53.326  28.737  54.988  0.00  0.00     0.000 C 
ENDBRANCH   7   8
ENDBRANCH   6   7
ENDBRANCH   5   6
BRANCH   1  10
ATOM     10  C   UNL d   1      53.175  33.117  53.334  0.00  0.00     0.231 C 
ATOM     11  O   UNL d   1      53.909  33.441  53.526  0.00  0.00    -0.643 OA
ATOM     12  O   UNL d   1      52.509  33.604  53.279  0.00  0.00    -0.643 OA
ENDBRANCH   1  10
TORSDOF 4
ENDMDL
MODEL 7
REMARK VINA RESULT:      -5.8      1.448      1.548
REMARK  4 active torsions:
REMARK  status: ('A' for Active; 'I' for Inactive)
REMARK    1  A    between atoms: C_5  and  C_1 
REMARK    2  A    between atoms: C_9  and  C_6 
REMARK    3  A    between atoms: C_10  and  C_9 
REMARK    4  A    between atoms: C_11  and  C_10 
ROOT
ATOM      1  C   UNL d   1      53.123  31.074  53.279  0.00  0.00     0.169 A 
ATOM      2  N   UNL d   1      52.582  31.298  52.703  0.00  0.00    -0.142 NA
ATOM      3  C   UNL d   1      53.466  31.761  53.587  0.00  0.00     0.048 A 
ATOM      4  N   UNL d   1      52.583  32.120  52.647  0.00  0.00    -0.148 NA
ATOM      5  C   UNL d   1      53.132  32.407  53.197  0.00  0.00     0.105 A 
ENDROOT
BRANCH   5   6
ATOM      6  C   UNL d   1      53.311  33.211  53.326  0.00  0.00     0.021 C 
BRANCH   6   7
ATOM      7  C   UNL d   1      52.749  33.791  53.175  0.00  0.00     0.002 C 
BRANCH   7   8
ATOM      8  C   UNL d   1      52.846  34.550  53.478  0.00  0.00     0.000 C 
ATOM      9  C   UNL d   1      52.424  35.179  53.146  0.00  0.00     0.000 C 
ENDBRANCH   7   8
ENDBRANCH   6   7
ENDBRANCH   5   6
BRANCH   1  10
ATOM     10  C   UNL d   1      53.296  30.302  53.511  0.00  0.00     0.231 C 
ATOM     11  O   UNL d   1      52.789  29.688  53.296  0.00  0.00    -0.643 OA
ATOM     12  O   UNL d   1      53.973  30.143  53.958  0.00  0.00    -0.643 OA
ENDBRANCH   1  10
TORSDOF 4
ENDMDL
MODEL 8
REMARK VINA RESULT:      -4.2     14.984     15.521
REMARK  4 active torsions:
REMARK  status: ('A' for Active; 'I' for Inactive)
REMARK    1  A    between atoms: C_5  and  C_1 
REMARK    2  A    between atoms: C_9  and  C_6 
REMARK    3  A    between atoms: C_10  and  C_9 
REMARK    4  A    between atoms: C_11  and  C_10 
ROOT
ATOM      1  C   UNL d   1      49.482  28.016  67.605  0.00  0.00     0.169 A 
ATOM      2  N   UNL d   1      48.961  28.616  67.812  0.00  0.00    -0.142 NA
ATOM      3  C   UNL d   1      49.057  27.307  67.585  0.00  0.00     0.048 A 
ATOM      4  N   UNL d   1      48.213  28.289  67.921  0.00  0.00    -0.148 NA
ATOM      5  C   UNL d   1      48.274  27.476  67.780  0.00  0.00     0.105 A 
ENDROOT
BRANCH   5   6
ATOM      6  C   UNL d   1      47.646  26.928  67.829  0.00  0.00     0.021 C 
BRANCH   6   7
ATOM      7  C   UNL d   1      47.007  26.983  67.315  0.00  0.00     0.002 C 
BRANCH   7   8
ATOM      8  C   UNL d   1      46.331  26.532  67.447  0.00  0.00     0.000 C 
ATOM      9  C   UNL d   1      45.886  26.265  66.803  0.00  0.00     0.000 C 
ENDBRANCH   7   8
ENDBRANCH   6   7
ENDBRANCH   5   6
BRANCH   1  10
ATOM     10  C   UNL d   1      50.286  28.102  67.445  0.00  0.00     0.231 C 
ATOM     11  O   UNL d   1      50.720  27.457  67.172  0.00  0.00    -0.643 OA
ATOM     12  O   UNL d   1      50.656  28.832  67.559  0.00  0.00    -0.643 OA
ENDBRANCH   1  10
TORSDOF 4
ENDMDL
