MODEL 1
REMARK VINA RESULT:      47.7      0.000      0.000
REMARK  9 active torsions:
REMARK  status: ('A' for Active; 'I' for Inactive)
REMARK    1  A    between atoms: C_6  and  N_1 
REMARK    2  A    between atoms: S_11  and  C_2 
REMARK    3  A    between atoms: C_14  and  C_3 
REMARK       I    between atoms: C_7  and  N_12 
REMARK    4  A    between atoms: C_8  and  C_7 
REMARK    5  A    between atoms: C_9  and  N_10 
REMARK       I    between atoms: N_10  and  C_13 
REMARK    6  A    between atoms: C_24  and  S_11 
REMARK    7  A    between atoms: N_12  and  C_14 
REMARK    8  A    between atoms: C_13  and  C_24 
REMARK    9  A    between atoms: O_28  and  C_19 
ROOT
ATOM      1  N   UNL d   1      46.046 -18.042  43.004  0.00  0.00    -0.266 N 
ATOM      2  C   UNL d   1      46.115 -17.340  43.438  0.00  0.00     0.201 A 
ATOM      3  C   UNL d   1      45.953 -17.843  42.202  0.00  0.00     0.190 A 
ATOM      4  N   UNL d   1      46.066 -16.699  42.903  0.00  0.00    -0.121 NA
ATOM      5  N   UNL d   1      45.966 -17.009  42.142  0.00  0.00    -0.126 NA
ENDROOT
BRANCH   2   6
ATOM      6  S   UNL d   1      46.215 -17.279  44.247  0.00  0.00    -0.043 SA
BRANCH   6   7
ATOM      7  C   UNL d   1      46.471 -16.571  44.590  0.00  0.00     0.101 C 
BRANCH   7   8
ATOM      8  C   UNL d   1      45.989 -15.912  44.595  0.00  0.00     0.286 C 
ATOM      9  N   UNL d   1      46.305 -15.165  44.462  0.00  0.00    -0.208 NA
ATOM     10  O   UNL d   1      45.175 -15.995  44.734  0.00  0.00    -0.265 OA
BRANCH   9  11
ATOM     11  C   UNL d   1      45.816 -14.500  44.467  0.00  0.00     0.085 A 
ATOM     12  C   UNL d   1      45.037 -14.558  44.706  0.00  0.00     0.018 A 
ATOM     13  C   UNL d   1      44.548 -13.892  44.712  0.00  0.00     0.002 A 
ATOM     14  C   UNL d   1      44.732 -15.284  44.945  0.00  0.00     0.002 C 
ATOM     15  C   UNL d   1      44.856 -13.163  44.472  0.00  0.00     0.000 A 
ATOM     16  C   UNL d   1      45.653 -13.100  44.226  0.00  0.00     0.002 A 
ATOM     17  C   UNL d   1      46.125 -13.776  44.228  0.00  0.00     0.019 A 
ATOM     18  C   UNL d   1      45.951 -12.386  43.993  0.00  0.00     0.000 C 
ENDBRANCH   9  11
ENDBRANCH   7   8
ENDBRANCH   6   7
ENDBRANCH   2   6
BRANCH   1  19
ATOM     19  C   UNL d   1      46.064 -18.798  43.309  0.00  0.00     0.090 A 
ATOM     20  C   UNL d   1      46.263 -19.428  42.815  0.00  0.00     0.110 A 
ATOM     21  C   UNL d   1      46.283 -20.192  43.119  0.00  0.00     0.026 A 
ATOM     22  C   UNL d   1      46.104 -20.327  43.919  0.00  0.00     0.002 A 
ATOM     23  C   UNL d   1      45.905 -19.682  44.406  0.00  0.00     0.002 A 
ATOM     24  C   UNL d   1      45.886 -18.919  44.098  0.00  0.00     0.020 A 
BRANCH  20  25
ATOM     25  O   UNL d   1      46.441 -19.303  42.025  0.00  0.00    -0.327 OA
ATOM     26  C   UNL d   1      46.644 -19.930  41.536  0.00  0.00     0.181 C 
ENDBRANCH  20  25
ENDBRANCH   1  19
BRANCH   3  27
ATOM     27  C   UNL d   1      45.864 -18.372  41.575  0.00  0.00     0.141 C 
BRANCH  27  28
ATOM     28  N   UNL d   1      45.844 -18.092  40.799  0.00  0.00    -0.202 NA
ATOM     29  C   UNL d   1      45.113 -17.961  40.432  0.00  0.00     0.302 C 
ATOM     30  O   UNL d   1      44.413 -18.113  40.847  0.00  0.00    -0.263 OA
BRANCH  29  31
ATOM     31  C   UNL d   1      45.078 -17.680  39.653  0.00  0.00     0.158 A 
ATOM     32  O   UNL d   1      45.500 -17.988  39.022  0.00  0.00    -0.300 OA
ATOM     33  C   UNL d   1      45.308 -17.552  38.349  0.00  0.00     0.123 A 
ATOM     34  C   UNL d   1      44.760 -16.971  38.580  0.00  0.00     0.029 A 
ATOM     35  C   UNL d   1      44.620 -17.054  39.388  0.00  0.00     0.032 A 
ENDBRANCH  29  31
ENDBRANCH  27  28
ENDBRANCH   3  27
TORSDOF 9
ENDMDL
