MODEL 1
REMARK VINA RESULT:      69.6      0.000      0.000
REMARK  5 active torsions:
REMARK  status: ('A' for Active; 'I' for Inactive)
REMARK    1  A    between atoms: C_11  and  N_1 
REMARK    2  A    between atoms: S_8  and  C_4 
REMARK    3  A    between atoms: C_6  and  S_8 
REMARK    4  A    between atoms: C_9  and  C_7 
REMARK    5  A    between atoms: N_10  and  C_13 
ROOT
ATOM      1  N   UNL d   1      14.188  15.619  -4.686  0.00  0.00    -0.241 N 
ATOM      2  C   UNL d   1      14.203  14.977  -5.202  0.00  0.00     0.268 A 
ATOM      3  C   UNL d   1      14.096  15.339  -3.929  0.00  0.00     0.273 A 
ATOM      4  C   UNL d   1      14.052  14.507  -3.970  0.00  0.00     0.092 A 
ATOM      5  C   UNL d   1      14.119  14.298  -4.759  0.00  0.00     0.072 A 
ATOM      6  O   UNL d   1      14.286  14.985  -6.024  0.00  0.00    -0.267 OA
ATOM      7  O   UNL d   1      14.053  15.787  -3.247  0.00  0.00    -0.266 OA
ENDROOT
BRANCH   1   8
ATOM      8  C   UNL d   1      14.259  16.406  -4.934  0.00  0.00     0.070 A 
ATOM      9  C   UNL d   1      13.871  16.653  -5.607  0.00  0.00     0.019 A 
ATOM     10  C   UNL d   1      13.943  17.454  -5.859  0.00  0.00     0.019 A 
ATOM     11  C   UNL d   1      14.400  17.973  -5.429  0.00  0.00     0.064 A 
ATOM     12  C   UNL d   1      14.799  17.716  -4.734  0.00  0.00     0.019 A 
ATOM     13  C   UNL d   1      14.718  16.926  -4.500  0.00  0.00     0.019 A 
BRANCH  11  14
ATOM     14  N   UNL d   1      14.463  18.748  -5.682  0.00  0.00    -0.300 N 
ATOM     15  C   UNL d   1      13.804  19.138  -6.030  0.00  0.00     0.107 A 
ATOM     16  C   UNL d   1      13.884  19.923  -6.282  0.00  0.00     0.142 A 
ATOM     17  O   UNL d   1      14.592  20.334  -6.202  0.00  0.00    -0.300 OA
ATOM     18  C   UNL d   1      15.251  19.944  -5.855  0.00  0.00     0.142 A 
ATOM     19  C   UNL d   1      15.172  19.152  -5.600  0.00  0.00     0.107 A 
ENDBRANCH  11  14
ENDBRANCH   1   8
BRANCH   4  20
ATOM     20  S   UNL d   1      13.958  13.974  -3.346  0.00  0.00    -0.063 SA
BRANCH  20  21
ATOM     21  C   UNL d   1      13.597  13.240  -3.462  0.00  0.00     0.117 A 
ATOM     22  C   UNL d   1      13.698  12.632  -2.909  0.00  0.00     0.088 A 
ATOM     23  C   UNL d   1      13.338  11.910  -3.030  0.00  0.00     0.010 A 
ATOM     24  C   UNL d   1      12.881  11.781  -3.688  0.00  0.00     0.021 A 
ATOM     25  C   UNL d   1      12.771  12.371  -4.241  0.00  0.00     0.100 A 
ATOM     26  N   UNL d   1      13.137  13.110  -4.121  0.00  0.00    -0.237 NA
BRANCH  22  27
ATOM     27  C   UNL d   1      14.166  12.762  -2.237  0.00  0.00     0.213 C 
ATOM     28  O   UNL d   1      13.816  13.067  -1.555  0.00  0.00    -0.644 OA
ATOM     29  O   UNL d   1      14.974  12.585  -2.255  0.00  0.00    -0.644 OA
ENDBRANCH  22  27
ENDBRANCH  20  21
ENDBRANCH   4  20
TORSDOF 5
ENDMDL
