MODEL 1
REMARK VINA RESULT:      -9.5      0.000      0.000
REMARK  2 active torsions:
REMARK  status: ('A' for Active; 'I' for Inactive)
REMARK    1  A    between atoms: C_2  and  C_1 
REMARK    2  A    between atoms: C_6  and  C_2 
ROOT
ATOM      1  C   UNL d   1      53.201  32.744  53.279  0.00  0.00     0.059 A 
ATOM      2  C   UNL d   1      52.671  32.147  53.107  0.00  0.00     0.106 A 
ATOM      3  C   UNL d   1      52.974  33.528  53.245  0.00  0.00     0.011 A 
ATOM      4  C   UNL d   1      51.907  32.325  52.898  0.00  0.00     0.021 A 
ATOM      5  C   UNL d   1      52.180  33.722  53.029  0.00  0.00     0.035 A 
ATOM      6  N   UNL d   1      52.922  31.362  53.148  0.00  0.00    -0.148 N 
ATOM      7  C   UNL d   1      51.669  33.115  52.862  0.00  0.00     0.008 A 
ATOM      8 BR   UNL d   1      51.946  34.501  52.993  0.00  0.00    -0.049 Br
ENDROOT
BRANCH   1   9
ATOM      9  C   UNL d   1      53.983  32.557  53.492  0.00  0.00     0.197 C 
ATOM     10  O   UNL d   1      54.478  32.070  53.044  0.00  0.00    -0.286 OA
BRANCH   9  11
ATOM     11  C   UNL d   1      54.274  32.876  54.187  0.00  0.00     0.039 A 
ATOM     12  C   UNL d   1      53.998  32.616  54.909  0.00  0.00     0.003 A 
ATOM     13  C   UNL d   1      54.292  32.938  55.618  0.00  0.00     0.000 A 
ATOM     14  C   UNL d   1      54.878  33.538  55.582  0.00  0.00     0.000 A 
ATOM     15  C   UNL d   1      55.159  33.803  54.848  0.00  0.00     0.000 A 
ATOM     16  C   UNL d   1      54.845  33.460  54.152  0.00  0.00     0.003 A 
ENDBRANCH   9  11
ENDBRANCH   1   9
TORSDOF 2
ENDMDL
MODEL 2
REMARK VINA RESULT:      -9.2      1.128      2.837
REMARK  2 active torsions:
REMARK  status: ('A' for Active; 'I' for Inactive)
REMARK    1  A    between atoms: C_2  and  C_1 
REMARK    2  A    between atoms: C_6  and  C_2 
ROOT
ATOM      1  C   UNL d   1      53.232  32.719  53.656  0.00  0.00     0.059 A 
ATOM      2  C   UNL d   1      53.474  32.035  54.031  0.00  0.00     0.106 A 
ATOM      3  C   UNL d   1      53.452  33.452  53.940  0.00  0.00     0.011 A 
ATOM      4  C   UNL d   1      53.940  32.076  54.694  0.00  0.00     0.021 A 
ATOM      5  C   UNL d   1      53.936  33.503  54.630  0.00  0.00     0.035 A 
ATOM      6  N   UNL d   1      53.240  31.305  53.726  0.00  0.00    -0.148 N 
ATOM      7  C   UNL d   1      54.167  32.813  54.988  0.00  0.00     0.008 A 
ATOM      8 BR   UNL d   1      54.160  34.231  54.920  0.00  0.00    -0.049 Br
ENDROOT
BRANCH   1   9
ATOM      9  C   UNL d   1      52.755  32.673  52.976  0.00  0.00     0.197 C 
ATOM     10  O   UNL d   1      52.911  32.173  52.337  0.00  0.00    -0.286 OA
BRANCH   9  11
ATOM     11  C   UNL d   1      52.094  33.154  52.943  0.00  0.00     0.039 A 
ATOM     12  C   UNL d   1      51.422  32.963  53.365  0.00  0.00     0.003 A 
ATOM     13  C   UNL d   1      50.748  33.450  53.334  0.00  0.00     0.000 A 
ATOM     14  C   UNL d   1      50.765  34.143  52.860  0.00  0.00     0.000 A 
ATOM     15  C   UNL d   1      51.448  34.337  52.430  0.00  0.00     0.000 A 
ATOM     16  C   UNL d   1      52.110  33.828  52.481  0.00  0.00     0.003 A 
ENDBRANCH   9  11
ENDBRANCH   1   9
TORSDOF 2
ENDMDL
MODEL 3
REMARK VINA RESULT:      -9.0      1.351      2.400
REMARK  2 active torsions:
REMARK  status: ('A' for Active; 'I' for Inactive)
REMARK    1  A    between atoms: C_2  and  C_1 
REMARK    2  A    between atoms: C_6  and  C_2 
ROOT
ATOM      1  C   UNL d   1      53.785  33.242  53.930  0.00  0.00     0.059 A 
ATOM      2  C   UNL d   1      54.036  33.550  54.643  0.00  0.00     0.106 A 
ATOM      3  C   UNL d   1      53.150  33.568  53.534  0.00  0.00     0.011 A 
ATOM      4  C   UNL d   1      53.656  34.189  54.970  0.00  0.00     0.021 A 
ATOM      5  C   UNL d   1      52.749  34.233  53.867  0.00  0.00     0.035 A 
ATOM      6  N   UNL d   1      54.680  33.204  55.026  0.00  0.00    -0.148 N 
ATOM      7  C   UNL d   1      53.014  34.525  54.576  0.00  0.00     0.008 A 
ATOM      8 BR   UNL d   1      52.115  34.565  53.478  0.00  0.00    -0.049 Br
ENDROOT
BRANCH   1   9
ATOM      9  C   UNL d   1      54.177  32.587  53.599  0.00  0.00     0.197 C 
ATOM     10  O   UNL d   1      54.962  32.603  53.342  0.00  0.00    -0.286 OA
BRANCH   9  11
ATOM     11  C   UNL d   1      53.756  31.889  53.526  0.00  0.00     0.039 A 
ATOM     12  C   UNL d   1      53.777  31.329  54.120  0.00  0.00     0.003 A 
ATOM     13  C   UNL d   1      53.350  30.619  54.049  0.00  0.00     0.000 A 
ATOM     14  C   UNL d   1      52.895  30.482  53.358  0.00  0.00     0.000 A 
ATOM     15  C   UNL d   1      52.873  31.051  52.754  0.00  0.00     0.000 A 
ATOM     16  C   UNL d   1      53.313  31.756  52.853  0.00  0.00     0.003 A 
ENDBRANCH   9  11
ENDBRANCH   1   9
TORSDOF 2
ENDMDL
MODEL 4
REMARK VINA RESULT:      -9.0      1.538      1.834
REMARK  2 active torsions:
REMARK  status: ('A' for Active; 'I' for Inactive)
REMARK    1  A    between atoms: C_2  and  C_1 
REMARK    2  A    between atoms: C_6  and  C_2 
ROOT
ATOM      1  C   UNL d   1      53.335  32.164  53.246  0.00  0.00     0.059 A 
ATOM      2  C   UNL d   1      52.564  32.139  52.978  0.00  0.00     0.106 A 
ATOM      3  C   UNL d   1      53.719  31.484  53.481  0.00  0.00     0.011 A 
ATOM      4  C   UNL d   1      52.167  31.432  52.941  0.00  0.00     0.021 A 
ATOM      5  C   UNL d   1      53.313  30.744  53.446  0.00  0.00     0.035 A 
ATOM      6  N   UNL d   1      52.196  32.840  52.746  0.00  0.00    -0.148 N 
ATOM      7  C   UNL d   1      52.548  30.739  53.177  0.00  0.00     0.008 A 
ATOM      8 BR   UNL d   1      53.689  30.059  53.679  0.00  0.00    -0.049 Br
ENDROOT
BRANCH   1   9
ATOM      9  C   UNL d   1      53.738  32.891  53.282  0.00  0.00     0.197 C 
ATOM     10  O   UNL d   1      53.872  33.376  52.627  0.00  0.00    -0.286 OA
BRANCH   9  11
ATOM     11  C   UNL d   1      54.017  33.135  54.012  0.00  0.00     0.039 A 
ATOM     12  C   UNL d   1      53.499  33.396  54.586  0.00  0.00     0.003 A 
ATOM     13  C   UNL d   1      53.780  33.644  55.329  0.00  0.00     0.000 A 
ATOM     14  C   UNL d   1      54.604  33.625  55.483  0.00  0.00     0.000 A 
ATOM     15  C   UNL d   1      55.131  33.361  54.899  0.00  0.00     0.000 A 
ATOM     16  C   UNL d   1      54.820  33.116  54.161  0.00  0.00     0.003 A 
ENDBRANCH   9  11
ENDBRANCH   1   9
TORSDOF 2
ENDMDL
