MODEL 1
REMARK VINA RESULT:      25.4      0.000      0.000
REMARK  4 active torsions:
REMARK  status: ('A' for Active; 'I' for Inactive)
REMARK    1  A    between atoms: C_10  and  N_1 
REMARK       I    between atoms: C_6  and  N_9 
REMARK    2  A    between atoms: C_8  and  C_6 
REMARK    3  A    between atoms: N_9  and  C_12 
REMARK    4  A    between atoms: C_12  and  C_10 
ROOT
ATOM      1  C   UNL d   1      45.965 -15.133  43.738  0.00  0.00     0.101 C 
ENDROOT
BRANCH   1   2
ATOM      2  N   UNL d   1      45.674 -15.858  44.002  0.00  0.00    -0.304 N 
ATOM      3  C   UNL d   1      45.071 -15.965  44.560  0.00  0.00     0.064 A 
ATOM      4  C   UNL d   1      44.955 -16.773  44.660  0.00  0.00     0.019 A 
ATOM      5  C   UNL d   1      44.660 -15.365  44.947  0.00  0.00     0.019 C 
ATOM      6  C   UNL d   1      45.482 -17.174  44.167  0.00  0.00     0.018 A 
ATOM      7  C   UNL d   1      45.927 -16.611  43.760  0.00  0.00     0.064 A 
ATOM      8  C   UNL d   1      45.621 -17.973  44.031  0.00  0.00     0.002 A 
ATOM      9  C   UNL d   1      46.505 -16.840  43.221  0.00  0.00     0.018 A 
ATOM     10  C   UNL d   1      46.644 -17.638  43.085  0.00  0.00     0.002 A 
ATOM     11  C   UNL d   1      46.202 -18.219  43.489  0.00  0.00     0.000 A 
ENDBRANCH   1   2
BRANCH   1  12
ATOM     12  C   UNL d   1      45.624 -14.432  44.004  0.00  0.00     0.121 C 
BRANCH  12  13
ATOM     13  N   UNL d   1      46.050 -13.931  44.503  0.00  0.00    -0.205 NA
ATOM     14  C   UNL d   1      46.013 -13.115  44.402  0.00  0.00     0.279 C 
ATOM     15  O   UNL d   1      46.440 -12.614  44.901  0.00  0.00    -0.265 OA
BRANCH  14  16
ATOM     16  C   UNL d   1      45.544 -12.796  43.797  0.00  0.00     0.058 A 
ATOM     17  C   UNL d   1      44.799 -12.541  43.966  0.00  0.00     0.005 A 
ATOM     18  C   UNL d   1      44.326 -12.222  43.368  0.00  0.00     0.000 A 
ATOM     19  C   UNL d   1      44.602 -12.159  42.597  0.00  0.00     0.000 A 
ATOM     20  C   UNL d   1      45.377 -12.425  42.425  0.00  0.00     0.000 A 
ATOM     21  C   UNL d   1      45.846 -12.744  43.031  0.00  0.00     0.005 A 
ENDBRANCH  14  16
ENDBRANCH  12  13
ENDBRANCH   1  12
TORSDOF 4
ENDMDL
