MODEL 1
REMARK VINA RESULT:      -1.9      0.000      0.000
REMARK  4 active torsions:
REMARK  status: ('A' for Active; 'I' for Inactive)
REMARK    1  A    between atoms: C_9  and  N_2 
REMARK    2  A    between atoms: C_6  and  C_3 
REMARK    3  A    between atoms: C_8  and  C_4 
REMARK    4  A    between atoms: O_18  and  C_15 
ROOT
ATOM      1  N   UNL d   1      57.684  -0.159  30.979  0.00  0.00    -0.165 NA
ATOM      2  N   UNL d   1      58.231  -0.438  30.388  0.00  0.00    -0.230 N 
ATOM      3  C   UNL d   1      57.282  -0.807  31.286  0.00  0.00     0.109 A 
ATOM      4  C   UNL d   1      58.130  -1.274  30.366  0.00  0.00     0.084 A 
ATOM      5  C   UNL d   1      57.553  -1.494  30.913  0.00  0.00     0.041 A 
ENDROOT
BRANCH   4   6
ATOM      6  C   UNL d   1      58.537  -1.797  29.880  0.00  0.00     0.018 A 
ATOM      7  C   UNL d   1      59.268  -2.070  30.148  0.00  0.00     0.004 A 
ATOM      8  C   UNL d   1      59.691  -2.590  29.683  0.00  0.00     0.024 A 
ATOM      9  C   UNL d   1      59.395  -2.838  28.962  0.00  0.00     0.094 A 
ATOM     10  C   UNL d   1      58.664  -2.566  28.694  0.00  0.00     0.024 A 
ATOM     11  C   UNL d   1      58.236  -2.041  29.161  0.00  0.00     0.004 A 
BRANCH   9  12
ATOM     12  O   UNL d   1      59.817  -3.382  28.455  0.00  0.00    -0.328 OA
ATOM     13  C   UNL d   1      60.649  -3.536  28.608  0.00  0.00     0.181 C 
ENDBRANCH   9  12
ENDBRANCH   4   6
BRANCH   2  14
ATOM     14  C   UNL d   1      58.774  -0.068  29.898  0.00  0.00     0.083 A 
ATOM     15  C   UNL d   1      58.575   0.193  29.128  0.00  0.00     0.019 A 
ATOM     16  C   UNL d   1      59.147   0.565  28.653  0.00  0.00     0.002 A 
ATOM     17  C   UNL d   1      59.900   0.682  28.924  0.00  0.00     0.000 A 
ATOM     18  C   UNL d   1      60.101   0.423  29.690  0.00  0.00     0.002 A 
ATOM     19  C   UNL d   1      59.537   0.047  30.178  0.00  0.00     0.019 A 
ENDBRANCH   2  14
BRANCH   3  20
ATOM     20  C   UNL d   1      56.788  -0.430  31.838  0.00  0.00     0.049 A 
ATOM     21  S   UNL d   1      56.484   0.290  32.088  0.00  0.00    -0.085 SA
ATOM     22  C   UNL d   1      55.994   0.149  32.729  0.00  0.00     0.035 A 
ATOM     23  C   UNL d   1      55.988  -0.641  32.880  0.00  0.00     0.007 A 
ATOM     24  C   UNL d   1      56.473  -1.028  32.343  0.00  0.00     0.009 A 
ENDBRANCH   3  20
TORSDOF 4
ENDMDL
MODEL 2
REMARK VINA RESULT:       0.5      1.135      2.436
REMARK  4 active torsions:
REMARK  status: ('A' for Active; 'I' for Inactive)
REMARK    1  A    between atoms: C_9  and  N_2 
REMARK    2  A    between atoms: C_6  and  C_3 
REMARK    3  A    between atoms: C_8  and  C_4 
REMARK    4  A    between atoms: O_18  and  C_15 
ROOT
ATOM      1  N   UNL d   1      57.215  -1.145  31.334  0.00  0.00    -0.165 NA
ATOM      2  N   UNL d   1      57.775  -1.163  30.692  0.00  0.00    -0.230 N 
ATOM      3  C   UNL d   1      57.188  -0.379  31.632  0.00  0.00     0.109 A 
ATOM      4  C   UNL d   1      58.072  -0.377  30.630  0.00  0.00     0.084 A 
ATOM      5  C   UNL d   1      57.713   0.095  31.202  0.00  0.00     0.041 A 
ENDROOT
BRANCH   4   6
ATOM      6  C   UNL d   1      58.631  -0.113  30.088  0.00  0.00     0.018 A 
ATOM      7  C   UNL d   1      59.416  -0.089  30.338  0.00  0.00     0.004 A 
ATOM      8  C   UNL d   1      59.989   0.170  29.819  0.00  0.00     0.024 A 
ATOM      9  C   UNL d   1      59.788   0.402  29.060  0.00  0.00     0.094 A 
ATOM     10  C   UNL d   1      59.003   0.377  28.810  0.00  0.00     0.024 A 
ATOM     11  C   UNL d   1      58.424   0.116  29.332  0.00  0.00     0.004 A 
BRANCH   9  12
ATOM     12  O   UNL d   1      60.368   0.676  28.495  0.00  0.00    -0.328 OA
ATOM     13  C   UNL d   1      61.133   0.287  28.459  0.00  0.00     0.181 C 
ENDBRANCH   9  12
ENDBRANCH   4   6
BRANCH   2  14
ATOM     14  C   UNL d   1      58.039  -1.753  30.187  0.00  0.00     0.083 A 
ATOM     15  C   UNL d   1      58.778  -2.132  30.291  0.00  0.00     0.019 A 
ATOM     16  C   UNL d   1      59.019  -2.726  29.763  0.00  0.00     0.002 A 
ATOM     17  C   UNL d   1      58.550  -2.948  29.143  0.00  0.00     0.000 A 
ATOM     18  C   UNL d   1      57.813  -2.572  29.037  0.00  0.00     0.002 A 
ATOM     19  C   UNL d   1      57.557  -1.973  29.560  0.00  0.00     0.019 A 
ENDBRANCH   2  14
BRANCH   3  20
ATOM     20  C   UNL d   1      56.627  -0.472  32.237  0.00  0.00     0.049 A 
ATOM     21  S   UNL d   1      56.312  -0.990  32.789  0.00  0.00    -0.085 SA
ATOM     22  C   UNL d   1      55.722  -0.596  33.199  0.00  0.00     0.035 A 
ATOM     23  C   UNL d   1      55.665   0.154  32.912  0.00  0.00     0.007 A 
ATOM     24  C   UNL d   1      56.215   0.261  32.313  0.00  0.00     0.009 A 
ENDBRANCH   3  20
TORSDOF 4
ENDMDL
