MODEL 1
REMARK VINA RESULT:      -6.3      0.000      0.000
REMARK  6 active torsions:
REMARK  status: ('A' for Active; 'I' for Inactive)
REMARK    1  A    between atoms: C_8  and  C_1 
REMARK    2  A    between atoms: C_2  and  N_3 
REMARK       I    between atoms: N_3  and  C_8 
REMARK    3  A    between atoms: S_4  and  C_14 
REMARK    4  A    between atoms: C_23  and  N_7 
REMARK    5  A    between atoms: C_27  and  C_23 
REMARK    6  A    between atoms: O_26  and  C_27 
ROOT
ATOM      1  C   UNL d   1     -46.800  13.196  22.669  0.00  0.00     0.182 A 
ATOM      2  N   UNL d   1     -46.508  12.505  22.997  0.00  0.00    -0.283 N 
ATOM      3  S   UNL d   1     -46.206  13.527  22.204  0.00  0.00    -0.048 SA
ATOM      4  C   UNL d   1     -45.543  13.035  22.247  0.00  0.00     0.049 A 
ATOM      5  C   UNL d   1     -45.730  12.400  22.739  0.00  0.00     0.072 A 
ATOM      6  C   UNL d   1     -44.238  12.496  22.049  0.00  0.00     0.107 A 
ATOM      7  C   UNL d   1     -44.797  13.082  21.902  0.00  0.00     0.021 A 
ATOM      8  C   UNL d   1     -45.172  11.812  22.887  0.00  0.00     0.019 A 
ATOM      9  C   UNL d   1     -44.426  11.861  22.542  0.00  0.00     0.015 A 
ENDROOT
BRANCH   1  10
ATOM     10  N   UNL d   1     -47.557  13.502  22.788  0.00  0.00    -0.183 NA
ATOM     11  C   UNL d   1     -47.710  14.290  22.607  0.00  0.00     0.288 C 
ATOM     12  O   UNL d   1     -47.107  14.766  22.309  0.00  0.00    -0.265 OA
BRANCH  11  13
ATOM     13  C   UNL d   1     -48.464  14.603  22.723  0.00  0.00     0.098 A 
ATOM     14  S   UNL d   1     -48.690  15.095  23.335  0.00  0.00    -0.081 SA
ATOM     15  C   UNL d   1     -49.486  15.276  23.243  0.00  0.00     0.030 A 
ATOM     16  C   UNL d   1     -50.000  15.746  23.693  0.00  0.00     0.006 A 
ATOM     17  C   UNL d   1     -49.765  14.896  22.567  0.00  0.00     0.017 A 
ATOM     18  C   UNL d   1     -50.796  15.834  23.467  0.00  0.00     0.001 A 
ATOM     19  C   UNL d   1     -51.064  15.442  22.779  0.00  0.00     0.000 A 
ATOM     20  C   UNL d   1     -50.557  14.983  22.340  0.00  0.00     0.001 A 
ATOM     21  C   UNL d   1     -49.125  14.473  22.240  0.00  0.00     0.069 A 
ATOM     22 CL   UNL d   1     -49.153  14.012  21.560  0.00  0.00    -0.082 Cl
ENDBRANCH  11  13
ENDBRANCH   1  10
BRANCH   2  23
ATOM     23  C   UNL d   1     -46.916  11.993  23.502  0.00  0.00     0.108 C 
BRANCH  23  24
ATOM     24  C   UNL d   1     -47.421  11.420  23.196  0.00  0.00     0.135 C 
BRANCH  24  25
ATOM     25  O   UNL d   1     -47.904  10.983  23.696  0.00  0.00    -0.325 OA
ATOM     26  C   UNL d   1     -48.708  10.882  23.527  0.00  0.00     0.182 C 
ENDBRANCH  24  25
ENDBRANCH  23  24
ENDBRANCH   2  23
BRANCH   6  27
ATOM     27  S   UNL d   1     -43.480  12.542  21.701  0.00  0.00     0.302 S 
ATOM     28  O   UNL d   1     -43.159  12.021  22.259  0.00  0.00    -0.197 OA
ATOM     29  O   UNL d   1     -43.802  13.059  21.149  0.00  0.00    -0.197 OA
ATOM     30  N   UNL d   1     -42.743  12.606  21.338  0.00  0.00    -0.043 N 
ENDBRANCH   6  27
TORSDOF 6
ENDMDL
MODEL 2
REMARK VINA RESULT:      -4.7      8.389     10.326
REMARK  6 active torsions:
REMARK  status: ('A' for Active; 'I' for Inactive)
REMARK    1  A    between atoms: C_8  and  C_1 
REMARK    2  A    between atoms: C_2  and  N_3 
REMARK       I    between atoms: N_3  and  C_8 
REMARK    3  A    between atoms: S_4  and  C_14 
REMARK    4  A    between atoms: C_23  and  N_7 
REMARK    5  A    between atoms: C_27  and  C_23 
REMARK    6  A    between atoms: O_26  and  C_27 
ROOT
ATOM      1  C   UNL d   1     -39.032  15.022  18.709  0.00  0.00     0.182 A 
ATOM      2  N   UNL d   1     -39.622  15.476  19.050  0.00  0.00    -0.283 N 
ATOM      3  S   UNL d   1     -38.571  14.707  19.315  0.00  0.00    -0.048 SA
ATOM      4  C   UNL d   1     -38.881  14.971  20.035  0.00  0.00     0.049 A 
ATOM      5  C   UNL d   1     -39.534  15.448  19.871  0.00  0.00     0.072 A 
ATOM      6  C   UNL d   1     -39.079  15.182  21.431  0.00  0.00     0.107 A 
ATOM      7  C   UNL d   1     -38.654  14.838  20.816  0.00  0.00     0.021 A 
ATOM      8  C   UNL d   1     -39.959  15.793  20.486  0.00  0.00     0.019 A 
ATOM      9  C   UNL d   1     -39.731  15.659  21.266  0.00  0.00     0.015 A 
ENDROOT
BRANCH   1  10
ATOM     10  N   UNL d   1     -38.924  14.904  17.900  0.00  0.00    -0.183 NA
ATOM     11  C   UNL d   1     -38.443  14.288  17.640  0.00  0.00     0.288 C 
ATOM     12  O   UNL d   1     -38.075  13.796  18.188  0.00  0.00    -0.265 OA
BRANCH  11  13
ATOM     13  C   UNL d   1     -38.330  14.164  16.832  0.00  0.00     0.098 A 
ATOM     14  S   UNL d   1     -38.288  14.746  16.259  0.00  0.00    -0.081 SA
ATOM     15  C   UNL d   1     -38.172  14.385  15.530  0.00  0.00     0.030 A 
ATOM     16  C   UNL d   1     -38.090  14.698  14.766  0.00  0.00     0.006 A 
ATOM     17  C   UNL d   1     -38.141  13.569  15.643  0.00  0.00     0.017 A 
ATOM     18  C   UNL d   1     -37.976  14.194  14.115  0.00  0.00     0.001 A 
ATOM     19  C   UNL d   1     -37.946  13.368  14.246  0.00  0.00     0.000 A 
ATOM     20  C   UNL d   1     -38.027  13.065  14.996  0.00  0.00     0.001 A 
ATOM     21  C   UNL d   1     -38.239  13.429  16.460  0.00  0.00     0.069 A 
ATOM     22 CL   UNL d   1     -38.245  12.692  16.822  0.00  0.00    -0.082 Cl
ENDBRANCH  11  13
ENDBRANCH   1  10
BRANCH   2  23
ATOM     23  C   UNL d   1     -40.211  15.895  18.648  0.00  0.00     0.108 C 
BRANCH  23  24
ATOM     24  C   UNL d   1     -40.853  15.500  18.318  0.00  0.00     0.135 C 
BRANCH  24  25
ATOM     25  O   UNL d   1     -41.494  15.922  18.028  0.00  0.00    -0.325 OA
ATOM     26  C   UNL d   1     -41.681  15.904  17.221  0.00  0.00     0.182 C 
ENDBRANCH  24  25
ENDBRANCH  23  24
ENDBRANCH   2  23
BRANCH   6  27
ATOM     27  S   UNL d   1     -38.850  15.049  22.223  0.00  0.00     0.302 S 
ATOM     28  O   UNL d   1     -39.484  14.530  22.350  0.00  0.00    -0.197 OA
ATOM     29  O   UNL d   1     -38.223  15.564  22.095  0.00  0.00    -0.197 OA
ATOM     30  N   UNL d   1     -38.604  14.935  23.001  0.00  0.00    -0.043 N 
ENDBRANCH   6  27
TORSDOF 6
ENDMDL
MODEL 3
REMARK VINA RESULT:      -3.8      1.692      2.437
REMARK  6 active torsions:
REMARK  status: ('A' for Active; 'I' for Inactive)
REMARK    1  A    between atoms: C_8  and  C_1 
REMARK    2  A    between atoms: C_2  and  N_3 
REMARK       I    between atoms: N_3  and  C_8 
REMARK    3  A    between atoms: S_4  and  C_14 
REMARK    4  A    between atoms: C_23  and  N_7 
REMARK    5  A    between atoms: C_27  and  C_23 
REMARK    6  A    between atoms: O_26  and  C_27 
ROOT
ATOM      1  C   UNL d   1     -46.618  12.326  23.135  0.00  0.00     0.182 A 
ATOM      2  N   UNL d   1     -45.910  12.598  22.826  0.00  0.00    -0.283 N 
ATOM      3  S   UNL d   1     -46.490  11.574  23.443  0.00  0.00    -0.048 SA
ATOM      4  C   UNL d   1     -45.694  11.381  23.323  0.00  0.00     0.049 A 
ATOM      5  C   UNL d   1     -45.334  12.016  22.940  0.00  0.00     0.072 A 
ATOM      6  C   UNL d   1     -44.456  10.676  23.319  0.00  0.00     0.107 A 
ATOM      7  C   UNL d   1     -45.254  10.711  23.513  0.00  0.00     0.021 A 
ATOM      8  C   UNL d   1     -44.534  11.982  22.746  0.00  0.00     0.019 A 
ATOM      9  C   UNL d   1     -44.096  11.312  22.936  0.00  0.00     0.015 A 
ENDROOT
BRANCH   1  10
ATOM     10  N   UNL d   1     -47.332  12.740  23.133  0.00  0.00    -0.183 NA
ATOM     11  C   UNL d   1     -47.985  12.423  22.744  0.00  0.00     0.288 C 
ATOM     12  O   UNL d   1     -47.919  11.697  22.360  0.00  0.00    -0.265 OA
BRANCH  11  13
ATOM     13  C   UNL d   1     -48.702  12.831  22.738  0.00  0.00     0.098 A 
ATOM     14  S   UNL d   1     -49.126  13.062  23.397  0.00  0.00    -0.081 SA
ATOM     15  C   UNL d   1     -49.805  13.452  23.145  0.00  0.00     0.030 A 
ATOM     16  C   UNL d   1     -50.429  13.800  23.565  0.00  0.00     0.006 A 
ATOM     17  C   UNL d   1     -49.808  13.467  22.320  0.00  0.00     0.017 A 
ATOM     18  C   UNL d   1     -51.057  14.164  23.160  0.00  0.00     0.001 A 
ATOM     19  C   UNL d   1     -51.047  14.171  22.323  0.00  0.00     0.000 A 
ATOM     20  C   UNL d   1     -50.433  13.829  21.915  0.00  0.00     0.001 A 
ATOM     21  C   UNL d   1     -49.116  13.078  22.064  0.00  0.00     0.069 A 
ATOM     22 CL   UNL d   1     -48.893  12.963  21.282  0.00  0.00    -0.082 Cl
ENDBRANCH  11  13
ENDBRANCH   1  10
BRANCH   2  23
ATOM     23  C   UNL d   1     -45.783  13.328  22.460  0.00  0.00     0.108 C 
BRANCH  23  24
ATOM     24  C   UNL d   1     -45.616  13.997  22.910  0.00  0.00     0.135 C 
BRANCH  24  25
ATOM     25  O   UNL d   1     -45.447  14.711  22.543  0.00  0.00    -0.325 OA
ATOM     26  C   UNL d   1     -46.032  15.120  22.123  0.00  0.00     0.182 C 
ENDBRANCH  24  25
ENDBRANCH  23  24
ENDBRANCH   2  23
BRANCH   6  27
ATOM     27  S   UNL d   1     -44.007   9.998  23.511  0.00  0.00     0.302 S 
ATOM     28  O   UNL d   1     -44.690   9.548  23.648  0.00  0.00    -0.197 OA
ATOM     29  O   UNL d   1     -43.332  10.446  23.374  0.00  0.00    -0.197 OA
ATOM     30  N   UNL d   1     -43.541   9.344  23.695  0.00  0.00    -0.043 N 
ENDBRANCH   6  27
TORSDOF 6
ENDMDL
MODEL 4
REMARK VINA RESULT:      -3.5      8.523     10.144
REMARK  6 active torsions:
REMARK  status: ('A' for Active; 'I' for Inactive)
REMARK    1  A    between atoms: C_8  and  C_1 
REMARK    2  A    between atoms: C_2  and  N_3 
REMARK       I    between atoms: N_3  and  C_8 
REMARK    3  A    between atoms: S_4  and  C_14 
REMARK    4  A    between atoms: C_23  and  N_7 
REMARK    5  A    between atoms: C_27  and  C_23 
REMARK    6  A    between atoms: O_26  and  C_27 
ROOT
ATOM      1  C   UNL d   1     -38.499  14.011  18.114  0.00  0.00     0.182 A 
ATOM      2  N   UNL d   1     -38.224  13.445  17.588  0.00  0.00    -0.283 N 
ATOM      3  S   UNL d   1     -38.622  14.708  17.694  0.00  0.00    -0.048 SA
ATOM      4  C   UNL d   1     -38.423  14.571  16.904  0.00  0.00     0.049 A 
ATOM      5  C   UNL d   1     -38.176  13.786  16.838  0.00  0.00     0.072 A 
ATOM      6  C   UNL d   1     -38.199  14.758  15.509  0.00  0.00     0.107 A 
ATOM      7  C   UNL d   1     -38.434  15.056  16.239  0.00  0.00     0.021 A 
ATOM      8  C   UNL d   1     -37.940  13.487  16.107  0.00  0.00     0.019 A 
ATOM      9  C   UNL d   1     -37.952  13.974  15.443  0.00  0.00     0.015 A 
ENDROOT
BRANCH   1  10
ATOM     10  N   UNL d   1     -38.626  13.894  18.920  0.00  0.00    -0.183 NA
ATOM     11  C   UNL d   1     -38.595  14.538  19.433  0.00  0.00     0.288 C 
ATOM     12  O   UNL d   1     -38.437  15.290  19.137  0.00  0.00    -0.265 OA
BRANCH  11  13
ATOM     13  C   UNL d   1     -38.721  14.429  20.241  0.00  0.00     0.098 A 
ATOM     14  S   UNL d   1     -38.233  14.018  20.751  0.00  0.00    -0.081 SA
ATOM     15  C   UNL d   1     -38.561  14.044  21.504  0.00  0.00     0.030 A 
ATOM     16  C   UNL d   1     -38.310  13.727  22.228  0.00  0.00     0.006 A 
ATOM     17  C   UNL d   1     -39.263  14.477  21.469  0.00  0.00     0.017 A 
ATOM     18  C   UNL d   1     -38.760  13.842  22.917  0.00  0.00     0.001 A 
ATOM     19  C   UNL d   1     -39.470  14.283  22.865  0.00  0.00     0.000 A 
ATOM     20  C   UNL d   1     -39.713  14.592  22.154  0.00  0.00     0.001 A 
ATOM     21  C   UNL d   1     -39.364  14.719  20.677  0.00  0.00     0.069 A 
ATOM     22 CL   UNL d   1     -39.991  15.164  20.389  0.00  0.00    -0.082 Cl
ENDBRANCH  11  13
ENDBRANCH   1  10
BRANCH   2  23
ATOM     23  C   UNL d   1     -38.028  12.663  17.770  0.00  0.00     0.108 C 
BRANCH  23  24
ATOM     24  C   UNL d   1     -38.498  12.042  17.504  0.00  0.00     0.135 C 
BRANCH  24  25
ATOM     25  O   UNL d   1     -38.459  11.308  17.869  0.00  0.00    -0.325 OA
ATOM     26  C   UNL d   1     -38.200  10.641  17.451  0.00  0.00     0.182 C 
ENDBRANCH  24  25
ENDBRANCH  23  24
ENDBRANCH   2  23
BRANCH   6  27
ATOM     27  S   UNL d   1     -38.210  15.249  14.832  0.00  0.00     0.302 S 
ATOM     28  O   UNL d   1     -38.024  15.921  15.281  0.00  0.00    -0.197 OA
ATOM     29  O   UNL d   1     -38.394  14.581  14.391  0.00  0.00    -0.197 OA
ATOM     30  N   UNL d   1     -38.227  15.710  14.150  0.00  0.00    -0.043 N 
ENDBRANCH   6  27
TORSDOF 6
ENDMDL
