MODEL 1
REMARK VINA RESULT:      -3.6      0.000      0.000
REMARK  9 active torsions:
REMARK  status: ('A' for Active; 'I' for Inactive)
REMARK    1  A    between atoms: N_2  and  S_1 
REMARK    2  A    between atoms: C_9  and  S_1 
REMARK    3  A    between atoms: C_4  and  N_2 
REMARK    4  A    between atoms: O_19  and  C_6 
REMARK    5  A    between atoms: O_22  and  C_7 
REMARK       I    between atoms: C_12  and  N_13 
REMARK    6  A    between atoms: C_20  and  C_12 
REMARK    7  A    between atoms: N_13  and  C_17 
REMARK    8  A    between atoms: O_18  and  C_20 
REMARK    9  A    between atoms: C_21  and  O_18 
ROOT
ATOM      1  C   UNL d   1      58.354  -0.664  29.737  0.00  0.00     0.105 A 
ATOM      2  C   UNL d   1      58.579   0.121  29.861  0.00  0.00     0.015 A 
ATOM      3  C   UNL d   1      57.780  -1.002  30.191  0.00  0.00     0.015 A 
ATOM      4  C   UNL d   1      57.633   0.203  30.909  0.00  0.00     0.085 A 
ATOM      5  C   UNL d   1      58.218   0.565  30.453  0.00  0.00     0.020 A 
ATOM      6  C   UNL d   1      57.408  -0.570  30.790  0.00  0.00     0.020 A 
ENDROOT
BRANCH   1   7
ATOM      7  S   UNL d   1      58.723  -1.113  29.134  0.00  0.00     0.287 S 
ATOM      8  O   UNL d   1      59.450  -1.045  29.540  0.00  0.00    -0.198 OA
ATOM      9  O   UNL d   1      57.997  -1.170  28.746  0.00  0.00    -0.198 OA
BRANCH   7  10
ATOM     10  N   UNL d   1      59.095  -1.555  28.543  0.00  0.00    -0.139 NA
BRANCH  10  11
ATOM     11  C   UNL d   1      59.224  -2.360  28.631  0.00  0.00     0.182 A 
ATOM     12  N   UNL d   1      59.951  -2.636  28.837  0.00  0.00    -0.185 NA
ATOM     13  C   UNL d   1      60.083  -3.452  28.926  0.00  0.00     0.274 A 
ATOM     14  N   UNL d   1      59.494  -3.977  28.809  0.00  0.00    -0.181 NA
ATOM     15  C   UNL d   1      58.747  -3.715  28.599  0.00  0.00     0.185 A 
ATOM     16  C   UNL d   1      58.609  -2.873  28.507  0.00  0.00     0.084 A 
BRANCH  13  17
ATOM     17  O   UNL d   1      60.848  -3.729  29.142  0.00  0.00    -0.297 OA
ATOM     18  C   UNL d   1      61.112  -4.475  28.936  0.00  0.00     0.185 C 
ENDBRANCH  13  17
BRANCH  15  19
ATOM     19  O   UNL d   1      58.147  -4.289  28.483  0.00  0.00    -0.312 OA
ATOM     20  C   UNL d   1      58.361  -5.085  28.459  0.00  0.00     0.183 C 
ENDBRANCH  15  19
ENDBRANCH  10  11
ENDBRANCH   7  10
ENDBRANCH   1   7
BRANCH   4  21
ATOM     21  N   UNL d   1      57.255   0.635  31.512  0.00  0.00    -0.206 NA
ATOM     22  C   UNL d   1      56.793   0.257  32.028  0.00  0.00     0.304 C 
ATOM     23  O   UNL d   1      56.664  -0.577  31.991  0.00  0.00    -0.263 OA
BRANCH  22  24
ATOM     24  C   UNL d   1      56.402   0.679  32.646  0.00  0.00     0.185 C 
BRANCH  24  25
ATOM     25  O   UNL d   1      55.645   0.498  32.903  0.00  0.00    -0.300 OA
BRANCH  25  26
ATOM     26  C   UNL d   1      55.482   0.531  33.691  0.00  0.00     0.100 A 
ATOM     27  C   UNL d   1      54.689   0.633  33.935  0.00  0.00     0.025 A 
ATOM     28  C   UNL d   1      54.488   0.671  34.754  0.00  0.00     0.002 A 
ATOM     29  C   UNL d   1      55.043   0.613  35.293  0.00  0.00     0.000 A 
ATOM     30  C   UNL d   1      55.867   0.508  35.051  0.00  0.00     0.002 A 
ATOM     31  C   UNL d   1      54.827   0.653  36.124  0.00  0.00     0.000 C 
ATOM     32  C   UNL d   1      56.040   0.473  34.252  0.00  0.00     0.025 A 
ENDBRANCH  25  26
ENDBRANCH  24  25
ENDBRANCH  22  24
ENDBRANCH   4  21
TORSDOF 9
ENDMDL
