MODEL 1
REMARK VINA RESULT:      51.1      0.000      0.000
REMARK  5 active torsions:
REMARK  status: ('A' for Active; 'I' for Inactive)
REMARK    1  A    between atoms: N_8  and  C_2 
REMARK    2  A    between atoms: C_6  and  C_5 
REMARK    3  A    between atoms: C_7  and  C_6 
REMARK       I    between atoms: N_9  and  C_7 
REMARK    4  A    between atoms: C_18  and  N_9 
REMARK    5  A    between atoms: C_11  and  C_12 
ROOT
ATOM      1  C   UNL d   1     -50.237  27.289  33.761  0.00  0.00     0.280 C 
ATOM      2  N   UNL d   1     -50.104  28.109  33.719  0.00  0.00    -0.208 NA
ATOM      3  O   UNL d   1     -49.764  26.820  34.241  0.00  0.00    -0.265 OA
ENDROOT
BRANCH   1   4
ATOM      4  C   UNL d   1     -50.843  26.958  33.321  0.00  0.00     0.074 C 
BRANCH   4   5
ATOM      5  C   UNL d   1     -50.953  26.140  33.316  0.00  0.00     0.093 A 
ATOM      6  C   UNL d   1     -51.684  25.759  33.313  0.00  0.00     0.272 A 
ATOM      7  N   UNL d   1     -51.548  24.945  33.309  0.00  0.00    -0.251 N 
ATOM      8  O   UNL d   1     -52.429  26.115  33.315  0.00  0.00    -0.266 OA
ATOM      9  C   UNL d   1     -50.725  24.822  33.310  0.00  0.00     0.182 A 
ATOM     10  C   UNL d   1     -52.117  24.350  33.306  0.00  0.00     0.104 C 
ATOM     11  S   UNL d   1     -50.370  25.566  33.314  0.00  0.00    -0.045 SA
BRANCH   9  12
ATOM     12  N   UNL d   1     -50.344  24.090  33.306  0.00  0.00    -0.219 NA
ATOM     13  C   UNL d   1     -50.625  23.471  33.769  0.00  0.00     0.122 C 
ENDBRANCH   9  12
ENDBRANCH   4   5
ENDBRANCH   1   4
BRANCH   2  14
ATOM     14  C   UNL d   1     -49.496  28.445  34.161  0.00  0.00     0.085 A 
ATOM     15  C   UNL d   1     -49.419  29.274  34.213  0.00  0.00     0.019 A 
ATOM     16  C   UNL d   1     -48.807  29.605  34.658  0.00  0.00     0.005 A 
ATOM     17  C   UNL d   1     -48.267  29.115  35.054  0.00  0.00     0.039 A 
ATOM     18  C   UNL d   1     -48.343  28.295  35.003  0.00  0.00     0.005 A 
ATOM     19  C   UNL d   1     -48.959  27.960  34.555  0.00  0.00     0.019 A 
BRANCH  17  20
ATOM     20  C   UNL d   1     -47.659  29.446  35.496  0.00  0.00     0.196 C 
ATOM     21  O   UNL d   1     -47.606  29.297  36.306  0.00  0.00    -0.287 OA
ATOM     22  C   UNL d   1     -47.100  29.929  35.128  0.00  0.00     0.045 C 
ENDBRANCH  17  20
ENDBRANCH   2  14
TORSDOF 5
ENDMDL
MODEL 2
REMARK VINA RESULT:      53.5      1.256      1.714
REMARK  5 active torsions:
REMARK  status: ('A' for Active; 'I' for Inactive)
REMARK    1  A    between atoms: N_8  and  C_2 
REMARK    2  A    between atoms: C_6  and  C_5 
REMARK    3  A    between atoms: C_7  and  C_6 
REMARK       I    between atoms: N_9  and  C_7 
REMARK    4  A    between atoms: C_18  and  N_9 
REMARK    5  A    between atoms: C_11  and  C_12 
ROOT
ATOM      1  C   UNL d   1     -49.201  27.364  33.703  0.00  0.00     0.280 C 
ATOM      2  N   UNL d   1     -48.579  27.327  34.254  0.00  0.00    -0.208 NA
ATOM      3  O   UNL d   1     -49.579  28.078  33.557  0.00  0.00    -0.265 OA
ENDROOT
BRANCH   1   4
ATOM      4  C   UNL d   1     -49.431  26.683  33.311  0.00  0.00     0.074 C 
BRANCH   4   5
ATOM      5  C   UNL d   1     -50.209  26.415  33.367  0.00  0.00     0.093 A 
ATOM      6  C   UNL d   1     -50.439  25.623  33.386  0.00  0.00     0.272 A 
ATOM      7  N   UNL d   1     -51.261  25.596  33.444  0.00  0.00    -0.251 N 
ATOM      8  O   UNL d   1     -49.944  24.962  33.354  0.00  0.00    -0.266 OA
ATOM      9  C   UNL d   1     -51.542  26.379  33.460  0.00  0.00     0.182 A 
ATOM     10  C   UNL d   1     -51.732  24.922  33.479  0.00  0.00     0.104 C 
ATOM     11  S   UNL d   1     -50.885  26.874  33.412  0.00  0.00    -0.045 SA
BRANCH   9  12
ATOM     12  N   UNL d   1     -52.333  26.610  33.514  0.00  0.00    -0.219 NA
ATOM     13  C   UNL d   1     -52.935  26.089  33.306  0.00  0.00     0.122 C 
ENDBRANCH   9  12
ENDBRANCH   4   5
ENDBRANCH   1   4
BRANCH   2  14
ATOM     14  C   UNL d   1     -48.347  28.011  34.650  0.00  0.00     0.085 A 
ATOM     15  C   UNL d   1     -48.317  28.027  35.485  0.00  0.00     0.019 A 
ATOM     16  C   UNL d   1     -48.084  28.715  35.876  0.00  0.00     0.005 A 
ATOM     17  C   UNL d   1     -47.877  29.392  35.442  0.00  0.00     0.039 A 
ATOM     18  C   UNL d   1     -47.906  29.376  34.618  0.00  0.00     0.005 A 
ATOM     19  C   UNL d   1     -48.142  28.683  34.222  0.00  0.00     0.019 A 
BRANCH  17  20
ATOM     20  C   UNL d   1     -47.645  30.076  35.834  0.00  0.00     0.196 C 
ATOM     21  O   UNL d   1     -47.838  30.817  35.526  0.00  0.00    -0.287 OA
ATOM     22  C   UNL d   1     -47.217  30.020  36.538  0.00  0.00     0.045 C 
ENDBRANCH  17  20
ENDBRANCH   2  14
TORSDOF 5
ENDMDL
