MODEL 1
REMARK VINA RESULT:      25.9      0.000      0.000
REMARK  9 active torsions:
REMARK  status: ('A' for Active; 'I' for Inactive)
REMARK    1  A    between atoms: N_2  and  S_1 
REMARK    2  A    between atoms: C_12  and  S_1 
REMARK    3  A    between atoms: C_4  and  N_2 
REMARK    4  A    between atoms: N_6  and  C_8 
REMARK       I    between atoms: C_9  and  N_6 
REMARK    5  A    between atoms: O_22  and  C_7 
REMARK    6  A    between atoms: C_8  and  N_15 
REMARK    7  A    between atoms: C_16  and  C_9 
REMARK    8  A    between atoms: O_23  and  C_10 
REMARK    9  A    between atoms: N_15  and  C_21 
ROOT
ATOM      1  C   UNL d   1      45.699 -15.647  44.862  0.00  0.00     0.105 A 
ATOM      2  C   UNL d   1      46.400 -16.045  44.922  0.00  0.00     0.015 A 
ATOM      3  C   UNL d   1      44.990 -16.060  44.829  0.00  0.00     0.015 A 
ATOM      4  C   UNL d   1      45.694 -17.287  44.917  0.00  0.00     0.084 A 
ATOM      5  C   UNL d   1      46.424 -16.857  44.951  0.00  0.00     0.020 A 
ATOM      6  C   UNL d   1      44.994 -16.870  44.857  0.00  0.00     0.020 A 
ENDROOT
BRANCH   1   7
ATOM      7  S   UNL d   1      45.682 -14.812  44.833  0.00  0.00     0.287 S 
ATOM      8  O   UNL d   1      46.513 -14.805  44.954  0.00  0.00    -0.198 OA
ATOM      9  O   UNL d   1      44.869 -14.830  44.715  0.00  0.00    -0.198 OA
BRANCH   7  10
ATOM     10  N   UNL d   1      45.689 -13.981  44.807  0.00  0.00    -0.139 NA
BRANCH  10  11
ATOM     11  C   UNL d   1      45.394 -13.562  44.155  0.00  0.00     0.182 A 
ATOM     12  N   UNL d   1      45.878 -13.367  43.552  0.00  0.00    -0.185 NA
ATOM     13  C   UNL d   1      45.596 -12.950  42.896  0.00  0.00     0.274 A 
ATOM     14  N   UNL d   1      44.825 -12.737  42.859  0.00  0.00    -0.181 NA
ATOM     15  C   UNL d   1      44.306 -12.923  43.463  0.00  0.00     0.185 A 
ATOM     16  C   UNL d   1      44.614 -13.360  44.145  0.00  0.00     0.084 A 
BRANCH  13  17
ATOM     17  O   UNL d   1      46.106 -12.743  42.258  0.00  0.00    -0.297 OA
ATOM     18  C   UNL d   1      45.862 -12.220  41.676  0.00  0.00     0.185 C 
ENDBRANCH  13  17
BRANCH  15  19
ATOM     19  O   UNL d   1      43.517 -12.688  43.394  0.00  0.00    -0.312 OA
ATOM     20  C   UNL d   1      42.928 -13.250  43.263  0.00  0.00     0.183 C 
ENDBRANCH  15  19
ENDBRANCH  10  11
ENDBRANCH   7  10
ENDBRANCH   1   7
BRANCH   4  21
ATOM     21  N   UNL d   1      45.677 -18.114  44.944  0.00  0.00    -0.217 NA
BRANCH  21  22
ATOM     22  C   UNL d   1      46.105 -18.540  44.409  0.00  0.00     0.223 C 
ATOM     23  S   UNL d   1      46.580 -19.177  44.663  0.00  0.00    -0.037 SA
BRANCH  22  24
ATOM     24  N   UNL d   1      46.072 -18.344  43.619  0.00  0.00    -0.183 NA
ATOM     25  C   UNL d   1      46.333 -18.864  43.044  0.00  0.00     0.257 C 
ATOM     26  O   UNL d   1      46.642 -19.614  43.280  0.00  0.00    -0.270 OA
BRANCH  25  27
ATOM     27  C   UNL d   1      46.300 -18.666  42.244  0.00  0.00     0.073 C 
ATOM     28  C   UNL d   1      46.646 -17.925  42.413  0.00  0.00     0.009 C 
ATOM     29  C   UNL d   1      45.955 -19.404  42.075  0.00  0.00     0.009 C 
ATOM     30  C   UNL d   1      46.266 -18.466  41.437  0.00  0.00     0.009 C 
ENDBRANCH  25  27
ENDBRANCH  22  24
ENDBRANCH  21  22
ENDBRANCH   4  21
TORSDOF 9
ENDMDL
