MODEL 1
REMARK VINA RESULT:      -2.9      0.000      0.000
REMARK  2 active torsions:
REMARK  status: ('A' for Active; 'I' for Inactive)
REMARK    1  A    between atoms: C_5  and  C_1 
REMARK    2  A    between atoms: C_7  and  N_2 
ROOT
ATOM      1  C   UNL d   1      31.409  15.986 -24.044  0.00  0.00     0.129 A 
ATOM      2  N   UNL d   1      31.197  16.780 -24.181  0.00  0.00    -0.302 N 
ATOM      3  C   UNL d   1      30.710  15.545 -24.002  0.00  0.00     0.025 A 
ATOM      4  C   UNL d   1      30.374  16.824 -24.222  0.00  0.00     0.064 A 
ATOM      5  C   UNL d   1      30.071  16.057 -24.111  0.00  0.00     0.018 A 
ATOM      6  C   UNL d   1      29.853  17.458 -24.346  0.00  0.00     0.018 A 
ATOM      7  C   UNL d   1      29.251  15.932 -24.124  0.00  0.00     0.002 A 
ATOM      8  C   UNL d   1      29.042  17.330 -24.358  0.00  0.00     0.002 A 
ATOM      9  C   UNL d   1      28.742  16.570 -24.248  0.00  0.00     0.000 A 
ENDROOT
BRANCH   2  10
ATOM     10  C   UNL d   1      31.720  17.416 -24.262  0.00  0.00     0.064 A 
ATOM     11  C   UNL d   1      31.971  17.636 -25.015  0.00  0.00     0.018 A 
ATOM     12  C   UNL d   1      32.490  18.268 -25.097  0.00  0.00     0.002 A 
ATOM     13  C   UNL d   1      32.757  18.677 -24.432  0.00  0.00     0.000 A 
ATOM     14  C   UNL d   1      32.502  18.452 -23.677  0.00  0.00     0.002 A 
ATOM     15  C   UNL d   1      31.981  17.818 -23.599  0.00  0.00     0.018 A 
ENDBRANCH   2  10
BRANCH   1  16
ATOM     16  C   UNL d   1      32.176  15.695 -23.966  0.00  0.00     0.228 C 
ATOM     17  O   UNL d   1      32.524  15.644 -23.222  0.00  0.00    -0.643 OA
ATOM     18  O   UNL d   1      32.596  15.453 -24.638  0.00  0.00    -0.643 OA
ENDBRANCH   1  16
TORSDOF 2
ENDMDL
MODEL 2
REMARK VINA RESULT:      -2.5      1.151      2.123
REMARK  2 active torsions:
REMARK  status: ('A' for Active; 'I' for Inactive)
REMARK    1  A    between atoms: C_5  and  C_1 
REMARK    2  A    between atoms: C_7  and  N_2 
ROOT
ATOM      1  C   UNL d   1      31.183  17.632 -24.338  0.00  0.00     0.129 A 
ATOM      2  N   UNL d   1      31.207  16.809 -24.209  0.00  0.00    -0.302 N 
ATOM      3  C   UNL d   1      30.389  17.846 -24.431  0.00  0.00     0.025 A 
ATOM      4  C   UNL d   1      30.433  16.522 -24.223  0.00  0.00     0.064 A 
ATOM      5  C   UNL d   1      29.925  17.166 -24.361  0.00  0.00     0.018 A 
ATOM      6  C   UNL d   1      30.117  15.761 -24.129  0.00  0.00     0.018 A 
ATOM      7  C   UNL d   1      29.106  17.042 -24.404  0.00  0.00     0.002 A 
ATOM      8  C   UNL d   1      29.305  15.643 -24.172  0.00  0.00     0.002 A 
ATOM      9  C   UNL d   1      28.802  16.280 -24.309  0.00  0.00     0.000 A 
ENDROOT
BRANCH   2  10
ATOM     10  C   UNL d   1      31.888  16.356 -24.087  0.00  0.00     0.064 A 
ATOM     11  C   UNL d   1      32.168  16.248 -23.321  0.00  0.00     0.018 A 
ATOM     12  C   UNL d   1      32.845  15.798 -23.198  0.00  0.00     0.002 A 
ATOM     13  C   UNL d   1      33.240  15.458 -23.838  0.00  0.00     0.000 A 
ATOM     14  C   UNL d   1      32.955  15.568 -24.608  0.00  0.00     0.002 A 
ATOM     15  C   UNL d   1      32.276  16.021 -24.725  0.00  0.00     0.018 A 
ENDBRANCH   2  10
BRANCH   1  16
ATOM     16  C   UNL d   1      31.832  18.138 -24.367  0.00  0.00     0.228 C 
ATOM     17  O   UNL d   1      32.133  18.463 -23.674  0.00  0.00    -0.643 OA
ATOM     18  O   UNL d   1      32.181  18.318 -25.097  0.00  0.00    -0.643 OA
ENDBRANCH   1  16
TORSDOF 2
ENDMDL
MODEL 3
REMARK VINA RESULT:      -1.5      0.919      2.915
REMARK  2 active torsions:
REMARK  status: ('A' for Active; 'I' for Inactive)
REMARK    1  A    between atoms: C_5  and  C_1 
REMARK    2  A    between atoms: C_7  and  N_2 
ROOT
ATOM      1  C   UNL d   1      32.699  16.783 -23.633  0.00  0.00     0.129 A 
ATOM      2  N   UNL d   1      32.059  17.010 -24.116  0.00  0.00    -0.302 N 
ATOM      3  C   UNL d   1      33.241  17.408 -23.628  0.00  0.00     0.025 A 
ATOM      4  C   UNL d   1      32.209  17.769 -24.404  0.00  0.00     0.064 A 
ATOM      5  C   UNL d   1      32.944  18.016 -24.101  0.00  0.00     0.018 A 
ATOM      6  C   UNL d   1      31.779  18.273 -24.903  0.00  0.00     0.018 A 
ATOM      7  C   UNL d   1      33.240  18.765 -24.299  0.00  0.00     0.002 A 
ATOM      8  C   UNL d   1      32.076  19.014 -25.097  0.00  0.00     0.002 A 
ATOM      9  C   UNL d   1      32.803  19.259 -24.797  0.00  0.00     0.000 A 
ENDROOT
BRANCH   2  10
ATOM     10  C   UNL d   1      31.388  16.555 -24.279  0.00  0.00     0.064 A 
ATOM     11  C   UNL d   1      30.714  16.652 -23.818  0.00  0.00     0.018 A 
ATOM     12  C   UNL d   1      30.046  16.201 -23.979  0.00  0.00     0.002 A 
ATOM     13  C   UNL d   1      30.053  15.655 -24.599  0.00  0.00     0.000 A 
ATOM     14  C   UNL d   1      30.733  15.560 -25.061  0.00  0.00     0.002 A 
ATOM     15  C   UNL d   1      31.400  16.016 -24.895  0.00  0.00     0.018 A 
ENDBRANCH   2  10
BRANCH   1  16
ATOM     16  C   UNL d   1      32.776  16.066 -23.234  0.00  0.00     0.228 C 
ATOM     17  O   UNL d   1      33.232  15.462 -23.556  0.00  0.00    -0.643 OA
ATOM     18  O   UNL d   1      32.392  15.956 -22.507  0.00  0.00    -0.643 OA
ENDBRANCH   1  16
TORSDOF 2
ENDMDL
MODEL 4
REMARK VINA RESULT:      -0.6      5.239      6.737
REMARK  2 active torsions:
REMARK  status: ('A' for Active; 'I' for Inactive)
REMARK    1  A    between atoms: C_5  and  C_1 
REMARK    2  A    between atoms: C_7  and  N_2 
ROOT
ATOM      1  C   UNL d   1      32.591  21.467 -21.122  0.00  0.00     0.129 A 
ATOM      2  N   UNL d   1      32.655  22.285 -21.264  0.00  0.00    -0.302 N 
ATOM      3  C   UNL d   1      32.643  21.352 -20.304  0.00  0.00     0.025 A 
ATOM      4  C   UNL d   1      32.744  22.668 -20.538  0.00  0.00     0.064 A 
ATOM      5  C   UNL d   1      32.737  22.089 -19.942  0.00  0.00     0.018 A 
ATOM      6  C   UNL d   1      32.832  23.468 -20.335  0.00  0.00     0.018 A 
ATOM      7  C   UNL d   1      32.817  22.314 -19.147  0.00  0.00     0.002 A 
ATOM      8  C   UNL d   1      32.912  23.687 -19.547  0.00  0.00     0.002 A 
ATOM      9  C   UNL d   1      32.904  23.113 -18.956  0.00  0.00     0.000 A 
ENDROOT
BRANCH   2  10
ATOM     10  C   UNL d   1      32.633  22.653 -22.005  0.00  0.00     0.064 A 
ATOM     11  C   UNL d   1      31.994  23.137 -22.194  0.00  0.00     0.018 A 
ATOM     12  C   UNL d   1      31.971  23.503 -22.930  0.00  0.00     0.002 A 
ATOM     13  C   UNL d   1      32.581  23.386 -23.473  0.00  0.00     0.000 A 
ATOM     14  C   UNL d   1      33.222  22.899 -23.279  0.00  0.00     0.002 A 
ATOM     15  C   UNL d   1      33.241  22.534 -22.539  0.00  0.00     0.018 A 
ENDBRANCH   2  10
BRANCH   1  16
ATOM     16  C   UNL d   1      32.495  20.881 -21.693  0.00  0.00     0.228 C 
ATOM     17  O   UNL d   1      31.740  20.643 -21.916  0.00  0.00    -0.643 OA
ATOM     18  O   UNL d   1      33.161  20.532 -22.042  0.00  0.00    -0.643 OA
ENDBRANCH   1  16
TORSDOF 2
ENDMDL
MODEL 5
REMARK VINA RESULT:      -0.6      1.673      2.927
REMARK  2 active torsions:
REMARK  status: ('A' for Active; 'I' for Inactive)
REMARK    1  A    between atoms: C_5  and  C_1 
REMARK    2  A    between atoms: C_7  and  N_2 
ROOT
ATOM      1  C   UNL d   1      29.767  15.904 -23.407  0.00  0.00     0.129 A 
ATOM      2  N   UNL d   1      29.998  16.590 -23.818  0.00  0.00    -0.302 N 
ATOM      3  C   UNL d   1      30.448  15.453 -23.273  0.00  0.00     0.025 A 
ATOM      4  C   UNL d   1      30.815  16.559 -23.935  0.00  0.00     0.064 A 
ATOM      5  C   UNL d   1      31.094  15.852 -23.596  0.00  0.00     0.018 A 
ATOM      6  C   UNL d   1      31.348  17.077 -24.304  0.00  0.00     0.018 A 
ATOM      7  C   UNL d   1      31.903  15.670 -23.630  0.00  0.00     0.002 A 
ATOM      8  C   UNL d   1      32.148  16.893 -24.335  0.00  0.00     0.002 A 
ATOM      9  C   UNL d   1      32.424  16.193 -23.999  0.00  0.00     0.000 A 
ENDROOT
BRANCH   2  10
ATOM     10  C   UNL d   1      29.498  17.199 -24.068  0.00  0.00     0.064 A 
ATOM     11  C   UNL d   1      29.234  17.209 -24.847  0.00  0.00     0.018 A 
ATOM     12  C   UNL d   1      28.736  17.814 -25.097  0.00  0.00     0.002 A 
ATOM     13  C   UNL d   1      28.504  18.405 -24.571  0.00  0.00     0.000 A 
ATOM     14  C   UNL d   1      28.772  18.392 -23.787  0.00  0.00     0.002 A 
ATOM     15  C   UNL d   1      29.271  17.783 -23.542  0.00  0.00     0.018 A 
ENDBRANCH   2  10
BRANCH   1  16
ATOM     16  C   UNL d   1      29.000  15.711 -23.177  0.00  0.00     0.228 C 
ATOM     17  O   UNL d   1      28.454  15.453 -23.736  0.00  0.00    -0.643 OA
ATOM     18  O   UNL d   1      28.779  15.778 -22.381  0.00  0.00    -0.643 OA
ENDBRANCH   1  16
TORSDOF 2
ENDMDL
MODEL 6
REMARK VINA RESULT:      -0.4      4.988      6.464
REMARK  2 active torsions:
REMARK  status: ('A' for Active; 'I' for Inactive)
REMARK    1  A    between atoms: C_5  and  C_1 
REMARK    2  A    between atoms: C_7  and  N_2 
ROOT
ATOM      1  C   UNL d   1      32.835  22.286 -22.674  0.00  0.00     0.129 A 
ATOM      2  N   UNL d   1      32.793  22.101 -21.863  0.00  0.00    -0.302 N 
ATOM      3  C   UNL d   1      32.999  21.584 -23.081  0.00  0.00     0.025 A 
ATOM      4  C   UNL d   1      32.929  21.291 -21.775  0.00  0.00     0.064 A 
ATOM      5  C   UNL d   1      33.057  20.970 -22.531  0.00  0.00     0.018 A 
ATOM      6  C   UNL d   1      32.955  20.798 -21.108  0.00  0.00     0.018 A 
ATOM      7  C   UNL d   1      33.210  20.159 -22.615  0.00  0.00     0.002 A 
ATOM      8  C   UNL d   1      33.106  19.995 -21.195  0.00  0.00     0.002 A 
ATOM      9  C   UNL d   1      33.233  19.677 -21.945  0.00  0.00     0.000 A 
ENDROOT
BRANCH   2  10
ATOM     10  C   UNL d   1      32.640  22.634 -21.250  0.00  0.00     0.064 A 
ATOM     11  C   UNL d   1      31.908  23.009 -21.216  0.00  0.00     0.018 A 
ATOM     12  C   UNL d   1      31.755  23.540 -20.607  0.00  0.00     0.002 A 
ATOM     13  C   UNL d   1      32.330  23.695 -20.035  0.00  0.00     0.000 A 
ATOM     14  C   UNL d   1      33.065  23.316 -20.073  0.00  0.00     0.002 A 
ATOM     15  C   UNL d   1      33.214  22.785 -20.686  0.00  0.00     0.018 A 
ENDBRANCH   2  10
BRANCH   1  16
ATOM     16  C   UNL d   1      32.733  23.032 -23.008  0.00  0.00     0.228 C 
ATOM     17  O   UNL d   1      33.241  23.647 -22.805  0.00  0.00    -0.643 OA
ATOM     18  O   UNL d   1      32.118  23.162 -23.547  0.00  0.00    -0.643 OA
ENDBRANCH   1  16
TORSDOF 2
ENDMDL
