MODEL 1
REMARK VINA RESULT:      -7.5      0.000      0.000
REMARK  4 active torsions:
REMARK  status: ('A' for Active; 'I' for Inactive)
REMARK    1  A    between atoms: S_2  and  C_1 
REMARK    2  A    between atoms: C_10  and  S_2 
REMARK    3  A    between atoms: N_7  and  C_5 
REMARK    4  A    between atoms: C_11  and  N_7 
ROOT
ATOM      1  C   UNL d   1     -48.259  12.489  23.021  0.00  0.00     0.187 A 
ATOM      2  N   UNL d   1     -47.561  12.918  23.071  0.00  0.00    -0.208 NA
ATOM      3  C   UNL d   1     -48.148  11.765  23.402  0.00  0.00     0.118 A 
ATOM      4  C   UNL d   1     -47.017  12.462  23.483  0.00  0.00     0.196 A 
ATOM      5  S   UNL d   1     -47.374  11.759  23.685  0.00  0.00    -0.035 SA
ATOM      6 CL   UNL d   1     -48.699  11.169  23.484  0.00  0.00    -0.073 Cl
ENDROOT
BRANCH   1   7
ATOM      7  S   UNL d   1     -48.956  12.735  22.652  0.00  0.00     0.228 S 
ATOM      8  O   UNL d   1     -48.975  13.339  23.208  0.00  0.00    -0.216 OA
ATOM      9  O   UNL d   1     -48.929  12.127  22.101  0.00  0.00    -0.216 OA
BRANCH   7  10
ATOM     10  C   UNL d   1     -49.654  13.043  22.341  0.00  0.00     0.089 A 
ATOM     11  C   UNL d   1     -50.270  13.275  22.851  0.00  0.00     0.011 A 
ATOM     12  C   UNL d   1     -50.973  13.586  22.533  0.00  0.00     0.001 A 
ATOM     13  C   UNL d   1     -51.064  13.665  21.715  0.00  0.00     0.000 A 
ATOM     14  C   UNL d   1     -50.441  13.430  21.209  0.00  0.00     0.001 A 
ATOM     15  C   UNL d   1     -49.742  13.121  21.521  0.00  0.00     0.011 A 
ENDBRANCH   7  10
ENDBRANCH   1   7
BRANCH   4  16
ATOM     16  N   UNL d   1     -46.243  12.682  23.659  0.00  0.00    -0.221 NA
BRANCH  16  17
ATOM     17  C   UNL d   1     -45.695  12.770  23.053  0.00  0.00     0.087 A 
ATOM     18  C   UNL d   1     -45.106  12.216  22.959  0.00  0.00     0.061 A 
ATOM     19  C   UNL d   1     -44.556  12.299  22.356  0.00  0.00     0.197 A 
ATOM     20  O   UNL d   1     -43.963  11.739  22.263  0.00  0.00    -0.286 OA
ATOM     21  C   UNL d   1     -44.601  12.943  21.843  0.00  0.00     0.042 A 
ATOM     22  C   UNL d   1     -45.200  13.501  21.942  0.00  0.00     0.005 A 
ATOM     23  C   UNL d   1     -45.748  13.419  22.545  0.00  0.00     0.019 A 
ENDBRANCH  16  17
ENDBRANCH   4  16
TORSDOF 4
ENDMDL
MODEL 2
REMARK VINA RESULT:      -7.3      1.201      4.413
REMARK  4 active torsions:
REMARK  status: ('A' for Active; 'I' for Inactive)
REMARK    1  A    between atoms: S_2  and  C_1 
REMARK    2  A    between atoms: C_10  and  S_2 
REMARK    3  A    between atoms: N_7  and  C_5 
REMARK    4  A    between atoms: C_11  and  N_7 
ROOT
ATOM      1  C   UNL d   1     -47.825  12.522  23.106  0.00  0.00     0.187 A 
ATOM      2  N   UNL d   1     -48.369  13.122  23.243  0.00  0.00    -0.208 NA
ATOM      3  C   UNL d   1     -48.210  11.796  23.186  0.00  0.00     0.118 A 
ATOM      4  C   UNL d   1     -49.092  12.769  23.408  0.00  0.00     0.196 A 
ATOM      5  S   UNL d   1     -48.996  11.961  23.373  0.00  0.00    -0.035 SA
ATOM      6 CL   UNL d   1     -47.878  11.057  23.097  0.00  0.00    -0.073 Cl
ENDROOT
BRANCH   1   7
ATOM      7  S   UNL d   1     -47.027  12.623  22.920  0.00  0.00     0.228 S 
ATOM      8  O   UNL d   1     -47.275  12.731  22.145  0.00  0.00    -0.216 OA
ATOM      9  O   UNL d   1     -46.787  12.514  23.698  0.00  0.00    -0.216 OA
BRANCH   7  10
ATOM     10  C   UNL d   1     -46.254  12.735  22.654  0.00  0.00     0.089 A 
ATOM     11  C   UNL d   1     -46.065  13.404  22.196  0.00  0.00     0.011 A 
ATOM     12  C   UNL d   1     -45.284  13.513  21.930  0.00  0.00     0.001 A 
ATOM     13  C   UNL d   1     -44.697  12.962  22.116  0.00  0.00     0.000 A 
ATOM     14  C   UNL d   1     -44.895  12.292  22.577  0.00  0.00     0.001 A 
ATOM     15  C   UNL d   1     -45.668  12.180  22.843  0.00  0.00     0.011 A 
ENDBRANCH   7  10
ENDBRANCH   1   7
BRANCH   4  16
ATOM     16  N   UNL d   1     -49.791  13.169  23.579  0.00  0.00    -0.221 NA
BRANCH  16  17
ATOM     17  C   UNL d   1     -50.209  13.537  22.975  0.00  0.00     0.087 A 
ATOM     18  C   UNL d   1     -50.185  14.348  22.903  0.00  0.00     0.061 A 
ATOM     19  C   UNL d   1     -50.600  14.720  22.302  0.00  0.00     0.197 A 
ATOM     20  O   UNL d   1     -50.574  15.538  22.233  0.00  0.00    -0.286 OA
ATOM     21  C   UNL d   1     -51.043  14.273  21.769  0.00  0.00     0.042 A 
ATOM     22  C   UNL d   1     -51.064  13.452  21.845  0.00  0.00     0.005 A 
ATOM     23  C   UNL d   1     -50.650  13.081  22.446  0.00  0.00     0.019 A 
ENDBRANCH  16  17
ENDBRANCH   4  16
TORSDOF 4
ENDMDL
MODEL 3
REMARK VINA RESULT:      -6.6      8.425      9.766
REMARK  4 active torsions:
REMARK  status: ('A' for Active; 'I' for Inactive)
REMARK    1  A    between atoms: S_2  and  C_1 
REMARK    2  A    between atoms: C_10  and  S_2 
REMARK    3  A    between atoms: N_7  and  C_5 
REMARK    4  A    between atoms: C_11  and  N_7 
ROOT
ATOM      1  C   UNL d   1     -39.909  14.388  18.439  0.00  0.00     0.187 A 
ATOM      2  N   UNL d   1     -39.898  14.126  19.217  0.00  0.00    -0.208 NA
ATOM      3  C   UNL d   1     -40.533  14.921  18.351  0.00  0.00     0.118 A 
ATOM      4  C   UNL d   1     -40.516  14.496  19.612  0.00  0.00     0.196 A 
ATOM      5  S   UNL d   1     -40.903  14.980  19.086  0.00  0.00    -0.035 SA
ATOM      6 CL   UNL d   1     -40.744  15.314  17.669  0.00  0.00    -0.073 Cl
ENDROOT
BRANCH   1   7
ATOM      7  S   UNL d   1     -39.385  14.160  17.842  0.00  0.00     0.228 S 
ATOM      8  O   UNL d   1     -39.839  13.480  17.776  0.00  0.00    -0.216 OA
ATOM      9  O   UNL d   1     -38.937  14.845  17.915  0.00  0.00    -0.216 OA
BRANCH   7  10
ATOM     10  C   UNL d   1     -38.909  13.862  17.239  0.00  0.00     0.089 A 
ATOM     11  C   UNL d   1     -38.482  13.158  17.355  0.00  0.00     0.011 A 
ATOM     12  C   UNL d   1     -38.002  12.861  16.743  0.00  0.00     0.001 A 
ATOM     13  C   UNL d   1     -37.948  13.260  16.022  0.00  0.00     0.000 A 
ATOM     14  C   UNL d   1     -38.381  13.968  15.912  0.00  0.00     0.001 A 
ATOM     15  C   UNL d   1     -38.858  14.266  16.516  0.00  0.00     0.011 A 
ENDBRANCH   7  10
ENDBRANCH   1   7
BRANCH   4  16
ATOM     16  N   UNL d   1     -40.706  14.390  20.407  0.00  0.00    -0.221 NA
BRANCH  16  17
ATOM     17  C   UNL d   1     -40.253  14.755  20.988  0.00  0.00     0.087 A 
ATOM     18  C   UNL d   1     -39.676  14.332  21.375  0.00  0.00     0.061 A 
ATOM     19  C   UNL d   1     -39.221  14.691  21.955  0.00  0.00     0.197 A 
ATOM     20  O   UNL d   1     -38.639  14.261  22.344  0.00  0.00    -0.286 OA
ATOM     21  C   UNL d   1     -39.349  15.483  22.147  0.00  0.00     0.042 A 
ATOM     22  C   UNL d   1     -39.935  15.908  21.752  0.00  0.00     0.005 A 
ATOM     23  C   UNL d   1     -40.389  15.548  21.173  0.00  0.00     0.019 A 
ENDBRANCH  16  17
ENDBRANCH   4  16
TORSDOF 4
ENDMDL
MODEL 4
REMARK VINA RESULT:      -6.5      8.157      9.371
REMARK  4 active torsions:
REMARK  status: ('A' for Active; 'I' for Inactive)
REMARK    1  A    between atoms: S_2  and  C_1 
REMARK    2  A    between atoms: C_10  and  S_2 
REMARK    3  A    between atoms: N_7  and  C_5 
REMARK    4  A    between atoms: C_11  and  N_7 
ROOT
ATOM      1  C   UNL d   1     -40.044  14.574  20.547  0.00  0.00     0.187 A 
ATOM      2  N   UNL d   1     -39.985  14.103  19.877  0.00  0.00    -0.208 NA
ATOM      3  C   UNL d   1     -40.651  15.121  20.430  0.00  0.00     0.118 A 
ATOM      4  C   UNL d   1     -40.556  14.357  19.344  0.00  0.00     0.196 A 
ATOM      5  S   UNL d   1     -40.961  14.977  19.680  0.00  0.00    -0.035 SA
ATOM      6 CL   UNL d   1     -40.897  15.694  20.955  0.00  0.00    -0.073 Cl
ENDROOT
BRANCH   1   7
ATOM      7  S   UNL d   1     -39.577  14.514  21.226  0.00  0.00     0.228 S 
ATOM      8  O   UNL d   1     -40.089  13.918  21.462  0.00  0.00    -0.216 OA
ATOM      9  O   UNL d   1     -39.070  15.112  20.981  0.00  0.00    -0.216 OA
BRANCH   7  10
ATOM     10  C   UNL d   1     -39.164  14.393  21.928  0.00  0.00     0.089 A 
ATOM     11  C   UNL d   1     -38.726  15.015  22.267  0.00  0.00     0.011 A 
ATOM     12  C   UNL d   1     -38.310  14.888  22.976  0.00  0.00     0.001 A 
ATOM     13  C   UNL d   1     -38.329  14.150  23.346  0.00  0.00     0.000 A 
ATOM     14  C   UNL d   1     -38.771  13.528  23.000  0.00  0.00     0.001 A 
ATOM     15  C   UNL d   1     -39.185  13.651  22.297  0.00  0.00     0.011 A 
ENDBRANCH   7  10
ENDBRANCH   1   7
BRANCH   4  16
ATOM     16  N   UNL d   1     -40.689  14.036  18.597  0.00  0.00    -0.221 NA
BRANCH  16  17
ATOM     17  C   UNL d   1     -40.257  14.305  17.953  0.00  0.00     0.087 A 
ATOM     18  C   UNL d   1     -39.583  13.909  17.724  0.00  0.00     0.061 A 
ATOM     19  C   UNL d   1     -39.148  14.174  17.082  0.00  0.00     0.197 A 
ATOM     20  O   UNL d   1     -38.469  13.772  16.853  0.00  0.00    -0.286 OA
ATOM     21  C   UNL d   1     -39.393  14.843  16.666  0.00  0.00     0.042 A 
ATOM     22  C   UNL d   1     -40.076  15.241  16.901  0.00  0.00     0.005 A 
ATOM     23  C   UNL d   1     -40.510  14.976  17.543  0.00  0.00     0.019 A 
ENDBRANCH  16  17
ENDBRANCH   4  16
TORSDOF 4
ENDMDL
MODEL 5
REMARK VINA RESULT:      -6.3      8.446      8.999
REMARK  4 active torsions:
REMARK  status: ('A' for Active; 'I' for Inactive)
REMARK    1  A    between atoms: S_2  and  C_1 
REMARK    2  A    between atoms: C_10  and  S_2 
REMARK    3  A    between atoms: N_7  and  C_5 
REMARK    4  A    between atoms: C_11  and  N_7 
ROOT
ATOM      1  C   UNL d   1     -39.982  15.302  20.011  0.00  0.00     0.187 A 
ATOM      2  N   UNL d   1     -39.226  15.150  20.291  0.00  0.00    -0.208 NA
ATOM      3  C   UNL d   1     -40.455  15.534  20.647  0.00  0.00     0.118 A 
ATOM      4  C   UNL d   1     -39.229  15.287  21.101  0.00  0.00     0.196 A 
ATOM      5  S   UNL d   1     -39.977  15.522  21.318  0.00  0.00    -0.035 SA
ATOM      6 CL   UNL d   1     -41.244  15.738  20.616  0.00  0.00    -0.073 Cl
ENDROOT
BRANCH   1   7
ATOM      7  S   UNL d   1     -40.232  15.235  19.227  0.00  0.00     0.228 S 
ATOM      8  O   UNL d   1     -39.797  15.916  19.084  0.00  0.00    -0.216 OA
ATOM      9  O   UNL d   1     -40.666  14.554  19.378  0.00  0.00    -0.216 OA
BRANCH   7  10
ATOM     10  C   UNL d   1     -40.437  15.239  18.428  0.00  0.00     0.089 A 
ATOM     11  C   UNL d   1     -40.305  14.563  17.961  0.00  0.00     0.011 A 
ATOM     12  C   UNL d   1     -40.513  14.572  17.155  0.00  0.00     0.001 A 
ATOM     13  C   UNL d   1     -40.850  15.246  16.817  0.00  0.00     0.000 A 
ATOM     14  C   UNL d   1     -40.981  15.922  17.293  0.00  0.00     0.001 A 
ATOM     15  C   UNL d   1     -40.775  15.917  18.092  0.00  0.00     0.011 A 
ENDBRANCH   7  10
ENDBRANCH   1   7
BRANCH   4  16
ATOM     16  N   UNL d   1     -38.581  15.201  21.603  0.00  0.00    -0.221 NA
BRANCH  16  17
ATOM     17  C   UNL d   1     -38.547  14.564  22.121  0.00  0.00     0.087 A 
ATOM     18  C   UNL d   1     -38.263  13.847  21.861  0.00  0.00     0.061 A 
ATOM     19  C   UNL d   1     -38.227  13.208  22.373  0.00  0.00     0.197 A 
ATOM     20  O   UNL d   1     -37.940  12.486  22.108  0.00  0.00    -0.286 OA
ATOM     21  C   UNL d   1     -38.480  13.291  23.154  0.00  0.00     0.042 A 
ATOM     22  C   UNL d   1     -38.767  14.020  23.413  0.00  0.00     0.005 A 
ATOM     23  C   UNL d   1     -38.803  14.658  22.901  0.00  0.00     0.019 A 
ENDBRANCH  16  17
ENDBRANCH   4  16
TORSDOF 4
ENDMDL
MODEL 6
REMARK VINA RESULT:      -6.1      1.656      4.682
REMARK  4 active torsions:
REMARK  status: ('A' for Active; 'I' for Inactive)
REMARK    1  A    between atoms: S_2  and  C_1 
REMARK    2  A    between atoms: C_10  and  S_2 
REMARK    3  A    between atoms: N_7  and  C_5 
REMARK    4  A    between atoms: C_11  and  N_7 
ROOT
ATOM      1  C   UNL d   1     -46.304  12.404  23.198  0.00  0.00     0.187 A 
ATOM      2  N   UNL d   1     -47.081  12.224  23.395  0.00  0.00    -0.208 NA
ATOM      3  C   UNL d   1     -46.264  13.202  22.992  0.00  0.00     0.118 A 
ATOM      4  C   UNL d   1     -47.523  12.911  23.311  0.00  0.00     0.196 A 
ATOM      5  S   UNL d   1     -47.026  13.507  23.065  0.00  0.00    -0.035 SA
ATOM      6 CL   UNL d   1     -45.598  13.611  22.759  0.00  0.00    -0.073 Cl
ENDROOT
BRANCH   1   7
ATOM      7  S   UNL d   1     -45.667  11.878  23.204  0.00  0.00     0.228 S 
ATOM      8  O   UNL d   1     -46.132  11.402  23.686  0.00  0.00    -0.216 OA
ATOM      9  O   UNL d   1     -45.210  12.360  22.721  0.00  0.00    -0.216 OA
BRANCH   7  10
ATOM     10  C   UNL d   1     -45.079  11.303  23.259  0.00  0.00     0.089 A 
ATOM     11  C   UNL d   1     -44.327  11.444  22.932  0.00  0.00     0.011 A 
ATOM     12  C   UNL d   1     -43.736  10.861  22.991  0.00  0.00     0.001 A 
ATOM     13  C   UNL d   1     -43.891  10.144  23.371  0.00  0.00     0.000 A 
ATOM     14  C   UNL d   1     -44.650  10.009  23.698  0.00  0.00     0.001 A 
ATOM     15  C   UNL d   1     -45.238  10.585  23.642  0.00  0.00     0.011 A 
ENDBRANCH   7  10
ENDBRANCH   1   7
BRANCH   4  16
ATOM     16  N   UNL d   1     -48.332  12.979  23.452  0.00  0.00    -0.221 NA
BRANCH  16  17
ATOM     17  C   UNL d   1     -48.869  12.728  22.884  0.00  0.00     0.087 A 
ATOM     18  C   UNL d   1     -49.023  13.198  22.237  0.00  0.00     0.061 A 
ATOM     19  C   UNL d   1     -49.558  12.951  21.667  0.00  0.00     0.197 A 
ATOM     20  O   UNL d   1     -49.711  13.428  21.016  0.00  0.00    -0.286 OA
ATOM     21  C   UNL d   1     -49.941  12.225  21.748  0.00  0.00     0.042 A 
ATOM     22  C   UNL d   1     -49.782  11.752  22.405  0.00  0.00     0.005 A 
ATOM     23  C   UNL d   1     -49.247  11.999  22.974  0.00  0.00     0.019 A 
ENDBRANCH  16  17
ENDBRANCH   4  16
TORSDOF 4
ENDMDL
