MODEL 1
REMARK VINA RESULT:      -7.2      0.000      0.000
REMARK  4 active torsions:
REMARK  status: ('A' for Active; 'I' for Inactive)
REMARK    1  A    between atoms: C_14  and  C_4 
REMARK       I    between atoms: C_6  and  N_8 
REMARK    2  A    between atoms: C_9  and  C_6 
REMARK    3  A    between atoms: N_8  and  C_14 
REMARK    4  A    between atoms: O_16  and  C_15 
ROOT
ATOM      1  C   UNL d   1      51.672  34.056  52.580  0.00  0.00     0.279 C 
ATOM      2  N   UNL d   1      51.854  33.266  52.720  0.00  0.00    -0.205 NA
ATOM      3  O   UNL d   1      52.279  34.615  52.531  0.00  0.00    -0.265 OA
ENDROOT
BRANCH   1   4
ATOM      4  C   UNL d   1      50.889  34.286  52.488  0.00  0.00     0.060 A 
ATOM      5  C   UNL d   1      50.538  34.261  51.742  0.00  0.00     0.029 A 
ATOM      6  C   UNL d   1      49.748  34.494  51.659  0.00  0.00     0.094 A 
ATOM      7  C   UNL d   1      49.309  34.751  52.317  0.00  0.00     0.024 A 
ATOM      8  C   UNL d   1      49.665  34.773  53.056  0.00  0.00     0.002 A 
ATOM      9  C   UNL d   1      50.455  34.543  53.153  0.00  0.00     0.005 A 
BRANCH   6  10
ATOM     10  O   UNL d   1      49.399  34.469  50.917  0.00  0.00    -0.328 OA
ATOM     11  C   UNL d   1      48.576  34.564  50.845  0.00  0.00     0.181 C 
ENDBRANCH   6  10
ENDBRANCH   1   4
BRANCH   2  12
ATOM     12  C   UNL d   1      52.638  33.034  52.812  0.00  0.00     0.123 C 
BRANCH  12  13
ATOM     13  C   UNL d   1      52.821  32.254  53.002  0.00  0.00     0.120 A 
ATOM     14  N   UNL d   1      52.512  31.581  52.641  0.00  0.00    -0.219 NA
ATOM     15  C   UNL d   1      52.845  30.918  53.002  0.00  0.00     0.180 A 
ATOM     16  N   UNL d   1      53.368  31.184  53.596  0.00  0.00    -0.282 N 
ATOM     17  S   UNL d   1      52.863  30.094  53.005  0.00  0.00    -0.048 SA
ATOM     18  C   UNL d   1      53.349  32.012  53.591  0.00  0.00     0.103 A 
ATOM     19  C   UNL d   1      53.697  30.524  53.953  0.00  0.00     0.089 A 
ATOM     20  C   UNL d   1      53.392  29.852  53.595  0.00  0.00     0.057 A 
ENDBRANCH  12  13
ENDBRANCH   2  12
TORSDOF 4
ENDMDL
MODEL 2
REMARK VINA RESULT:      -6.9      3.220      4.989
REMARK  4 active torsions:
REMARK  status: ('A' for Active; 'I' for Inactive)
REMARK    1  A    between atoms: C_14  and  C_4 
REMARK       I    between atoms: C_6  and  N_8 
REMARK    2  A    between atoms: C_9  and  C_6 
REMARK    3  A    between atoms: N_8  and  C_14 
REMARK    4  A    between atoms: O_16  and  C_15 
ROOT
ATOM      1  C   UNL d   1      53.903  31.286  53.425  0.00  0.00     0.279 C 
ATOM      2  N   UNL d   1      53.621  31.986  53.754  0.00  0.00    -0.205 NA
ATOM      3  O   UNL d   1      54.637  31.277  53.046  0.00  0.00    -0.265 OA
ENDROOT
BRANCH   1   4
ATOM      4  C   UNL d   1      53.453  30.601  53.474  0.00  0.00     0.060 A 
ATOM      5  C   UNL d   1      53.683  29.993  53.982  0.00  0.00     0.029 A 
ATOM      6  C   UNL d   1      53.223  29.306  54.024  0.00  0.00     0.094 A 
ATOM      7  C   UNL d   1      52.536  29.224  53.564  0.00  0.00     0.024 A 
ATOM      8  C   UNL d   1      52.313  29.833  53.061  0.00  0.00     0.002 A 
ATOM      9  C   UNL d   1      52.764  30.526  53.008  0.00  0.00     0.005 A 
BRANCH   6  10
ATOM     10  O   UNL d   1      53.453  28.702  54.530  0.00  0.00    -0.328 OA
ATOM     11  C   UNL d   1      53.241  28.734  55.334  0.00  0.00     0.181 C 
ENDBRANCH   6  10
ENDBRANCH   1   4
BRANCH   2  12
ATOM     12  C   UNL d   1      54.071  32.674  53.706  0.00  0.00     0.123 C 
BRANCH  12  13
ATOM     13  C   UNL d   1      53.756  33.393  53.951  0.00  0.00     0.120 A 
ATOM     14  N   UNL d   1      53.312  33.912  53.491  0.00  0.00    -0.219 NA
ATOM     15  C   UNL d   1      53.110  34.563  53.956  0.00  0.00     0.180 A 
ATOM     16  N   UNL d   1      53.433  34.445  54.717  0.00  0.00    -0.282 N 
ATOM     17  S   UNL d   1      52.712  35.285  53.963  0.00  0.00    -0.048 SA
ATOM     18  C   UNL d   1      53.832  33.719  54.708  0.00  0.00     0.103 A 
ATOM     19  C   UNL d   1      53.230  35.093  55.177  0.00  0.00     0.089 A 
ATOM     20  C   UNL d   1      52.789  35.611  54.721  0.00  0.00     0.057 A 
ENDBRANCH  12  13
ENDBRANCH   2  12
TORSDOF 4
ENDMDL
MODEL 3
REMARK VINA RESULT:      -6.8      2.661      5.205
REMARK  4 active torsions:
REMARK  status: ('A' for Active; 'I' for Inactive)
REMARK    1  A    between atoms: C_14  and  C_4 
REMARK       I    between atoms: C_6  and  N_8 
REMARK    2  A    between atoms: C_9  and  C_6 
REMARK    3  A    between atoms: N_8  and  C_14 
REMARK    4  A    between atoms: O_16  and  C_15 
ROOT
ATOM      1  C   UNL d   1      51.329  34.203  52.754  0.00  0.00     0.279 C 
ATOM      2  N   UNL d   1      50.622  34.563  52.975  0.00  0.00    -0.205 NA
ATOM      3  O   UNL d   1      51.377  33.800  52.035  0.00  0.00    -0.265 OA
ENDROOT
BRANCH   1   4
ATOM      4  C   UNL d   1      51.982  34.247  53.250  0.00  0.00     0.060 A 
ATOM      5  C   UNL d   1      52.231  33.577  53.662  0.00  0.00     0.029 A 
ATOM      6  C   UNL d   1      52.891  33.631  54.159  0.00  0.00     0.094 A 
ATOM      7  C   UNL d   1      53.301  34.349  54.247  0.00  0.00     0.024 A 
ATOM      8  C   UNL d   1      53.046  35.011  53.834  0.00  0.00     0.002 A 
ATOM      9  C   UNL d   1      52.388  34.972  53.333  0.00  0.00     0.005 A 
BRANCH   6  10
ATOM     10  O   UNL d   1      53.138  32.964  54.568  0.00  0.00    -0.328 OA
ATOM     11  C   UNL d   1      53.950  32.837  54.697  0.00  0.00     0.181 C 
ENDBRANCH   6  10
ENDBRANCH   1   4
BRANCH   2  12
ATOM     12  C   UNL d   1      49.966  34.520  52.479  0.00  0.00     0.123 C 
BRANCH  12  13
ATOM     13  C   UNL d   1      49.309  34.996  52.618  0.00  0.00     0.120 A 
ATOM     14  N   UNL d   1      49.144  35.405  53.313  0.00  0.00    -0.219 NA
ATOM     15  C   UNL d   1      48.432  35.811  53.212  0.00  0.00     0.180 A 
ATOM     16  N   UNL d   1      48.152  35.650  52.442  0.00  0.00    -0.282 N 
ATOM     17  S   UNL d   1      47.889  36.313  53.575  0.00  0.00    -0.048 SA
ATOM     18  C   UNL d   1      48.699  35.145  52.079  0.00  0.00     0.103 A 
ATOM     19  C   UNL d   1      47.445  36.054  52.344  0.00  0.00     0.089 A 
ATOM     20  C   UNL d   1      47.278  36.462  53.035  0.00  0.00     0.057 A 
ENDBRANCH  12  13
ENDBRANCH   2  12
TORSDOF 4
ENDMDL
MODEL 4
REMARK VINA RESULT:      -6.6      2.003      4.896
REMARK  4 active torsions:
REMARK  status: ('A' for Active; 'I' for Inactive)
REMARK    1  A    between atoms: C_14  and  C_4 
REMARK       I    between atoms: C_6  and  N_8 
REMARK    2  A    between atoms: C_9  and  C_6 
REMARK    3  A    between atoms: N_8  and  C_14 
REMARK    4  A    between atoms: O_16  and  C_15 
ROOT
ATOM      1  C   UNL d   1      53.173  31.868  53.248  0.00  0.00     0.279 C 
ATOM      2  N   UNL d   1      52.475  32.284  53.117  0.00  0.00    -0.205 NA
ATOM      3  O   UNL d   1      53.890  32.275  53.301  0.00  0.00    -0.265 OA
ENDROOT
BRANCH   1   4
ATOM      4  C   UNL d   1      53.154  31.051  53.326  0.00  0.00     0.060 A 
ATOM      5  C   UNL d   1      53.302  30.703  54.060  0.00  0.00     0.029 A 
ATOM      6  C   UNL d   1      53.280  29.879  54.129  0.00  0.00     0.094 A 
ATOM      7  C   UNL d   1      53.111  29.401  53.470  0.00  0.00     0.024 A 
ATOM      8  C   UNL d   1      52.964  29.754  52.744  0.00  0.00     0.002 A 
ATOM      9  C   UNL d   1      52.983  30.577  52.660  0.00  0.00     0.005 A 
BRANCH   6  10
ATOM     10  O   UNL d   1      53.427  29.535  54.859  0.00  0.00    -0.328 OA
ATOM     11  C   UNL d   1      53.380  28.708  54.942  0.00  0.00     0.181 C 
ENDBRANCH   6  10
ENDBRANCH   1   4
BRANCH   2  12
ATOM     12  C   UNL d   1      52.493  33.103  53.039  0.00  0.00     0.123 C 
BRANCH  12  13
ATOM     13  C   UNL d   1      51.797  33.523  52.912  0.00  0.00     0.120 A 
ATOM     14  N   UNL d   1      51.442  33.667  52.183  0.00  0.00    -0.219 NA
ATOM     15  C   UNL d   1      50.756  34.107  52.311  0.00  0.00     0.180 A 
ATOM     16  N   UNL d   1      50.685  34.238  53.133  0.00  0.00    -0.282 N 
ATOM     17  S   UNL d   1      50.113  34.469  51.944  0.00  0.00    -0.048 SA
ATOM     18  C   UNL d   1      51.332  33.874  53.500  0.00  0.00     0.103 A 
ATOM     19  C   UNL d   1      50.003  34.676  53.257  0.00  0.00     0.089 A 
ATOM     20  C   UNL d   1      49.647  34.820  52.533  0.00  0.00     0.057 A 
ENDBRANCH  12  13
ENDBRANCH   2  12
TORSDOF 4
ENDMDL
MODEL 5
REMARK VINA RESULT:      -6.1      2.129      4.845
REMARK  4 active torsions:
REMARK  status: ('A' for Active; 'I' for Inactive)
REMARK    1  A    between atoms: C_14  and  C_4 
REMARK       I    between atoms: C_6  and  N_8 
REMARK    2  A    between atoms: C_9  and  C_6 
REMARK    3  A    between atoms: N_8  and  C_14 
REMARK    4  A    between atoms: O_16  and  C_15 
ROOT
ATOM      1  C   UNL d   1      52.788  33.035  53.104  0.00  0.00     0.279 C 
ATOM      2  N   UNL d   1      52.111  33.503  53.129  0.00  0.00    -0.205 NA
ATOM      3  O   UNL d   1      52.996  32.650  52.403  0.00  0.00    -0.265 OA
ENDROOT
BRANCH   1   4
ATOM      4  C   UNL d   1      53.253  32.954  53.775  0.00  0.00     0.060 A 
ATOM      5  C   UNL d   1      53.687  33.597  54.056  0.00  0.00     0.029 A 
ATOM      6  C   UNL d   1      54.153  33.505  54.734  0.00  0.00     0.094 A 
ATOM      7  C   UNL d   1      54.188  32.776  55.132  0.00  0.00     0.024 A 
ATOM      8  C   UNL d   1      53.753  32.141  54.847  0.00  0.00     0.002 A 
ATOM      9  C   UNL d   1      53.282  32.218  54.170  0.00  0.00     0.005 A 
BRANCH   6  10
ATOM     10  O   UNL d   1      54.584  34.146  55.012  0.00  0.00    -0.328 OA
ATOM     11  C   UNL d   1      55.371  34.037  55.259  0.00  0.00     0.181 C 
ENDBRANCH   6  10
ENDBRANCH   1   4
BRANCH   2  12
ATOM     12  C   UNL d   1      51.643  33.586  52.456  0.00  0.00     0.123 C 
BRANCH  12  13
ATOM     13  C   UNL d   1      50.933  33.999  52.494  0.00  0.00     0.120 A 
ATOM     14  N   UNL d   1      50.632  34.389  53.154  0.00  0.00    -0.219 NA
ATOM     15  C   UNL d   1      49.907  34.728  52.946  0.00  0.00     0.180 A 
ATOM     16  N   UNL d   1      49.758  34.544  52.145  0.00  0.00    -0.282 N 
ATOM     17  S   UNL d   1      49.274  35.177  53.221  0.00  0.00    -0.048 SA
ATOM     18  C   UNL d   1      50.396  34.092  51.871  0.00  0.00     0.103 A 
ATOM     19  C   UNL d   1      49.039  34.881  51.942  0.00  0.00     0.089 A 
ATOM     20  C   UNL d   1      48.737  35.270  52.597  0.00  0.00     0.057 A 
ENDBRANCH  12  13
ENDBRANCH   2  12
TORSDOF 4
ENDMDL
MODEL 6
REMARK VINA RESULT:      -6.1      1.612      1.841
REMARK  4 active torsions:
REMARK  status: ('A' for Active; 'I' for Inactive)
REMARK    1  A    between atoms: C_14  and  C_4 
REMARK       I    between atoms: C_6  and  N_8 
REMARK    2  A    between atoms: C_9  and  C_6 
REMARK    3  A    between atoms: N_8  and  C_14 
REMARK    4  A    between atoms: O_16  and  C_15 
ROOT
ATOM      1  C   UNL d   1      51.169  34.134  52.171  0.00  0.00     0.279 C 
ATOM      2  N   UNL d   1      51.619  33.890  52.815  0.00  0.00    -0.205 NA
ATOM      3  O   UNL d   1      51.485  34.090  51.409  0.00  0.00    -0.265 OA
ENDROOT
BRANCH   1   4
ATOM      4  C   UNL d   1      50.409  34.421  52.289  0.00  0.00     0.060 A 
ATOM      5  C   UNL d   1      49.860  34.396  51.674  0.00  0.00     0.029 A 
ATOM      6  C   UNL d   1      49.095  34.687  51.802  0.00  0.00     0.094 A 
ATOM      7  C   UNL d   1      48.878  35.001  52.540  0.00  0.00     0.024 A 
ATOM      8  C   UNL d   1      49.429  35.023  53.147  0.00  0.00     0.002 A 
ATOM      9  C   UNL d   1      50.198  34.735  53.033  0.00  0.00     0.005 A 
BRANCH   6  10
ATOM     10  O   UNL d   1      48.550  34.662  51.189  0.00  0.00    -0.328 OA
ATOM     11  C   UNL d   1      47.870  35.140  51.222  0.00  0.00     0.181 C 
ENDBRANCH   6  10
ENDBRANCH   1   4
BRANCH   2  12
ATOM     12  C   UNL d   1      52.382  33.602  52.699  0.00  0.00     0.123 C 
BRANCH  12  13
ATOM     13  C   UNL d   1      52.873  33.456  53.343  0.00  0.00     0.120 A 
ATOM     14  N   UNL d   1      53.288  34.020  53.776  0.00  0.00    -0.219 NA
ATOM     15  C   UNL d   1      53.709  33.632  54.371  0.00  0.00     0.180 A 
ATOM     16  N   UNL d   1      53.551  32.815  54.306  0.00  0.00    -0.282 N 
ATOM     17  S   UNL d   1      54.224  33.737  55.006  0.00  0.00    -0.048 SA
ATOM     18  C   UNL d   1      53.033  32.711  53.668  0.00  0.00     0.103 A 
ATOM     19  C   UNL d   1      53.970  32.432  54.897  0.00  0.00     0.089 A 
ATOM     20  C   UNL d   1      54.384  32.991  55.330  0.00  0.00     0.057 A 
ENDBRANCH  12  13
ENDBRANCH   2  12
TORSDOF 4
ENDMDL
MODEL 7
REMARK VINA RESULT:      -6.0      1.269      2.137
REMARK  4 active torsions:
REMARK  status: ('A' for Active; 'I' for Inactive)
REMARK    1  A    between atoms: C_14  and  C_4 
REMARK       I    between atoms: C_6  and  N_8 
REMARK    2  A    between atoms: C_9  and  C_6 
REMARK    3  A    between atoms: N_8  and  C_14 
REMARK    4  A    between atoms: O_16  and  C_15 
ROOT
ATOM      1  C   UNL d   1      53.442  33.145  53.247  0.00  0.00     0.279 C 
ATOM      2  N   UNL d   1      53.227  32.376  53.448  0.00  0.00    -0.205 NA
ATOM      3  O   UNL d   1      54.207  33.299  52.976  0.00  0.00    -0.265 OA
ENDROOT
BRANCH   1   4
ATOM      4  C   UNL d   1      52.896  33.754  53.317  0.00  0.00     0.060 A 
ATOM      5  C   UNL d   1      52.232  33.769  52.827  0.00  0.00     0.029 A 
ATOM      6  C   UNL d   1      51.687  34.387  52.905  0.00  0.00     0.094 A 
ATOM      7  C   UNL d   1      51.801  34.988  53.467  0.00  0.00     0.024 A 
ATOM      8  C   UNL d   1      52.464  34.966  53.951  0.00  0.00     0.002 A 
ATOM      9  C   UNL d   1      53.018  34.354  53.885  0.00  0.00     0.005 A 
BRANCH   6  10
ATOM     10  O   UNL d   1      51.027  34.401  52.417  0.00  0.00    -0.328 OA
ATOM     11  C   UNL d   1      50.266  34.358  52.752  0.00  0.00     0.181 C 
ENDBRANCH   6  10
ENDBRANCH   1   4
BRANCH   2  12
ATOM     12  C   UNL d   1      53.773  31.765  53.379  0.00  0.00     0.123 C 
BRANCH  12  13
ATOM     13  C   UNL d   1      53.575  31.002  53.618  0.00  0.00     0.120 A 
ATOM     14  N   UNL d   1      53.653  30.696  54.378  0.00  0.00    -0.219 NA
ATOM     15  C   UNL d   1      53.390  29.913  54.370  0.00  0.00     0.180 A 
ATOM     16  N   UNL d   1      53.144  29.733  53.592  0.00  0.00    -0.282 N 
ATOM     17  S   UNL d   1      53.274  29.240  54.831  0.00  0.00    -0.048 SA
ATOM     18  C   UNL d   1      53.262  30.411  53.131  0.00  0.00     0.103 A 
ATOM     19  C   UNL d   1      52.883  28.956  53.587  0.00  0.00     0.089 A 
ATOM     20  C   UNL d   1      52.960  28.648  54.343  0.00  0.00     0.057 A 
ENDBRANCH  12  13
ENDBRANCH   2  12
TORSDOF 4
ENDMDL
MODEL 8
REMARK VINA RESULT:      -5.8      2.105      3.024
REMARK  4 active torsions:
REMARK  status: ('A' for Active; 'I' for Inactive)
REMARK    1  A    between atoms: C_14  and  C_4 
REMARK       I    between atoms: C_6  and  N_8 
REMARK    2  A    between atoms: C_9  and  C_6 
REMARK    3  A    between atoms: N_8  and  C_14 
REMARK    4  A    between atoms: O_16  and  C_15 
ROOT
ATOM      1  C   UNL d   1      49.187  34.860  52.237  0.00  0.00     0.279 C 
ATOM      2  N   UNL d   1      49.853  34.743  52.706  0.00  0.00    -0.205 NA
ATOM      3  O   UNL d   1      49.123  34.469  51.511  0.00  0.00    -0.265 OA
ENDROOT
BRANCH   1   4
ATOM      4  C   UNL d   1      48.591  35.363  52.491  0.00  0.00     0.060 A 
ATOM      5  C   UNL d   1      47.979  35.570  51.977  0.00  0.00     0.029 A 
ATOM      6  C   UNL d   1      47.382  36.078  52.243  0.00  0.00     0.094 A 
ATOM      7  C   UNL d   1      47.393  36.379  53.017  0.00  0.00     0.024 A 
ATOM      8  C   UNL d   1      48.004  36.169  53.523  0.00  0.00     0.002 A 
ATOM      9  C   UNL d   1      48.608  35.662  53.271  0.00  0.00     0.005 A 
BRANCH   6  10
ATOM     10  O   UNL d   1      46.775  36.283  51.730  0.00  0.00    -0.328 OA
ATOM     11  C   UNL d   1      45.988  36.283  52.002  0.00  0.00     0.181 C 
ENDBRANCH   6  10
ENDBRANCH   1   4
BRANCH   2  12
ATOM     12  C   UNL d   1      50.452  34.238  52.453  0.00  0.00     0.123 C 
BRANCH  12  13
ATOM     13  C   UNL d   1      51.145  34.164  52.890  0.00  0.00     0.120 A 
ATOM     14  N   UNL d   1      51.719  34.746  52.994  0.00  0.00    -0.219 NA
ATOM     15  C   UNL d   1      52.318  34.437  53.472  0.00  0.00     0.180 A 
ATOM     16  N   UNL d   1      52.111  33.651  53.666  0.00  0.00    -0.282 N 
ATOM     17  S   UNL d   1      53.040  34.601  53.831  0.00  0.00    -0.048 SA
ATOM     18  C   UNL d   1      51.384  33.488  53.303  0.00  0.00     0.103 A 
ATOM     19  C   UNL d   1      52.707  33.347  54.139  0.00  0.00     0.089 A 
ATOM     20  C   UNL d   1      53.279  33.924  54.244  0.00  0.00     0.057 A 
ENDBRANCH  12  13
ENDBRANCH   2  12
TORSDOF 4
ENDMDL
MODEL 9
REMARK VINA RESULT:      -4.9     10.398     10.959
REMARK  4 active torsions:
REMARK  status: ('A' for Active; 'I' for Inactive)
REMARK    1  A    between atoms: C_14  and  C_4 
REMARK       I    between atoms: C_6  and  N_8 
REMARK    2  A    between atoms: C_9  and  C_6 
REMARK    3  A    between atoms: N_8  and  C_14 
REMARK    4  A    between atoms: O_16  and  C_15 
ROOT
ATOM      1  C   UNL d   1      44.884  30.443  60.183  0.00  0.00     0.279 C 
ATOM      2  N   UNL d   1      44.886  29.794  59.676  0.00  0.00    -0.205 NA
ATOM      3  O   UNL d   1      45.068  31.193  59.890  0.00  0.00    -0.265 OA
ENDROOT
BRANCH   1   4
ATOM      4  C   UNL d   1      44.698  30.341  60.976  0.00  0.00     0.060 A 
ATOM      5  C   UNL d   1      44.661  29.581  61.296  0.00  0.00     0.029 A 
ATOM      6  C   UNL d   1      44.474  29.487  62.097  0.00  0.00     0.094 A 
ATOM      7  C   UNL d   1      44.324  30.148  62.578  0.00  0.00     0.024 A 
ATOM      8  C   UNL d   1      44.362  30.901  62.253  0.00  0.00     0.002 A 
ATOM      9  C   UNL d   1      44.549  31.009  61.454  0.00  0.00     0.005 A 
BRANCH   6  10
ATOM     10  O   UNL d   1      44.437  28.731  62.413  0.00  0.00    -0.328 OA
ATOM     11  C   UNL d   1      44.889  28.543  63.086  0.00  0.00     0.181 C 
ENDBRANCH   6  10
ENDBRANCH   1   4
BRANCH   2  12
ATOM     12  C   UNL d   1      45.072  29.895  58.880  0.00  0.00     0.123 C 
BRANCH  12  13
ATOM     13  C   UNL d   1      45.085  29.247  58.373  0.00  0.00     0.120 A 
ATOM     14  N   UNL d   1      45.495  28.543  58.494  0.00  0.00    -0.219 NA
ATOM     15  C   UNL d   1      45.355  28.047  57.848  0.00  0.00     0.180 A 
ATOM     16  N   UNL d   1      44.851  28.451  57.320  0.00  0.00    -0.282 N 
ATOM     17  S   UNL d   1      45.519  27.308  57.523  0.00  0.00    -0.048 SA
ATOM     18  C   UNL d   1      44.687  29.193  57.649  0.00  0.00     0.103 A 
ATOM     19  C   UNL d   1      44.713  27.957  56.680  0.00  0.00     0.089 A 
ATOM     20  C   UNL d   1      45.120  27.255  56.798  0.00  0.00     0.057 A 
ENDBRANCH  12  13
ENDBRANCH   2  12
TORSDOF 4
ENDMDL
