MODEL 1
REMARK VINA RESULT:       1.1      0.000      0.000
REMARK  8 active torsions:
REMARK  status: ('A' for Active; 'I' for Inactive)
REMARK    1  A    between atoms: S_10  and  C_2 
REMARK    2  A    between atoms: C_7  and  C_4 
REMARK    3  A    between atoms: C_17  and  S_10 
REMARK    4  A    between atoms: C_14  and  C_17 
REMARK    5  A    between atoms: O_18  and  C_14 
REMARK    6  A    between atoms: O_19  and  C_15 
REMARK    7  A    between atoms: C_22  and  O_18 
REMARK    8  A    between atoms: C_24  and  C_22 
ROOT
ATOM      1  C   UNL d   1      32.845  20.813 -22.127  0.00  0.00     0.093 A 
ATOM      2  C   UNL d   1      32.971  20.394 -22.837  0.00  0.00     0.124 A 
ATOM      3  N   UNL d   1      33.062  20.806 -23.545  0.00  0.00    -0.200 NA
ATOM      4  C   UNL d   1      32.812  21.637 -22.137  0.00  0.00     0.028 A 
ATOM      5  C   UNL d   1      32.902  22.045 -22.844  0.00  0.00     0.127 A 
ATOM      6  C   UNL d   1      33.028  21.627 -23.554  0.00  0.00     0.289 A 
ATOM      7  C   UNL d   1      32.755  20.408 -21.422  0.00  0.00     0.103 C 
ATOM      8  C   UNL d   1      32.869  22.869 -22.854  0.00  0.00     0.106 C 
ATOM      9  N   UNL d   1      32.666  20.002 -20.725  0.00  0.00    -0.191 NA
ATOM     10  N   UNL d   1      32.836  23.680 -22.864  0.00  0.00    -0.191 NA
ATOM     11  O   UNL d   1      33.120  22.120 -24.297  0.00  0.00    -0.264 OA
ENDROOT
BRANCH   2  12
ATOM     12  S   UNL d   1      32.997  19.530 -22.765  0.00  0.00    -0.061 SA
BRANCH  12  13
ATOM     13  C   UNL d   1      33.182  18.940 -23.378  0.00  0.00     0.105 C 
BRANCH  13  14
ATOM     14  C   UNL d   1      32.727  18.201 -23.407  0.00  0.00     0.307 C 
ATOM     15  O   UNL d   1      32.774  17.820 -23.045  0.00  0.00    -0.258 OA
BRANCH  14  16
ATOM     16  O   UNL d   1      32.176  18.137 -24.098  0.00  0.00    -0.271 OA
BRANCH  16  17
ATOM     17  C   UNL d   1      31.782  17.331 -24.206  0.00  0.00     0.126 C 
BRANCH  17  18
ATOM     18  C   UNL d   1      31.061  17.446 -24.793  0.00  0.00     0.027 C 
ATOM     19  C   UNL d   1      30.690  16.637 -24.932  0.00  0.00     0.002 C 
ENDBRANCH  17  18
ENDBRANCH  16  17
ENDBRANCH  14  16
ENDBRANCH  13  14
ENDBRANCH  12  13
ENDBRANCH   2  12
BRANCH   4  20
ATOM     20  C   UNL d   1      32.688  22.049 -21.438  0.00  0.00     0.024 A 
ATOM     21  C   UNL d   1      32.013  22.510 -21.346  0.00  0.00     0.094 A 
ATOM     22  C   UNL d   1      31.888  22.924 -20.644  0.00  0.00     0.024 A 
ATOM     23  C   UNL d   1      32.438  22.878 -20.032  0.00  0.00     0.002 A 
ATOM     24  C   UNL d   1      33.116  22.415 -20.126  0.00  0.00     0.000 A 
ATOM     25  C   UNL d   1      33.241  22.000 -20.828  0.00  0.00     0.002 A 
BRANCH  21  26
ATOM     26  O   UNL d   1      31.502  22.601 -21.814  0.00  0.00    -0.328 OA
ATOM     27  C   UNL d   1      30.834  23.100 -21.637  0.00  0.00     0.181 C 
ENDBRANCH  21  26
ENDBRANCH   4  20
TORSDOF 8
ENDMDL
MODEL 2
REMARK VINA RESULT:       3.0      1.297      4.723
REMARK  8 active torsions:
REMARK  status: ('A' for Active; 'I' for Inactive)
REMARK    1  A    between atoms: S_10  and  C_2 
REMARK    2  A    between atoms: C_7  and  C_4 
REMARK    3  A    between atoms: C_17  and  S_10 
REMARK    4  A    between atoms: C_14  and  C_17 
REMARK    5  A    between atoms: O_18  and  C_14 
REMARK    6  A    between atoms: O_19  and  C_15 
REMARK    7  A    between atoms: C_22  and  O_18 
REMARK    8  A    between atoms: C_24  and  C_22 
ROOT
ATOM      1  C   UNL d   1      32.698  19.543 -22.300  0.00  0.00     0.093 A 
ATOM      2  C   UNL d   1      32.809  20.368 -22.311  0.00  0.00     0.124 A 
ATOM      3  N   UNL d   1      32.985  20.749 -23.020  0.00  0.00    -0.200 NA
ATOM      4  C   UNL d   1      32.763  19.110 -22.999  0.00  0.00     0.028 A 
ATOM      5  C   UNL d   1      32.938  19.492 -23.706  0.00  0.00     0.127 A 
ATOM      6  C   UNL d   1      33.050  20.317 -23.717  0.00  0.00     0.289 A 
ATOM      7  C   UNL d   1      32.523  19.161 -21.598  0.00  0.00     0.103 C 
ATOM      8  C   UNL d   1      33.004  19.059 -24.405  0.00  0.00     0.106 C 
ATOM      9  N   UNL d   1      32.350  18.786 -20.899  0.00  0.00    -0.191 NA
ATOM     10  N   UNL d   1      33.069  18.635 -25.093  0.00  0.00    -0.191 NA
ATOM     11  O   UNL d   1      33.239  20.684 -24.513  0.00  0.00    -0.264 OA
ENDROOT
BRANCH   2  12
ATOM     12  S   UNL d   1      32.728  20.769 -21.546  0.00  0.00    -0.061 SA
BRANCH  12  13
ATOM     13  C   UNL d   1      32.529  21.602 -21.389  0.00  0.00     0.105 C 
BRANCH  13  14
ATOM     14  C   UNL d   1      32.050  21.801 -20.693  0.00  0.00     0.307 C 
ATOM     15  O   UNL d   1      31.525  21.859 -20.712  0.00  0.00    -0.258 OA
BRANCH  14  16
ATOM     16  O   UNL d   1      32.514  21.898 -19.944  0.00  0.00    -0.271 OA
BRANCH  16  17
ATOM     17  C   UNL d   1      33.129  22.560 -19.953  0.00  0.00     0.126 C 
BRANCH  17  18
ATOM     18  C   UNL d   1      33.236  22.856 -19.071  0.00  0.00     0.027 C 
ATOM     19  C   UNL d   1      32.906  23.693 -19.022  0.00  0.00     0.002 C 
ENDBRANCH  17  18
ENDBRANCH  16  17
ENDBRANCH  14  16
ENDBRANCH  13  14
ENDBRANCH  12  13
ENDBRANCH   2  12
BRANCH   4  20
ATOM     20  C   UNL d   1      32.653  18.297 -22.989  0.00  0.00     0.024 A 
ATOM     21  C   UNL d   1      31.958  17.972 -23.285  0.00  0.00     0.094 A 
ATOM     22  C   UNL d   1      31.847  17.155 -23.274  0.00  0.00     0.024 A 
ATOM     23  C   UNL d   1      32.432  16.661 -22.968  0.00  0.00     0.002 A 
ATOM     24  C   UNL d   1      33.130  16.989 -22.670  0.00  0.00     0.000 A 
ATOM     25  C   UNL d   1      33.240  17.806 -22.681  0.00  0.00     0.002 A 
BRANCH  21  26
ATOM     26  O   UNL d   1      31.418  18.319 -23.560  0.00  0.00    -0.328 OA
ATOM     27  C   UNL d   1      30.657  17.944 -23.646  0.00  0.00     0.181 C 
ENDBRANCH  21  26
ENDBRANCH   4  20
TORSDOF 8
ENDMDL
