MODEL 1
REMARK VINA RESULT:      -3.8      0.000      0.000
REMARK  2 active torsions:
REMARK  status: ('A' for Active; 'I' for Inactive)
REMARK    1  A    between atoms: N_7  and  C_1 
REMARK       I    between atoms: C_8  and  N_7 
REMARK    2  A    between atoms: C_10  and  C_8 
ROOT
ATOM      1  C   UNL d   1     -41.524-122.191 -52.506  0.00  0.00     0.159 A 
ATOM      2  N   UNL d   1     -42.062-121.915 -53.813  0.00  0.00    -0.257 N 
ATOM      3  C   UNL d   1     -41.969-122.717 -54.013  0.00  0.00     0.150 A 
ATOM      4  C   UNL d   1     -41.835-121.664 -53.055  0.00  0.00     0.285 A 
ATOM      5  N   UNL d   1     -41.654-123.263 -53.465  0.00  0.00    -0.226 NA
ATOM      6  C   UNL d   1     -41.432-122.999 -52.712  0.00  0.00     0.105 A 
ATOM      7  C   UNL d   1     -42.186-122.986 -54.756  0.00  0.00     0.035 A 
ATOM      8  C   UNL d   1     -42.367-121.391 -54.349  0.00  0.00     0.085 A 
ATOM      9  O   UNL d   1     -41.929-120.862 -52.856  0.00  0.00    -0.265 OA
ATOM     10  C   UNL d   1     -42.590-121.653 -55.103  0.00  0.00     0.019 A 
ATOM     11  C   UNL d   1     -42.504-122.438 -55.312  0.00  0.00     0.004 A 
ATOM     12  C   UNL d   1     -41.124-123.521 -52.167  0.00  0.00     0.022 C 
ATOM     13  C   UNL d   1     -42.102-123.770 -54.970  0.00  0.00     0.003 C 
ENDROOT
BRANCH   1  14
ATOM     14  N   UNL d   1     -41.302-121.929 -51.752  0.00  0.00    -0.202 NA
ATOM     15  C   UNL d   1     -41.744-122.165 -51.092  0.00  0.00     0.279 C 
ATOM     16  O   UNL d   1     -41.123-121.681 -50.869  0.00  0.00    -0.265 OA
BRANCH  15  17
ATOM     17  C   UNL d   1     -42.261-122.467 -50.521  0.00  0.00     0.060 A 
ATOM     18  C   UNL d   1     -41.953-122.853 -49.864  0.00  0.00     0.031 A 
ATOM     19  C   UNL d   1     -42.471-123.155 -49.293  0.00  0.00     0.119 A 
ATOM     20  O   UNL d   1     -42.334-123.563 -48.586  0.00  0.00    -0.300 OA
ATOM     21  C   UNL d   1     -43.283-123.071 -49.380  0.00  0.00     0.119 A 
ATOM     22  C   UNL d   1     -43.069-123.731 -48.234  0.00  0.00     0.304 A 
ATOM     23  O   UNL d   1     -43.660-123.417 -48.741  0.00  0.00    -0.300 OA
ATOM     24  C   UNL d   1     -43.588-122.678 -50.048  0.00  0.00     0.026 A 
ATOM     25  C   UNL d   1     -43.076-122.376 -50.619  0.00  0.00     0.007 A 
ENDBRANCH  15  17
ENDBRANCH   1  14
TORSDOF 2
ENDMDL
MODEL 2
REMARK VINA RESULT:      -2.7      0.627      1.301
REMARK  2 active torsions:
REMARK  status: ('A' for Active; 'I' for Inactive)
REMARK    1  A    between atoms: N_7  and  C_1 
REMARK       I    between atoms: C_8  and  N_7 
REMARK    2  A    between atoms: C_10  and  C_8 
ROOT
ATOM      1  C   UNL d   1     -41.545-121.931 -52.589  0.00  0.00     0.159 A 
ATOM      2  N   UNL d   1     -41.690-122.834 -53.702  0.00  0.00    -0.257 N 
ATOM      3  C   UNL d   1     -42.014-122.215 -54.153  0.00  0.00     0.150 A 
ATOM      4  C   UNL d   1     -41.459-122.679 -52.920  0.00  0.00     0.285 A 
ATOM      5  N   UNL d   1     -42.107-121.451 -53.829  0.00  0.00    -0.226 NA
ATOM      6  C   UNL d   1     -41.872-121.310 -53.047  0.00  0.00     0.105 A 
ATOM      7  C   UNL d   1     -42.248-122.346 -54.927  0.00  0.00     0.035 A 
ATOM      8  C   UNL d   1     -41.602-123.573 -54.021  0.00  0.00     0.085 A 
ATOM      9  O   UNL d   1     -41.135-123.299 -52.469  0.00  0.00    -0.265 OA
ATOM     10  C   UNL d   1     -41.836-123.715 -54.803  0.00  0.00     0.019 A 
ATOM     11  C   UNL d   1     -42.156-123.116 -55.256  0.00  0.00     0.004 A 
ATOM     12  C   UNL d   1     -41.958-120.569 -52.719  0.00  0.00     0.022 C 
ATOM     13  C   UNL d   1     -42.569-121.750 -55.385  0.00  0.00     0.003 C 
ENDROOT
BRANCH   1  14
ATOM     14  N   UNL d   1     -41.311-121.789 -51.808  0.00  0.00    -0.202 NA
ATOM     15  C   UNL d   1     -41.783-122.065 -51.184  0.00  0.00     0.279 C 
ATOM     16  O   UNL d   1     -41.123-121.673 -50.899  0.00  0.00    -0.265 OA
BRANCH  15  17
ATOM     17  C   UNL d   1     -42.333-122.388 -50.658  0.00  0.00     0.060 A 
ATOM     18  C   UNL d   1     -42.069-122.848 -50.031  0.00  0.00     0.031 A 
ATOM     19  C   UNL d   1     -42.620-123.171 -49.505  0.00  0.00     0.119 A 
ATOM     20  O   UNL d   1     -42.529-123.647 -48.834  0.00  0.00    -0.300 OA
ATOM     21  C   UNL d   1     -43.424-123.034 -49.607  0.00  0.00     0.119 A 
ATOM     22  C   UNL d   1     -43.283-123.805 -48.520  0.00  0.00     0.304 A 
ATOM     23  O   UNL d   1     -43.840-123.415 -49.013  0.00  0.00    -0.300 OA
ATOM     24  C   UNL d   1     -43.685-122.567 -50.245  0.00  0.00     0.026 A 
ATOM     25  C   UNL d   1     -43.139-122.244 -50.771  0.00  0.00     0.007 A 
ENDBRANCH  15  17
ENDBRANCH   1  14
TORSDOF 2
ENDMDL
