MODEL 1
REMARK VINA RESULT:      -3.4      0.000      0.000
REMARK  6 active torsions:
REMARK  status: ('A' for Active; 'I' for Inactive)
REMARK    1  A    between atoms: S_9  and  C_3 
REMARK    2  A    between atoms: C_4  and  C_17 
REMARK       I    between atoms: N_8  and  C_4 
REMARK    3  A    between atoms: C_5  and  C_16 
REMARK    4  A    between atoms: C_14  and  C_6 
REMARK    5  A    between atoms: C_16  and  N_8 
REMARK    6  A    between atoms: C_17  and  S_9 
ROOT
ATOM      1  N   UNL d   1      32.634  20.711 -20.963  0.00  0.00    -0.148 NA
ATOM      2  N   UNL d   1      32.742  19.984 -21.338  0.00  0.00    -0.141 NA
ATOM      3  C   UNL d   1      33.033  19.950 -22.106  0.00  0.00     0.133 A 
ATOM      4  C   UNL d   1      32.824  21.408 -21.371  0.00  0.00     0.103 A 
ATOM      5  C   UNL d   1      33.112  21.380 -22.133  0.00  0.00     0.023 A 
ATOM      6  C   UNL d   1      33.221  20.658 -22.509  0.00  0.00     0.029 A 
ENDROOT
BRANCH   3   7
ATOM      7  S   UNL d   1      33.137  19.223 -22.473  0.00  0.00    -0.061 SA
BRANCH   7   8
ATOM      8  C   UNL d   1      32.550  18.924 -22.965  0.00  0.00     0.099 C 
BRANCH   8   9
ATOM      9  C   UNL d   1      32.561  18.130 -23.194  0.00  0.00     0.286 C 
ATOM     10  N   UNL d   1      31.897  17.790 -23.532  0.00  0.00    -0.204 NA
ATOM     11  O   UNL d   1      33.240  17.683 -23.081  0.00  0.00    -0.265 OA
BRANCH  10  12
ATOM     12  C   UNL d   1      31.906  17.007 -23.758  0.00  0.00     0.127 C 
BRANCH  12  13
ATOM     13  C   UNL d   1      31.208  16.635 -23.982  0.00  0.00     0.119 A 
ATOM     14  O   UNL d   1      30.598  16.966 -24.420  0.00  0.00    -0.304 OA
ATOM     15  C   UNL d   1      30.012  16.402 -24.515  0.00  0.00     0.123 A 
ATOM     16  C   UNL d   1      30.258  15.720 -24.134  0.00  0.00     0.029 A 
ATOM     17  C   UNL d   1      30.995  15.853 -23.802  0.00  0.00     0.028 A 
ENDBRANCH  12  13
ENDBRANCH  10  12
ENDBRANCH   8   9
ENDBRANCH   7   8
ENDBRANCH   3   7
BRANCH   4  18
ATOM     18  C   UNL d   1      32.717  22.141 -20.998  0.00  0.00     0.019 A 
ATOM     19  C   UNL d   1      33.129  22.324 -20.293  0.00  0.00     0.002 A 
ATOM     20  C   UNL d   1      33.017  23.055 -19.928  0.00  0.00     0.000 A 
ATOM     21  C   UNL d   1      32.505  23.605 -20.251  0.00  0.00     0.000 A 
ATOM     22  C   UNL d   1      32.091  23.434 -20.950  0.00  0.00     0.000 A 
ATOM     23  C   UNL d   1      32.200  22.704 -21.319  0.00  0.00     0.002 A 
ENDBRANCH   4  18
TORSDOF 6
ENDMDL
MODEL 2
REMARK VINA RESULT:      -2.3      1.406      5.964
REMARK  6 active torsions:
REMARK  status: ('A' for Active; 'I' for Inactive)
REMARK    1  A    between atoms: S_9  and  C_3 
REMARK    2  A    between atoms: C_4  and  C_17 
REMARK       I    between atoms: N_8  and  C_4 
REMARK    3  A    between atoms: C_5  and  C_16 
REMARK    4  A    between atoms: C_14  and  C_6 
REMARK    5  A    between atoms: C_16  and  N_8 
REMARK    6  A    between atoms: C_17  and  S_9 
ROOT
ATOM      1  N   UNL d   1      31.176  16.661 -23.593  0.00  0.00    -0.148 NA
ATOM      2  N   UNL d   1      31.835  17.133 -23.439  0.00  0.00    -0.141 NA
ATOM      3  C   UNL d   1      31.930  17.855 -23.822  0.00  0.00     0.133 A 
ATOM      4  C   UNL d   1      30.610  16.924 -24.140  0.00  0.00     0.103 A 
ATOM      5  C   UNL d   1      30.700  17.639 -24.522  0.00  0.00     0.023 A 
ATOM      6  C   UNL d   1      31.355  18.111 -24.371  0.00  0.00     0.029 A 
ENDROOT
BRANCH   3   7
ATOM      7  S   UNL d   1      32.588  18.319 -23.663  0.00  0.00    -0.061 SA
BRANCH   7   8
ATOM      8  C   UNL d   1      32.644  18.720 -22.947  0.00  0.00     0.099 C 
BRANCH   8   9
ATOM      9  C   UNL d   1      32.929  19.495 -22.924  0.00  0.00     0.286 C 
ATOM     10  N   UNL d   1      32.903  19.923 -22.226  0.00  0.00    -0.204 NA
ATOM     11  O   UNL d   1      33.241  19.835 -23.603  0.00  0.00    -0.265 OA
BRANCH  10  12
ATOM     12  C   UNL d   1      33.183  20.688 -22.200  0.00  0.00     0.127 C 
BRANCH  12  13
ATOM     13  C   UNL d   1      32.956  21.190 -21.592  0.00  0.00     0.119 A 
ATOM     14  O   UNL d   1      32.496  21.866 -21.664  0.00  0.00    -0.304 OA
ATOM     15  C   UNL d   1      32.405  22.197 -20.920  0.00  0.00     0.123 A 
ATOM     16  C   UNL d   1      32.809  21.727 -20.385  0.00  0.00     0.029 A 
ATOM     17  C   UNL d   1      33.153  21.102 -20.790  0.00  0.00     0.028 A 
ENDBRANCH  12  13
ENDBRANCH  10  12
ENDBRANCH   8   9
ENDBRANCH   7   8
ENDBRANCH   3   7
BRANCH   4  18
ATOM     18  C   UNL d   1      29.947  16.453 -24.299  0.00  0.00     0.019 A 
ATOM     19  C   UNL d   1      29.264  16.504 -23.818  0.00  0.00     0.002 A 
ATOM     20  C   UNL d   1      28.608  16.031 -23.982  0.00  0.00     0.000 A 
ATOM     21  C   UNL d   1      28.620  15.511 -24.614  0.00  0.00     0.000 A 
ATOM     22  C   UNL d   1      29.293  15.453 -25.097  0.00  0.00     0.000 A 
ATOM     23  C   UNL d   1      29.951  15.923 -24.936  0.00  0.00     0.002 A 
ENDBRANCH   4  18
TORSDOF 6
ENDMDL
MODEL 3
REMARK VINA RESULT:      -2.2      1.661      5.974
REMARK  6 active torsions:
REMARK  status: ('A' for Active; 'I' for Inactive)
REMARK    1  A    between atoms: S_9  and  C_3 
REMARK    2  A    between atoms: C_4  and  C_17 
REMARK       I    between atoms: N_8  and  C_4 
REMARK    3  A    between atoms: C_5  and  C_16 
REMARK    4  A    between atoms: C_14  and  C_6 
REMARK    5  A    between atoms: C_16  and  N_8 
REMARK    6  A    between atoms: C_17  and  S_9 
ROOT
ATOM      1  N   UNL d   1      32.730  17.912 -23.250  0.00  0.00    -0.148 NA
ATOM      2  N   UNL d   1      33.025  18.669 -23.111  0.00  0.00    -0.141 NA
ATOM      3  C   UNL d   1      32.944  19.260 -23.678  0.00  0.00     0.133 A 
ATOM      4  C   UNL d   1      32.348  17.753 -23.970  0.00  0.00     0.103 A 
ATOM      5  C   UNL d   1      32.265  18.335 -24.535  0.00  0.00     0.023 A 
ATOM      6  C   UNL d   1      32.558  19.090 -24.400  0.00  0.00     0.029 A 
ENDROOT
BRANCH   3   7
ATOM      7  S   UNL d   1      33.241  20.011 -23.533  0.00  0.00    -0.061 SA
BRANCH   7   8
ATOM      8  C   UNL d   1      33.190  20.333 -22.777  0.00  0.00     0.099 C 
BRANCH   8   9
ATOM      9  C   UNL d   1      33.193  21.152 -22.672  0.00  0.00     0.286 C 
ATOM     10  N   UNL d   1      33.147  21.470 -21.919  0.00  0.00    -0.204 NA
ATOM     11  O   UNL d   1      33.240  21.647 -23.325  0.00  0.00    -0.265 OA
BRANCH  10  12
ATOM     12  C   UNL d   1      33.150  22.278 -21.812  0.00  0.00     0.127 C 
BRANCH  12  13
ATOM     13  C   UNL d   1      32.975  22.597 -21.075  0.00  0.00     0.119 A 
ATOM     14  O   UNL d   1      33.239  22.319 -20.349  0.00  0.00    -0.304 OA
ATOM     15  C   UNL d   1      32.932  22.800 -19.761  0.00  0.00     0.123 A 
ATOM     16  C   UNL d   1      32.477  23.378 -20.123  0.00  0.00     0.029 A 
ATOM     17  C   UNL d   1      32.497  23.261 -20.934  0.00  0.00     0.028 A 
ENDBRANCH  12  13
ENDBRANCH  10  12
ENDBRANCH   8   9
ENDBRANCH   7   8
ENDBRANCH   3   7
BRANCH   4  18
ATOM     18  C   UNL d   1      32.049  16.993 -24.113  0.00  0.00     0.019 A 
ATOM     19  C   UNL d   1      31.411  16.694 -23.663  0.00  0.00     0.002 A 
ATOM     20  C   UNL d   1      31.120  15.936 -23.812  0.00  0.00     0.000 A 
ATOM     21  C   UNL d   1      31.451  15.474 -24.400  0.00  0.00     0.000 A 
ATOM     22  C   UNL d   1      32.085  15.761 -24.853  0.00  0.00     0.000 A 
ATOM     23  C   UNL d   1      32.380  16.518 -24.707  0.00  0.00     0.002 A 
ENDBRANCH   4  18
TORSDOF 6
ENDMDL
MODEL 4
REMARK VINA RESULT:      -1.5      1.789      2.978
REMARK  6 active torsions:
REMARK  status: ('A' for Active; 'I' for Inactive)
REMARK    1  A    between atoms: S_9  and  C_3 
REMARK    2  A    between atoms: C_4  and  C_17 
REMARK       I    between atoms: N_8  and  C_4 
REMARK    3  A    between atoms: C_5  and  C_16 
REMARK    4  A    between atoms: C_14  and  C_6 
REMARK    5  A    between atoms: C_16  and  N_8 
REMARK    6  A    between atoms: C_17  and  S_9 
ROOT
ATOM      1  N   UNL d   1      32.338  21.957 -19.306  0.00  0.00    -0.148 NA
ATOM      2  N   UNL d   1      32.414  21.697 -20.085  0.00  0.00    -0.141 NA
ATOM      3  C   UNL d   1      32.861  22.126 -20.626  0.00  0.00     0.133 A 
ATOM      4  C   UNL d   1      32.720  22.658 -19.075  0.00  0.00     0.103 A 
ATOM      5  C   UNL d   1      33.164  23.086 -19.608  0.00  0.00     0.023 A 
ATOM      6  C   UNL d   1      33.241  22.830 -20.384  0.00  0.00     0.029 A 
ENDROOT
BRANCH   3   7
ATOM      7  S   UNL d   1      32.931  21.861 -21.400  0.00  0.00    -0.061 SA
BRANCH   7   8
ATOM      8  C   UNL d   1      32.604  21.138 -21.617  0.00  0.00     0.099 C 
BRANCH   8   9
ATOM      9  C   UNL d   1      32.858  20.755 -22.303  0.00  0.00     0.286 C 
ATOM     10  N   UNL d   1      32.989  19.946 -22.298  0.00  0.00    -0.204 NA
ATOM     11  O   UNL d   1      32.980  21.187 -22.990  0.00  0.00    -0.265 OA
BRANCH  10  12
ATOM     12  C   UNL d   1      33.240  19.565 -22.974  0.00  0.00     0.127 C 
BRANCH  12  13
ATOM     13  C   UNL d   1      33.037  18.780 -23.103  0.00  0.00     0.119 A 
ATOM     14  O   UNL d   1      32.930  18.203 -22.529  0.00  0.00    -0.304 OA
ATOM     15  C   UNL d   1      32.732  17.501 -22.902  0.00  0.00     0.123 A 
ATOM     16  C   UNL d   1      32.715  17.642 -23.709  0.00  0.00     0.029 A 
ATOM     17  C   UNL d   1      32.902  18.429 -23.843  0.00  0.00     0.028 A 
ENDBRANCH  12  13
ENDBRANCH  10  12
ENDBRANCH   8   9
ENDBRANCH   7   8
ENDBRANCH   3   7
BRANCH   4  18
ATOM     18  C   UNL d   1      32.646  22.922 -18.292  0.00  0.00     0.019 A 
ATOM     19  C   UNL d   1      33.230  22.736 -17.723  0.00  0.00     0.002 A 
ATOM     20  C   UNL d   1      33.150  23.003 -16.947  0.00  0.00     0.000 A 
ATOM     21  C   UNL d   1      32.501  23.451 -16.728  0.00  0.00     0.000 A 
ATOM     22  C   UNL d   1      31.915  23.641 -17.285  0.00  0.00     0.000 A 
ATOM     23  C   UNL d   1      31.992  23.376 -18.063  0.00  0.00     0.002 A 
ENDBRANCH   4  18
TORSDOF 6
ENDMDL
