MODEL 1
REMARK VINA RESULT:      -0.1      0.000      0.000
REMARK  5 active torsions:
REMARK  status: ('A' for Active; 'I' for Inactive)
REMARK    1  A    between atoms: S_8  and  C_2 
REMARK    2  A    between atoms: C_4  and  C_3 
REMARK    3  A    between atoms: C_18  and  S_8 
REMARK    4  A    between atoms: C_9  and  C_18 
REMARK       I    between atoms: N_11  and  C_9 
REMARK    5  A    between atoms: C_13  and  N_11 
ROOT
ATOM      1  C   UNL d   1     -42.130-121.551 -54.179  0.00  0.00     0.096 A 
ATOM      2  C   UNL d   1     -41.816-121.933 -53.484  0.00  0.00     0.120 A 
ATOM      3  C   UNL d   1     -42.100-121.942 -54.915  0.00  0.00     0.085 A 
ATOM      4  N   UNL d   1     -41.488-122.685 -53.563  0.00  0.00    -0.238 NA
ATOM      5  C   UNL d   1     -42.461-120.808 -54.137  0.00  0.00     0.103 C 
ATOM      6  N   UNL d   1     -42.793-120.064 -54.095  0.00  0.00    -0.191 NA
ATOM      7  C   UNL d   1     -41.765-122.703 -54.977  0.00  0.00     0.024 A 
ATOM      8  C   UNL d   1     -41.450-123.085 -54.282  0.00  0.00     0.082 A 
ATOM      9  C   UNL d   1     -41.123-123.817 -54.316  0.00  0.00     0.021 C 
ENDROOT
BRANCH   2  10
ATOM     10  S   UNL d   1     -41.854-121.532 -52.764  0.00  0.00    -0.062 SA
BRANCH  10  11
ATOM     11  C   UNL d   1     -41.851-121.942 -52.054  0.00  0.00     0.099 C 
BRANCH  11  12
ATOM     12  C   UNL d   1     -41.595-121.560 -51.365  0.00  0.00     0.281 C 
ATOM     13  N   UNL d   1     -41.802-121.861 -50.641  0.00  0.00    -0.238 NA
ATOM     14  O   UNL d   1     -41.128-120.872 -51.421  0.00  0.00    -0.265 OA
BRANCH  13  15
ATOM     15  C   UNL d   1     -42.262-122.540 -50.592  0.00  0.00     0.088 C 
ATOM     16  C   UNL d   1     -42.727-123.236 -50.543  0.00  0.00     0.025 C 
ATOM     17  C   UNL d   1     -42.927-122.079 -50.503  0.00  0.00     0.025 C 
ATOM     18  C   UNL d   1     -41.594-122.982 -50.682  0.00  0.00     0.025 C 
ENDBRANCH  13  15
ENDBRANCH  11  12
ENDBRANCH  10  11
ENDBRANCH   2  10
BRANCH   3  19
ATOM     19  C   UNL d   1     -42.401-121.576 -55.582  0.00  0.00     0.419 C 
ATOM     20  F   UNL d   1     -42.701-121.212 -56.245  0.00  0.00    -0.166 F 
ATOM     21  F   UNL d   1     -41.808-121.004 -55.536  0.00  0.00    -0.166 F 
ATOM     22  F   UNL d   1     -42.996-122.149 -55.628  0.00  0.00    -0.166 F 
ENDBRANCH   3  19
TORSDOF 5
ENDMDL
MODEL 2
REMARK VINA RESULT:       1.8      2.690      4.314
REMARK  5 active torsions:
REMARK  status: ('A' for Active; 'I' for Inactive)
REMARK    1  A    between atoms: S_8  and  C_2 
REMARK    2  A    between atoms: C_4  and  C_3 
REMARK    3  A    between atoms: C_18  and  S_8 
REMARK    4  A    between atoms: C_9  and  C_18 
REMARK       I    between atoms: N_11  and  C_9 
REMARK    5  A    between atoms: C_13  and  N_11 
ROOT
ATOM      1  C   UNL d   1     -43.028-122.381 -50.513  0.00  0.00     0.096 A 
ATOM      2  C   UNL d   1     -42.317-122.448 -50.980  0.00  0.00     0.120 A 
ATOM      3  C   UNL d   1     -43.086-122.789 -49.787  0.00  0.00     0.085 A 
ATOM      4  N   UNL d   1     -41.703-122.919 -50.695  0.00  0.00    -0.238 NA
ATOM      5  C   UNL d   1     -43.654-121.925 -50.763  0.00  0.00     0.103 C 
ATOM      6  N   UNL d   1     -44.281-121.468 -51.015  0.00  0.00    -0.191 NA
ATOM      7  C   UNL d   1     -42.455-123.261 -49.515  0.00  0.00     0.024 A 
ATOM      8  C   UNL d   1     -41.744-123.328 -49.982  0.00  0.00     0.082 A 
ATOM      9  C   UNL d   1     -41.123-123.776 -49.741  0.00  0.00     0.021 C 
ENDROOT
BRANCH   2  10
ATOM     10  S   UNL d   1     -42.277-122.039 -51.695  0.00  0.00    -0.062 SA
BRANCH  10  11
ATOM     11  C   UNL d   1     -41.899-122.365 -52.345  0.00  0.00     0.099 C 
BRANCH  11  12
ATOM     12  C   UNL d   1     -41.461-121.875 -52.849  0.00  0.00     0.281 C 
ATOM     13  N   UNL d   1     -41.362-122.087 -53.625  0.00  0.00    -0.238 NA
ATOM     14  O   UNL d   1     -41.126-121.171 -52.555  0.00  0.00    -0.265 OA
BRANCH  13  15
ATOM     15  C   UNL d   1     -41.694-122.782 -53.909  0.00  0.00     0.088 C 
ATOM     16  C   UNL d   1     -42.038-123.489 -54.202  0.00  0.00     0.025 C 
ATOM     17  C   UNL d   1     -41.137-123.212 -53.501  0.00  0.00     0.025 C 
ATOM     18  C   UNL d   1     -42.239-122.342 -54.308  0.00  0.00     0.025 C 
ENDBRANCH  13  15
ENDBRANCH  11  12
ENDBRANCH  10  11
ENDBRANCH   2  10
BRANCH   3  19
ATOM     19  C   UNL d   1     -43.768-122.725 -49.339  0.00  0.00     0.419 C 
ATOM     20  F   UNL d   1     -44.445-122.662 -48.894  0.00  0.00    -0.166 F 
ATOM     21  F   UNL d   1     -43.562-121.952 -49.137  0.00  0.00    -0.166 F 
ATOM     22  F   UNL d   1     -43.974-123.500 -49.542  0.00  0.00    -0.166 F 
ENDBRANCH   3  19
TORSDOF 5
ENDMDL
