MODEL 1
REMARK VINA RESULT:      -4.2      0.000      0.000
REMARK  4 active torsions:
REMARK  status: ('A' for Active; 'I' for Inactive)
REMARK    1  A    between atoms: N_2  and  C_1 
REMARK    2  A    between atoms: N_4  and  C_1 
REMARK       I    between atoms: C_3  and  N_2 
REMARK    3  A    between atoms: C_6  and  C_3 
REMARK    4  A    between atoms: C_9  and  N_5 
ROOT
ATOM      1  N   UNL d   1     -41.705-122.176 -51.155  0.00  0.00    -0.278 N 
ATOM      2  N   UNL d   1     -42.148-122.719 -49.668  0.00  0.00    -0.301 N 
ATOM      3  C   UNL d   1     -42.472-122.038 -50.873  0.00  0.00     0.101 A 
ATOM      4  C   UNL d   1     -41.153-122.588 -50.695  0.00  0.00     0.101 A 
ATOM      5  C   UNL d   1     -42.687-122.314 -50.125  0.00  0.00     0.100 A 
ATOM      6  C   UNL d   1     -41.370-122.862 -49.950  0.00  0.00     0.100 A 
ENDROOT
BRANCH   1   7
ATOM      7  C   UNL d   1     -41.498-121.897 -51.903  0.00  0.00     0.209 C 
ATOM      8  S   UNL d   1     -41.228-121.132 -51.984  0.00  0.00    -0.038 SA
BRANCH   7   9
ATOM      9  N   UNL d   1     -41.571-122.401 -52.543  0.00  0.00    -0.179 NA
ATOM     10  C   UNL d   1     -41.565-122.100 -53.297  0.00  0.00     0.287 C 
ATOM     11  O   UNL d   1     -41.485-121.293 -53.375  0.00  0.00    -0.265 OA
BRANCH  10  12
ATOM     12  C   UNL d   1     -41.636-122.578 -53.946  0.00  0.00     0.087 A 
ATOM     13  S   UNL d   1     -42.235-122.522 -54.499  0.00  0.00    -0.082 SA
ATOM     14  C   UNL d   1     -42.117-123.115 -55.092  0.00  0.00     0.036 A 
ATOM     15  C   UNL d   1     -41.427-123.526 -54.871  0.00  0.00     0.008 A 
ATOM     16  C   UNL d   1     -41.124-123.220 -54.187  0.00  0.00     0.012 A 
ENDBRANCH  10  12
ENDBRANCH   7   9
ENDBRANCH   1   7
BRANCH   2  17
ATOM     17  C   UNL d   1     -42.365-122.994 -48.922  0.00  0.00     0.064 A 
ATOM     18  C   UNL d   1     -41.926-122.768 -48.253  0.00  0.00     0.020 A 
ATOM     19  C   UNL d   1     -42.152-123.048 -47.513  0.00  0.00     0.031 A 
ATOM     20  C   UNL d   1     -42.807-123.549 -47.424  0.00  0.00     0.140 A 
ATOM     21  C   UNL d   1     -43.245-123.774 -48.094  0.00  0.00     0.031 A 
ATOM     22  F   UNL d   1     -43.016-123.816 -46.680  0.00  0.00    -0.204 F 
ATOM     23  C   UNL d   1     -43.018-123.492 -48.844  0.00  0.00     0.020 A 
ENDBRANCH   2  17
TORSDOF 4
ENDMDL
MODEL 2
REMARK VINA RESULT:      -3.1      1.283      1.607
REMARK  4 active torsions:
REMARK  status: ('A' for Active; 'I' for Inactive)
REMARK    1  A    between atoms: N_2  and  C_1 
REMARK    2  A    between atoms: N_4  and  C_1 
REMARK       I    between atoms: C_3  and  N_2 
REMARK    3  A    between atoms: C_6  and  C_3 
REMARK    4  A    between atoms: C_9  and  N_5 
ROOT
ATOM      1  N   UNL d   1     -41.694-123.134 -52.152  0.00  0.00    -0.278 N 
ATOM      2  N   UNL d   1     -41.950-122.987 -50.535  0.00  0.00    -0.301 N 
ATOM      3  C   UNL d   1     -41.520-122.421 -51.766  0.00  0.00     0.101 A 
ATOM      4  C   UNL d   1     -41.997-123.780 -51.731  0.00  0.00     0.101 A 
ATOM      5  C   UNL d   1     -41.651-122.355 -50.955  0.00  0.00     0.100 A 
ATOM      6  C   UNL d   1     -42.127-123.711 -50.921  0.00  0.00     0.100 A 
ENDROOT
BRANCH   1   7
ATOM      7  C   UNL d   1     -41.560-123.193 -52.964  0.00  0.00     0.209 C 
ATOM      8  S   UNL d   1     -41.123-123.817 -53.252  0.00  0.00    -0.038 SA
BRANCH   7   9
ATOM      9  N   UNL d   1     -41.873-122.619 -53.455  0.00  0.00    -0.179 NA
ATOM     10  C   UNL d   1     -41.848-122.719 -54.260  0.00  0.00     0.287 C 
ATOM     11  O   UNL d   1     -41.503-123.403 -54.541  0.00  0.00    -0.265 OA
BRANCH  10  12
ATOM     12  C   UNL d   1     -42.150-122.166 -54.767  0.00  0.00     0.087 A 
ATOM     13  S   UNL d   1     -41.936-122.091 -55.552  0.00  0.00    -0.082 SA
ATOM     14  C   UNL d   1     -42.372-121.451 -55.895  0.00  0.00     0.036 A 
ATOM     15  C   UNL d   1     -42.853-121.149 -55.286  0.00  0.00     0.008 A 
ATOM     16  C   UNL d   1     -42.735-121.563 -54.602  0.00  0.00     0.012 A 
ENDBRANCH  10  12
ENDBRANCH   7   9
ENDBRANCH   1   7
BRANCH   2  17
ATOM     17  C   UNL d   1     -42.080-122.917 -49.724  0.00  0.00     0.064 A 
ATOM     18  C   UNL d   1     -41.437-122.948 -49.197  0.00  0.00     0.020 A 
ATOM     19  C   UNL d   1     -41.579-122.878 -48.390  0.00  0.00     0.031 A 
ATOM     20  C   UNL d   1     -42.348-122.778 -48.095  0.00  0.00     0.140 A 
ATOM     21  C   UNL d   1     -42.989-122.747 -48.622  0.00  0.00     0.031 A 
ATOM     22  F   UNL d   1     -42.468-122.710 -47.288  0.00  0.00    -0.204 F 
ATOM     23  C   UNL d   1     -42.848-122.818 -49.440  0.00  0.00     0.020 A 
ENDBRANCH   2  17
TORSDOF 4
ENDMDL
