MODEL 1
REMARK VINA RESULT:      -2.9      0.000      0.000
REMARK  6 active torsions:
REMARK  status: ('A' for Active; 'I' for Inactive)
REMARK    1  A    between atoms: C_2  and  N_1 
REMARK       I    between atoms: C_3  and  N_9 
REMARK    2  A    between atoms: C_5  and  C_3 
REMARK    3  A    between atoms: C_6  and  C_5 
REMARK    4  A    between atoms: C_7  and  C_6 
REMARK    5  A    between atoms: O_14  and  C_7 
REMARK    6  A    between atoms: N_9  and  C_11 
ROOT
ATOM      1  C   UNL d   1      33.003  19.146 -22.751  0.00  0.00     0.258 C 
ATOM      2  N   UNL d   1      32.703  18.380 -22.698  0.00  0.00    -0.321 N 
ATOM      3  O   UNL d   1      33.190  19.458 -23.481  0.00  0.00    -0.267 OA
ATOM      4  H   UNL d   1      32.516  18.068 -21.968  0.00  0.00     0.169 HD
ENDROOT
BRANCH   2   5
ATOM      5  C   UNL d   1      32.597  17.943 -23.385  0.00  0.00     0.061 A 
ATOM      6  C   UNL d   1      31.821  17.744 -23.628  0.00  0.00     0.041 A 
ATOM      7  C   UNL d   1      31.703  17.305 -24.318  0.00  0.00     0.128 A 
ATOM      8  C   UNL d   1      32.357  17.065 -24.764  0.00  0.00     0.024 A 
ATOM      9  C   UNL d   1      33.121  17.260 -24.526  0.00  0.00     0.003 A 
ATOM     10  C   UNL d   1      33.237  17.693 -23.846  0.00  0.00     0.017 A 
BRANCH   7  11
ATOM     11  N   UNL d   1      30.942  17.108 -24.560  0.00  0.00    -0.114 N 
ATOM     12  O   UNL d   1      30.536  17.584 -25.097  0.00  0.00    -0.532 OA
ATOM     13  O   UNL d   1      30.585  16.425 -24.260  0.00  0.00    -0.532 OA
ENDBRANCH   7  11
ENDBRANCH   2   5
BRANCH   1  14
ATOM     14  C   UNL d   1      33.113  19.592 -22.072  0.00  0.00     0.066 C 
BRANCH  14  15
ATOM     15  C   UNL d   1      32.815  20.352 -22.040  0.00  0.00     0.073 C 
BRANCH  15  16
ATOM     16  C   UNL d   1      32.700  20.730 -21.313  0.00  0.00     0.296 C 
ATOM     17  O   UNL d   1      33.184  20.543 -20.672  0.00  0.00    -0.259 OA
BRANCH  16  18
ATOM     18  O   UNL d   1      32.103  21.290 -21.238  0.00  0.00    -0.296 OA
ATOM     19  C   UNL d   1      32.104  21.817 -20.601  0.00  0.00     0.185 C 
ENDBRANCH  16  18
ENDBRANCH  15  16
ENDBRANCH  14  15
ENDBRANCH   1  14
TORSDOF 6
ENDMDL
MODEL 2
REMARK VINA RESULT:      -2.6      3.577      5.174
REMARK  6 active torsions:
REMARK  status: ('A' for Active; 'I' for Inactive)
REMARK    1  A    between atoms: C_2  and  N_1 
REMARK       I    between atoms: C_3  and  N_9 
REMARK    2  A    between atoms: C_5  and  C_3 
REMARK    3  A    between atoms: C_6  and  C_5 
REMARK    4  A    between atoms: C_7  and  C_6 
REMARK    5  A    between atoms: O_14  and  C_7 
REMARK    6  A    between atoms: N_9  and  C_11 
ROOT
ATOM      1  C   UNL d   1      32.602  23.094 -19.444  0.00  0.00     0.258 C 
ATOM      2  N   UNL d   1      32.130  22.566 -19.867  0.00  0.00    -0.321 N 
ATOM      3  O   UNL d   1      33.241  23.447 -19.808  0.00  0.00    -0.267 OA
ATOM      4  H   UNL d   1      31.492  22.213 -19.502  0.00  0.00     0.169 HD
ENDROOT
BRANCH   2   5
ATOM      5  C   UNL d   1      32.312  22.406 -20.651  0.00  0.00     0.061 A 
ATOM      6  C   UNL d   1      32.535  21.630 -20.869  0.00  0.00     0.041 A 
ATOM      7  C   UNL d   1      32.720  21.458 -21.656  0.00  0.00     0.128 A 
ATOM      8  C   UNL d   1      32.683  22.059 -22.223  0.00  0.00     0.024 A 
ATOM      9  C   UNL d   1      32.464  22.824 -22.010  0.00  0.00     0.003 A 
ATOM     10  C   UNL d   1      32.281  22.992 -21.234  0.00  0.00     0.017 A 
BRANCH   7  11
ATOM     11  N   UNL d   1      32.939  20.696 -21.874  0.00  0.00    -0.114 N 
ATOM     12  O   UNL d   1      32.863  20.069 -21.343  0.00  0.00    -0.532 OA
ATOM     13  O   UNL d   1      33.239  20.561 -22.633  0.00  0.00    -0.532 OA
ENDBRANCH   7  11
ENDBRANCH   2   5
BRANCH   1  14
ATOM     14  C   UNL d   1      32.431  23.262 -18.660  0.00  0.00     0.066 C 
BRANCH  14  15
ATOM     15  C   UNL d   1      32.994  23.114 -18.087  0.00  0.00     0.073 C 
BRANCH  15  16
ATOM     16  C   UNL d   1      32.798  23.145 -17.284  0.00  0.00     0.296 C 
ATOM     17  O   UNL d   1      32.178  23.626 -17.031  0.00  0.00    -0.259 OA
BRANCH  16  18
ATOM     18  O   UNL d   1      33.225  22.695 -16.745  0.00  0.00    -0.296 OA
ATOM     19  C   UNL d   1      33.239  22.904 -15.945  0.00  0.00     0.185 C 
ENDBRANCH  16  18
ENDBRANCH  15  16
ENDBRANCH  14  15
ENDBRANCH   1  14
TORSDOF 6
ENDMDL
MODEL 3
REMARK VINA RESULT:      -2.4      1.735      4.365
REMARK  6 active torsions:
REMARK  status: ('A' for Active; 'I' for Inactive)
REMARK    1  A    between atoms: C_2  and  N_1 
REMARK       I    between atoms: C_3  and  N_9 
REMARK    2  A    between atoms: C_5  and  C_3 
REMARK    3  A    between atoms: C_6  and  C_5 
REMARK    4  A    between atoms: C_7  and  C_6 
REMARK    5  A    between atoms: O_14  and  C_7 
REMARK    6  A    between atoms: N_9  and  C_11 
ROOT
ATOM      1  C   UNL d   1      31.071  17.014 -23.975  0.00  0.00     0.258 C 
ATOM      2  N   UNL d   1      31.868  17.013 -23.762  0.00  0.00    -0.321 N 
ATOM      3  O   UNL d   1      30.746  17.676 -24.323  0.00  0.00    -0.267 OA
ATOM      4  H   UNL d   1      32.193  16.351 -23.414  0.00  0.00     0.169 HD
ENDROOT
BRANCH   2   5
ATOM      5  C   UNL d   1      32.321  17.682 -23.905  0.00  0.00     0.061 A 
ATOM      6  C   UNL d   1      32.503  18.196 -23.271  0.00  0.00     0.041 A 
ATOM      7  C   UNL d   1      32.959  18.873 -23.404  0.00  0.00     0.128 A 
ATOM      8  C   UNL d   1      33.232  19.035 -24.168  0.00  0.00     0.024 A 
ATOM      9  C   UNL d   1      33.053  18.530 -24.794  0.00  0.00     0.003 A 
ATOM     10  C   UNL d   1      32.604  17.863 -24.661  0.00  0.00     0.017 A 
BRANCH   7  11
ATOM     11  N   UNL d   1      33.140  19.380 -22.783  0.00  0.00    -0.114 N 
ATOM     12  O   UNL d   1      33.222  20.190 -22.914  0.00  0.00    -0.532 OA
ATOM     13  O   UNL d   1      33.241  19.071 -22.023  0.00  0.00    -0.532 OA
ENDBRANCH   7  11
ENDBRANCH   2   5
BRANCH   1  14
ATOM     14  C   UNL d   1      30.608  16.351 -23.837  0.00  0.00     0.066 C 
BRANCH  14  15
ATOM     15  C   UNL d   1      29.795  16.412 -23.899  0.00  0.00     0.073 C 
BRANCH  15  16
ATOM     16  C   UNL d   1      29.305  15.803 -23.629  0.00  0.00     0.296 C 
ATOM     17  O   UNL d   1      29.450  15.453 -22.897  0.00  0.00    -0.259 OA
BRANCH  16  18
ATOM     18  O   UNL d   1      28.676  15.554 -24.095  0.00  0.00    -0.296 OA
ATOM     19  C   UNL d   1      27.925  15.453 -23.763  0.00  0.00     0.185 C 
ENDBRANCH  16  18
ENDBRANCH  15  16
ENDBRANCH  14  15
ENDBRANCH   1  14
TORSDOF 6
ENDMDL
MODEL 4
REMARK VINA RESULT:      -2.3      1.316      1.801
REMARK  6 active torsions:
REMARK  status: ('A' for Active; 'I' for Inactive)
REMARK    1  A    between atoms: C_2  and  N_1 
REMARK       I    between atoms: C_3  and  N_9 
REMARK    2  A    between atoms: C_5  and  C_3 
REMARK    3  A    between atoms: C_6  and  C_5 
REMARK    4  A    between atoms: C_7  and  C_6 
REMARK    5  A    between atoms: O_14  and  C_7 
REMARK    6  A    between atoms: N_9  and  C_11 
ROOT
ATOM      1  C   UNL d   1      32.494  17.902 -23.544  0.00  0.00     0.258 C 
ATOM      2  N   UNL d   1      32.277  17.154 -23.273  0.00  0.00    -0.321 N 
ATOM      3  O   UNL d   1      32.232  18.160 -24.272  0.00  0.00    -0.267 OA
ATOM      4  H   UNL d   1      32.538  16.896 -22.545  0.00  0.00     0.169 HD
ENDROOT
BRANCH   2   5
ATOM      5  C   UNL d   1      31.801  16.680 -23.744  0.00  0.00     0.061 A 
ATOM      6  C   UNL d   1      30.992  16.591 -23.549  0.00  0.00     0.041 A 
ATOM      7  C   UNL d   1      30.502  16.117 -24.017  0.00  0.00     0.128 A 
ATOM      8  C   UNL d   1      30.820  15.732 -24.677  0.00  0.00     0.024 A 
ATOM      9  C   UNL d   1      31.616  15.818 -24.870  0.00  0.00     0.003 A 
ATOM     10  C   UNL d   1      32.097  16.286 -24.409  0.00  0.00     0.017 A 
BRANCH   7  11
ATOM     11  N   UNL d   1      29.707  16.027 -23.828  0.00  0.00    -0.114 N 
ATOM     12  O   UNL d   1      29.471  15.487 -23.252  0.00  0.00    -0.532 OA
ATOM     13  O   UNL d   1      29.143  16.485 -24.223  0.00  0.00    -0.532 OA
ENDBRANCH   7  11
ENDBRANCH   2   5
BRANCH   1  14
ATOM     14  C   UNL d   1      32.970  18.385 -23.082  0.00  0.00     0.066 C 
BRANCH  14  15
ATOM     15  C   UNL d   1      32.821  19.188 -23.058  0.00  0.00     0.073 C 
BRANCH  15  16
ATOM     16  C   UNL d   1      33.063  19.643 -22.411  0.00  0.00     0.296 C 
ATOM     17  O   UNL d   1      33.231  19.277 -21.692  0.00  0.00    -0.259 OA
BRANCH  16  18
ATOM     18  O   UNL d   1      33.133  20.457 -22.494  0.00  0.00    -0.296 OA
ATOM     19  C   UNL d   1      33.239  20.936 -21.827  0.00  0.00     0.185 C 
ENDBRANCH  16  18
ENDBRANCH  15  16
ENDBRANCH  14  15
ENDBRANCH   1  14
TORSDOF 6
ENDMDL
MODEL 5
REMARK VINA RESULT:      -2.2      1.566      4.597
REMARK  6 active torsions:
REMARK  status: ('A' for Active; 'I' for Inactive)
REMARK    1  A    between atoms: C_2  and  N_1 
REMARK       I    between atoms: C_3  and  N_9 
REMARK    2  A    between atoms: C_5  and  C_3 
REMARK    3  A    between atoms: C_6  and  C_5 
REMARK    4  A    between atoms: C_7  and  C_6 
REMARK    5  A    between atoms: O_14  and  C_7 
REMARK    6  A    between atoms: N_9  and  C_11 
ROOT
ATOM      1  C   UNL d   1      32.931  19.243 -22.637  0.00  0.00     0.258 C 
ATOM      2  N   UNL d   1      32.881  19.659 -21.926  0.00  0.00    -0.321 N 
ATOM      3  O   UNL d   1      32.980  19.650 -23.342  0.00  0.00    -0.267 OA
ATOM      4  H   UNL d   1      32.831  19.252 -21.222  0.00  0.00     0.169 HD
ENDROOT
BRANCH   2   5
ATOM      5  C   UNL d   1      32.882  20.480 -21.943  0.00  0.00     0.061 A 
ATOM      6  C   UNL d   1      32.510  20.902 -21.323  0.00  0.00     0.041 A 
ATOM      7  C   UNL d   1      32.505  21.728 -21.329  0.00  0.00     0.128 A 
ATOM      8  C   UNL d   1      32.870  22.132 -21.952  0.00  0.00     0.024 A 
ATOM      9  C   UNL d   1      33.237  21.718 -22.563  0.00  0.00     0.003 A 
ATOM     10  C   UNL d   1      33.241  20.904 -22.556  0.00  0.00     0.017 A 
BRANCH   7  11
ATOM     11  N   UNL d   1      32.141  22.146 -20.723  0.00  0.00    -0.114 N 
ATOM     12  O   UNL d   1      32.323  21.985 -19.934  0.00  0.00    -0.532 OA
ATOM     13  O   UNL d   1      31.588  22.733 -20.908  0.00  0.00    -0.532 OA
ENDBRANCH   7  11
ENDBRANCH   2   5
BRANCH   1  14
ATOM     14  C   UNL d   1      32.931  18.423 -22.634  0.00  0.00     0.066 C 
BRANCH  14  15
ATOM     15  C   UNL d   1      32.717  18.021 -23.312  0.00  0.00     0.073 C 
BRANCH  15  16
ATOM     16  C   UNL d   1      32.592  17.203 -23.296  0.00  0.00     0.296 C 
ATOM     17  O   UNL d   1      33.222  16.695 -23.142  0.00  0.00    -0.259 OA
BRANCH  16  18
ATOM     18  O   UNL d   1      31.838  16.907 -23.435  0.00  0.00    -0.296 OA
ATOM     19  C   UNL d   1      31.718  16.326 -24.011  0.00  0.00     0.185 C 
ENDBRANCH  16  18
ENDBRANCH  15  16
ENDBRANCH  14  15
ENDBRANCH   1  14
TORSDOF 6
ENDMDL
MODEL 6
REMARK VINA RESULT:      -1.4      2.303      3.738
REMARK  6 active torsions:
REMARK  status: ('A' for Active; 'I' for Inactive)
REMARK    1  A    between atoms: C_2  and  N_1 
REMARK       I    between atoms: C_3  and  N_9 
REMARK    2  A    between atoms: C_5  and  C_3 
REMARK    3  A    between atoms: C_6  and  C_5 
REMARK    4  A    between atoms: C_7  and  C_6 
REMARK    5  A    between atoms: O_14  and  C_7 
REMARK    6  A    between atoms: N_9  and  C_11 
ROOT
ATOM      1  C   UNL d   1      30.907  17.033 -24.433  0.00  0.00     0.258 C 
ATOM      2  N   UNL d   1      30.733  16.227 -24.418  0.00  0.00    -0.321 N 
ATOM      3  O   UNL d   1      30.300  17.579 -24.435  0.00  0.00    -0.267 OA
ATOM      4  H   UNL d   1      31.340  15.682 -24.416  0.00  0.00     0.169 HD
ENDROOT
BRANCH   2   5
ATOM      5  C   UNL d   1      29.948  15.988 -24.406  0.00  0.00     0.061 A 
ATOM      6  C   UNL d   1      29.514  16.044 -23.693  0.00  0.00     0.041 A 
ATOM      7  C   UNL d   1      28.723  15.805 -23.670  0.00  0.00     0.128 A 
ATOM      8  C   UNL d   1      28.367  15.512 -24.356  0.00  0.00     0.024 A 
ATOM      9  C   UNL d   1      28.793  15.455 -25.059  0.00  0.00     0.003 A 
ATOM     10  C   UNL d   1      29.572  15.691 -25.081  0.00  0.00     0.017 A 
BRANCH   7  11
ATOM     11  N   UNL d   1      28.294  15.859 -22.971  0.00  0.00    -0.114 N 
ATOM     12  O   UNL d   1      28.538  15.453 -22.296  0.00  0.00    -0.532 OA
ATOM     13  O   UNL d   1      27.612  16.327 -22.948  0.00  0.00    -0.532 OA
ENDBRANCH   7  11
ENDBRANCH   2   5
BRANCH   1  14
ATOM     14  C   UNL d   1      31.687  17.285 -24.445  0.00  0.00     0.066 C 
BRANCH  14  15
ATOM     15  C   UNL d   1      31.940  17.830 -23.891  0.00  0.00     0.073 C 
BRANCH  15  16
ATOM     16  C   UNL d   1      32.734  18.058 -23.855  0.00  0.00     0.296 C 
ATOM     17  O   UNL d   1      33.204  18.018 -24.531  0.00  0.00    -0.259 OA
BRANCH  16  18
ATOM     18  O   UNL d   1      33.048  18.322 -23.143  0.00  0.00    -0.296 OA
ATOM     19  C   UNL d   1      33.218  19.124 -23.034  0.00  0.00     0.185 C 
ENDBRANCH  16  18
ENDBRANCH  15  16
ENDBRANCH  14  15
ENDBRANCH   1  14
TORSDOF 6
ENDMDL
MODEL 7
REMARK VINA RESULT:      -0.1      2.147      5.286
REMARK  6 active torsions:
REMARK  status: ('A' for Active; 'I' for Inactive)
REMARK    1  A    between atoms: C_2  and  N_1 
REMARK       I    between atoms: C_3  and  N_9 
REMARK    2  A    between atoms: C_5  and  C_3 
REMARK    3  A    between atoms: C_6  and  C_5 
REMARK    4  A    between atoms: C_7  and  C_6 
REMARK    5  A    between atoms: O_14  and  C_7 
REMARK    6  A    between atoms: N_9  and  C_11 
ROOT
ATOM      1  C   UNL d   1      33.153  20.929 -22.397  0.00  0.00     0.258 C 
ATOM      2  N   UNL d   1      32.996  21.066 -21.599  0.00  0.00    -0.321 N 
ATOM      3  O   UNL d   1      33.241  21.560 -22.907  0.00  0.00    -0.267 OA
ATOM      4  H   UNL d   1      32.908  20.436 -21.090  0.00  0.00     0.169 HD
ENDROOT
BRANCH   2   5
ATOM      5  C   UNL d   1      32.932  21.840 -21.331  0.00  0.00     0.061 A 
ATOM      6  C   UNL d   1      32.803  21.981 -20.517  0.00  0.00     0.041 A 
ATOM      7  C   UNL d   1      32.736  22.756 -20.236  0.00  0.00     0.128 A 
ATOM      8  C   UNL d   1      32.799  23.387 -20.767  0.00  0.00     0.024 A 
ATOM      9  C   UNL d   1      32.926  23.249 -21.570  0.00  0.00     0.003 A 
ATOM     10  C   UNL d   1      32.991  22.485 -21.845  0.00  0.00     0.017 A 
BRANCH   7  11
ATOM     11  N   UNL d   1      32.610  22.899 -19.437  0.00  0.00    -0.114 N 
ATOM     12  O   UNL d   1      33.241  23.081 -18.938  0.00  0.00    -0.532 OA
ATOM     13  O   UNL d   1      31.841  22.859 -19.134  0.00  0.00    -0.532 OA
ENDBRANCH   7  11
ENDBRANCH   2   5
BRANCH   1  14
ATOM     14  C   UNL d   1      33.219  20.161 -22.677  0.00  0.00     0.066 C 
BRANCH  14  15
ATOM     15  C   UNL d   1      32.632  19.620 -22.504  0.00  0.00     0.073 C 
BRANCH  15  16
ATOM     16  C   UNL d   1      32.644  18.863 -22.837  0.00  0.00     0.296 C 
ATOM     17  O   UNL d   1      32.168  18.694 -23.488  0.00  0.00    -0.259 OA
BRANCH  16  18
ATOM     18  O   UNL d   1      33.131  18.287 -22.513  0.00  0.00    -0.296 OA
ATOM     19  C   UNL d   1      33.119  17.515 -22.810  0.00  0.00     0.185 C 
ENDBRANCH  16  18
ENDBRANCH  15  16
ENDBRANCH  14  15
ENDBRANCH   1  14
TORSDOF 6
ENDMDL
