MODEL 1
REMARK VINA RESULT:      39.4      0.000      0.000
REMARK  4 active torsions:
REMARK  status: ('A' for Active; 'I' for Inactive)
REMARK    1  A    between atoms: C_4  and  C_1 
REMARK    2  A    between atoms: N_8  and  C_4 
REMARK    3  A    between atoms: C_12  and  C_4 
REMARK    4  A    between atoms: C_5  and  N_8 
ROOT
ATOM      1  C   UNL d   1      14.386  13.042  -2.547  0.00  0.00     0.085 C 
ENDROOT
BRANCH   1   2
ATOM      2  C   UNL d   1      13.813  12.584  -2.927  0.00  0.00     0.037 A 
ATOM      3  C   UNL d   1      13.206  12.147  -2.554  0.00  0.00     0.083 A 
ATOM      4  N   UNL d   1      12.771  11.782  -3.141  0.00  0.00    -0.245 NA
ATOM      5  C   UNL d   1      13.072  12.095  -1.741  0.00  0.00     0.021 C 
ATOM      6  C   UNL d   1      13.105  11.990  -3.867  0.00  0.00     0.081 A 
ATOM      7  C   UNL d   1      13.739  12.479  -3.727  0.00  0.00     0.021 A 
ATOM      8  C   UNL d   1      12.894  11.783  -4.642  0.00  0.00     0.019 A 
ATOM      9  C   UNL d   1      14.176  12.771  -4.359  0.00  0.00     0.002 A 
ATOM     10  C   UNL d   1      13.978  12.574  -5.135  0.00  0.00     0.000 A 
ATOM     11  C   UNL d   1      13.343  12.084  -5.275  0.00  0.00     0.002 A 
ENDBRANCH   1   2
BRANCH   1  12
ATOM     12  N   UNL d   1      14.994  12.712  -2.184  0.00  0.00    -0.221 NA
BRANCH  12  13
ATOM     13  C   UNL d   1      14.919  12.509  -1.442  0.00  0.00     0.194 A 
ATOM     14  N   UNL d   1      14.415  11.978  -1.145  0.00  0.00    -0.219 NA
ATOM     15  C   UNL d   1      14.522  11.946  -0.400  0.00  0.00     0.108 A 
ATOM     16  C   UNL d   1      15.082  12.444  -0.209  0.00  0.00     0.059 A 
ATOM     17  S   UNL d   1      15.334  12.797  -0.854  0.00  0.00    -0.046 SA
ENDBRANCH  12  13
ENDBRANCH   1  12
BRANCH   1  18
ATOM     18  C   UNL d   1      14.334  13.866  -2.538  0.00  0.00     0.021 A 
ATOM     19  C   UNL d   1      14.604  14.274  -1.873  0.00  0.00     0.022 A 
ATOM     20  C   UNL d   1      14.557  15.100  -1.851  0.00  0.00     0.099 A 
ATOM     21  N   UNL d   1      14.242  15.509  -2.491  0.00  0.00    -0.242 NA
ATOM     22  C   UNL d   1      13.971  15.098  -3.158  0.00  0.00     0.099 A 
ATOM     23  C   UNL d   1      14.018  14.275  -3.178  0.00  0.00     0.022 A 
ENDBRANCH   1  18
TORSDOF 4
ENDMDL
MODEL 2
REMARK VINA RESULT:      39.7      0.982      3.284
REMARK  4 active torsions:
REMARK  status: ('A' for Active; 'I' for Inactive)
REMARK    1  A    between atoms: C_4  and  C_1 
REMARK    2  A    between atoms: N_8  and  C_4 
REMARK    3  A    between atoms: C_12  and  C_4 
REMARK    4  A    between atoms: C_5  and  N_8 
ROOT
ATOM      1  C   UNL d   1      14.250  12.787  -2.686  0.00  0.00     0.085 C 
ENDROOT
BRANCH   1   2
ATOM      2  C   UNL d   1      14.163  12.433  -1.945  0.00  0.00     0.037 A 
ATOM      3  C   UNL d   1      13.479  12.043  -1.664  0.00  0.00     0.083 A 
ATOM      4  N   UNL d   1      13.640  11.779  -0.908  0.00  0.00    -0.245 NA
ATOM      5  C   UNL d   1      12.770  11.944  -2.077  0.00  0.00     0.021 C 
ATOM      6  C   UNL d   1      14.414  12.003  -0.724  0.00  0.00     0.081 A 
ATOM      7  C   UNL d   1      14.725  12.401  -1.362  0.00  0.00     0.021 A 
ATOM      8  C   UNL d   1      14.865  11.884  -0.039  0.00  0.00     0.019 A 
ATOM      9  C   UNL d   1      15.493  12.687  -1.328  0.00  0.00     0.002 A 
ATOM     10  C   UNL d   1      15.955  12.576  -0.653  0.00  0.00     0.000 A 
ATOM     11  C   UNL d   1      15.644  12.179  -0.015  0.00  0.00     0.002 A 
ENDBRANCH   1   2
BRANCH   1  12
ATOM     12  N   UNL d   1      14.681  13.431  -2.780  0.00  0.00    -0.221 NA
BRANCH  12  13
ATOM     13  C   UNL d   1      14.332  14.083  -3.007  0.00  0.00     0.194 A 
ATOM     14  N   UNL d   1      14.207  14.318  -3.751  0.00  0.00    -0.219 NA
ATOM     15  C   UNL d   1      13.852  14.981  -3.729  0.00  0.00     0.108 A 
ATOM     16  C   UNL d   1      13.745  15.181  -2.990  0.00  0.00     0.059 A 
ATOM     17  S   UNL d   1      14.042  14.625  -2.535  0.00  0.00    -0.046 SA
ENDBRANCH  12  13
ENDBRANCH   1  12
BRANCH   1  18
ATOM     18  C   UNL d   1      13.882  12.470  -3.354  0.00  0.00     0.021 A 
ATOM     19  C   UNL d   1      13.149  12.101  -3.266  0.00  0.00     0.022 A 
ATOM     20  C   UNL d   1      12.769  11.779  -3.927  0.00  0.00     0.099 A 
ATOM     21  N   UNL d   1      13.124  11.828  -4.667  0.00  0.00    -0.242 NA
ATOM     22  C   UNL d   1      13.861  12.199  -4.754  0.00  0.00     0.099 A 
ATOM     23  C   UNL d   1      14.237  12.519  -4.094  0.00  0.00     0.022 A 
ENDBRANCH   1  18
TORSDOF 4
ENDMDL
