MODEL 1
REMARK VINA RESULT:      45.0      0.000      0.000
REMARK  8 active torsions:
REMARK  status: ('A' for Active; 'I' for Inactive)
REMARK    1  A    between atoms: C_6  and  N_1 
REMARK    2  A    between atoms: S_10  and  C_2 
REMARK    3  A    between atoms: C_12  and  C_3 
REMARK    4  A    between atoms: C_7  and  C_8 
REMARK    5  A    between atoms: C_21  and  S_10 
REMARK    6  A    between atoms: O_15  and  C_12 
REMARK    7  A    between atoms: C_13  and  C_21 
REMARK    8  A    between atoms: C_16  and  O_15 
ROOT
ATOM      1  N   UNL d   1      46.395 -17.129  43.606  0.00  0.00    -0.268 N 
ATOM      2  C   UNL d   1      46.425 -17.813  44.133  0.00  0.00     0.198 A 
ATOM      3  C   UNL d   1      46.289 -16.420  44.091  0.00  0.00     0.196 A 
ATOM      4  N   UNL d   1      46.337 -17.525  44.953  0.00  0.00    -0.122 NA
ATOM      5  N   UNL d   1      46.253 -16.663  44.915  0.00  0.00    -0.126 NA
ENDROOT
BRANCH   3   6
ATOM      6  C   UNL d   1      46.229 -15.608  43.793  0.00  0.00     0.162 C 
BRANCH   6   7
ATOM      7  O   UNL d   1      46.096 -14.956  44.349  0.00  0.00    -0.300 OA
BRANCH   7   8
ATOM      8  C   UNL d   1      45.871 -14.172  44.233  0.00  0.00     0.118 A 
ATOM      9  C   UNL d   1      45.077 -13.964  44.297  0.00  0.00     0.104 A 
ATOM     10  N   UNL d   1      44.510 -14.537  44.476  0.00  0.00    -0.242 NA
ATOM     11  C   UNL d   1      44.846 -13.174  44.181  0.00  0.00     0.020 A 
ATOM     12  C   UNL d   1      43.715 -14.317  44.538  0.00  0.00     0.099 A 
ATOM     13  C   UNL d   1      43.497 -13.539  44.423  0.00  0.00     0.021 A 
ATOM     14  C   UNL d   1      44.058 -12.972  44.245  0.00  0.00     0.003 A 
ATOM     15  C   UNL d   1      45.407 -12.607  44.003  0.00  0.00     0.002 A 
ATOM     16  C   UNL d   1      46.201 -12.815  43.939  0.00  0.00     0.002 A 
ATOM     17  C   UNL d   1      46.435 -13.608  44.056  0.00  0.00     0.026 A 
ENDBRANCH   7   8
ENDBRANCH   6   7
ENDBRANCH   3   6
BRANCH   1  18
ATOM     18  C   UNL d   1      46.456 -17.147  42.787  0.00  0.00     0.067 A 
ATOM     19  C   UNL d   1      46.394 -17.859  42.390  0.00  0.00     0.021 A 
ATOM     20  C   UNL d   1      46.453 -17.885  41.578  0.00  0.00     0.073 A 
ATOM     21  C   UNL d   1      46.579 -17.186  41.151  0.00  0.00     0.004 A 
ATOM     22  C   UNL d   1      46.641 -16.469  41.556  0.00  0.00     0.001 A 
ATOM     23  C   UNL d   1      46.581 -16.450  42.365  0.00  0.00     0.018 A 
BRANCH  20  24
ATOM     24  C   UNL d   1      46.389 -18.612  41.173  0.00  0.00     0.419 C 
ATOM     25  F   UNL d   1      46.332 -19.280  40.803  0.00  0.00    -0.166 F 
ATOM     26  F   UNL d   1      46.053 -18.787  40.380  0.00  0.00    -0.166 F 
ATOM     27  F   UNL d   1      46.643 -19.415  41.428  0.00  0.00    -0.166 F 
ENDBRANCH  20  24
ENDBRANCH   1  18
BRANCH   2  28
ATOM     28  S   UNL d   1      46.525 -18.632  43.892  0.00  0.00    -0.064 SA
BRANCH  28  29
ATOM     29  C   UNL d   1      46.426 -19.276  44.461  0.00  0.00     0.162 C 
BRANCH  29  30
ATOM     30  C   UNL d   1      45.833 -19.886  44.337  0.00  0.00     0.197 C 
ATOM     31  O   UNL d   1      45.249 -20.054  44.955  0.00  0.00    -0.647 OA
ATOM     32  O   UNL d   1      45.820 -20.330  43.598  0.00  0.00    -0.647 OA
ENDBRANCH  29  30
ENDBRANCH  28  29
ENDBRANCH   2  28
TORSDOF 8
ENDMDL
