MODEL 1
REMARK VINA RESULT:      43.2      0.000      0.000
REMARK  3 active torsions:
REMARK  status: ('A' for Active; 'I' for Inactive)
REMARK    1  A    between atoms: C_6  and  C_1 
REMARK    2  A    between atoms: C_4  and  C_8 
REMARK       I    between atoms: N_11  and  C_6 
REMARK       I    between atoms: C_8  and  N_12 
REMARK    3  A    between atoms: N_12  and  N_11 
ROOT
ATOM      1  C   UNL d   1     -54.748-100.971 -40.826  0.00  0.00     0.302 C 
ATOM      2  N   UNL d   1     -54.718-101.303 -41.579  0.00  0.00    -0.102 NA
ATOM      3  O   UNL d   1     -54.770-100.151 -40.728  0.00  0.00    -0.263 OA
ENDROOT
BRANCH   1   4
ATOM      4  C   UNL d   1     -54.755-101.457 -40.153  0.00  0.00     0.123 A 
ATOM      5  C   UNL d   1     -54.782-102.267 -40.234  0.00  0.00     0.305 A 
ATOM      6  O   UNL d   1     -54.790-102.745 -39.552  0.00  0.00    -0.273 OA
ATOM      7  O   UNL d   1     -54.802-102.610 -40.980  0.00  0.00    -0.259 OA
ATOM      8  C   UNL d   1     -54.770-102.402 -38.805  0.00  0.00     0.103 A 
ATOM      9  C   UNL d   1     -54.743-101.578 -38.727  0.00  0.00     0.024 A 
ATOM     10  C   UNL d   1     -54.778-102.879 -38.136  0.00  0.00     0.025 A 
ATOM     11  C   UNL d   1     -54.736-101.106 -39.406  0.00  0.00     0.012 A 
ATOM     12  C   UNL d   1     -54.724-101.236 -37.981  0.00  0.00     0.009 A 
ATOM     13  C   UNL d   1     -54.731-101.705 -37.306  0.00  0.00     0.035 A 
ATOM     14  C   UNL d   1     -54.758-102.533 -37.384  0.00  0.00     0.009 A 
ATOM     15 BR   UNL d   1     -54.712-101.362 -36.560  0.00  0.00    -0.049 Br
ENDBRANCH   1   4
BRANCH   2  16
ATOM     16  N   UNL d   1     -54.711-100.806 -42.238  0.00  0.00    -0.102 NA
ATOM     17  C   UNL d   1     -54.921-101.111 -42.974  0.00  0.00     0.300 C 
ATOM     18  O   UNL d   1     -55.136-101.904 -43.055  0.00  0.00    -0.264 OA
BRANCH  17  19
ATOM     19  C   UNL d   1     -54.917-100.622 -43.639  0.00  0.00     0.098 A 
ATOM     20  C   UNL d   1     -54.862-100.955 -44.392  0.00  0.00     0.203 A 
ATOM     21  C   UNL d   1     -54.857-100.476 -45.053  0.00  0.00     0.084 A 
ATOM     22  O   UNL d   1     -54.811-101.773 -44.478  0.00  0.00    -0.286 OA
ATOM     23  C   UNL d   1     -54.907 -99.657 -44.971  0.00  0.00     0.199 A 
ATOM     24  C   UNL d   1     -54.962 -99.320 -44.219  0.00  0.00     0.042 A 
ATOM     25  O   UNL d   1     -54.903 -99.172 -45.637  0.00  0.00    -0.286 OA
ATOM     26  C   UNL d   1     -54.967 -99.810 -43.550  0.00  0.00     0.011 A 
ENDBRANCH  17  19
ENDBRANCH   2  16
TORSDOF 3
ENDMDL
