MODEL 1
REMARK VINA RESULT:      -2.8      0.000      0.000
REMARK  8 active torsions:
REMARK  status: ('A' for Active; 'I' for Inactive)
REMARK    1  A    between atoms: S_10  and  C_3 
REMARK    2  A    between atoms: C_12  and  C_7 
REMARK    3  A    between atoms: C_15  and  S_10 
REMARK    4  A    between atoms: C_11  and  C_15 
REMARK       I    between atoms: N_16  and  C_11 
REMARK    5  A    between atoms: C_23  and  N_16 
REMARK    6  A    between atoms: O_24  and  C_17 
REMARK    7  A    between atoms: C_18  and  C_29 
REMARK    8  A    between atoms: C_29  and  C_23 
ROOT
ATOM      1  N   UNL d   1      57.982   0.644  32.537  0.00  0.00    -0.186 N 
ATOM      2  N   UNL d   1      57.189   0.624  32.729  0.00  0.00    -0.162 NA
ATOM      3  C   UNL d   1      58.374   0.651  31.808  0.00  0.00     0.217 A 
ATOM      4  C   UNL d   1      58.559   0.663  33.127  0.00  0.00     0.187 A 
ATOM      5  N   UNL d   1      59.178   0.674  31.958  0.00  0.00    -0.120 NA
ATOM      6  N   UNL d   1      59.294   0.682  32.775  0.00  0.00    -0.127 NA
ATOM      7  C   UNL d   1      56.962   0.622  33.525  0.00  0.00     0.102 A 
ATOM      8  C   UNL d   1      58.328   0.662  33.925  0.00  0.00     0.042 A 
ATOM      9  C   UNL d   1      57.535   0.641  34.120  0.00  0.00     0.024 A 
ENDROOT
BRANCH   3  10
ATOM     10  S   UNL d   1      58.035   0.637  31.056  0.00  0.00    -0.041 SA
BRANCH  10  11
ATOM     11  C   UNL d   1      58.347   0.164  30.471  0.00  0.00     0.101 C 
BRANCH  11  12
ATOM     12  C   UNL d   1      58.012   0.159  29.726  0.00  0.00     0.286 C 
ATOM     13  O   UNL d   1      57.303   0.553  29.574  0.00  0.00    -0.265 OA
ATOM     14  N   UNL d   1      58.381  -0.245  29.109  0.00  0.00    -0.206 NA
BRANCH  14  15
ATOM     15  C   UNL d   1      59.092  -0.642  29.252  0.00  0.00     0.102 C 
BRANCH  15  16
ATOM     16  C   UNL d   1      59.415  -1.130  28.667  0.00  0.00     0.021 C 
BRANCH  16  17
ATOM     17  C   UNL d   1      59.830  -1.815  28.883  0.00  0.00     0.002 A 
ATOM     18  C   UNL d   1      60.628  -1.770  29.102  0.00  0.00     0.002 A 
ATOM     19  C   UNL d   1      61.044  -2.456  29.318  0.00  0.00     0.024 A 
ATOM     20  C   UNL d   1      60.659  -3.179  29.312  0.00  0.00     0.094 A 
ATOM     21  C   UNL d   1      59.865  -3.233  29.095  0.00  0.00     0.024 A 
ATOM     22  C   UNL d   1      59.451  -2.552  28.880  0.00  0.00     0.002 A 
BRANCH  20  23
ATOM     23  O   UNL d   1      61.057  -3.880  29.525  0.00  0.00    -0.328 OA
ATOM     24  C   UNL d   1      60.991  -4.548  29.055  0.00  0.00     0.181 C 
ENDBRANCH  20  23
ENDBRANCH  16  17
ENDBRANCH  15  16
ENDBRANCH  14  15
ENDBRANCH  11  12
ENDBRANCH  10  11
ENDBRANCH   3  10
BRANCH   7  25
ATOM     25  C   UNL d   1      56.162   0.601  33.724  0.00  0.00     0.022 A 
ATOM     26  C   UNL d   1      55.941   0.502  34.502  0.00  0.00     0.022 A 
ATOM     27  C   UNL d   1      55.152   0.481  34.706  0.00  0.00     0.099 A 
ATOM     28  N   UNL d   1      54.572   0.559  34.125  0.00  0.00    -0.242 NA
ATOM     29  C   UNL d   1      54.797   0.658  33.345  0.00  0.00     0.099 A 
ATOM     30  C   UNL d   1      55.598   0.679  33.145  0.00  0.00     0.022 A 
ENDBRANCH   7  25
TORSDOF 8
ENDMDL
MODEL 2
REMARK VINA RESULT:      -2.6      1.988      6.024
REMARK  8 active torsions:
REMARK  status: ('A' for Active; 'I' for Inactive)
REMARK    1  A    between atoms: S_10  and  C_3 
REMARK    2  A    between atoms: C_12  and  C_7 
REMARK    3  A    between atoms: C_15  and  S_10 
REMARK    4  A    between atoms: C_11  and  C_15 
REMARK       I    between atoms: N_16  and  C_11 
REMARK    5  A    between atoms: C_23  and  N_16 
REMARK    6  A    between atoms: O_24  and  C_17 
REMARK    7  A    between atoms: C_18  and  C_29 
REMARK    8  A    between atoms: C_29  and  C_23 
ROOT
ATOM      1  N   UNL d   1      59.891  -1.817  28.867  0.00  0.00    -0.186 N 
ATOM      2  N   UNL d   1      59.457  -2.503  28.777  0.00  0.00    -0.162 NA
ATOM      3  C   UNL d   1      59.662  -1.024  28.933  0.00  0.00     0.217 A 
ATOM      4  C   UNL d   1      60.714  -1.840  28.906  0.00  0.00     0.187 A 
ATOM      5  N   UNL d   1      60.342  -0.575  29.012  0.00  0.00    -0.120 NA
ATOM      6  N   UNL d   1      60.995  -1.080  28.995  0.00  0.00    -0.127 NA
ATOM      7  C   UNL d   1      59.850  -3.230  28.725  0.00  0.00     0.102 A 
ATOM      8  C   UNL d   1      61.106  -2.571  28.853  0.00  0.00     0.042 A 
ATOM      9  C   UNL d   1      60.675  -3.259  28.764  0.00  0.00     0.024 A 
ENDROOT
BRANCH   3  10
ATOM     10  S   UNL d   1      58.895  -0.720  28.925  0.00  0.00    -0.041 SA
BRANCH  10  11
ATOM     11  C   UNL d   1      58.583  -0.367  29.589  0.00  0.00     0.101 C 
BRANCH  11  12
ATOM     12  C   UNL d   1      57.955   0.149  29.522  0.00  0.00     0.286 C 
ATOM     13  O   UNL d   1      57.771   0.508  28.800  0.00  0.00    -0.265 OA
ATOM     14  N   UNL d   1      57.489   0.324  30.180  0.00  0.00    -0.206 NA
BRANCH  14  15
ATOM     15  C   UNL d   1      57.665  -0.030  30.906  0.00  0.00     0.102 C 
BRANCH  15  16
ATOM     16  C   UNL d   1      57.575   0.402  31.605  0.00  0.00     0.021 C 
BRANCH  16  17
ATOM     17  C   UNL d   1      56.960   0.214  32.131  0.00  0.00     0.002 A 
ATOM     18  C   UNL d   1      56.276   0.682  32.160  0.00  0.00     0.002 A 
ATOM     19  C   UNL d   1      55.661   0.493  32.686  0.00  0.00     0.024 A 
ATOM     20  C   UNL d   1      55.735  -0.158  33.176  0.00  0.00     0.094 A 
ATOM     21  C   UNL d   1      56.412  -0.629  33.154  0.00  0.00     0.024 A 
ATOM     22  C   UNL d   1      57.024  -0.444  32.632  0.00  0.00     0.002 A 
BRANCH  20  23
ATOM     23  O   UNL d   1      55.130  -0.365  33.711  0.00  0.00    -0.328 OA
ATOM     24  C   UNL d   1      54.493   0.136  33.824  0.00  0.00     0.181 C 
ENDBRANCH  20  23
ENDBRANCH  16  17
ENDBRANCH  15  16
ENDBRANCH  14  15
ENDBRANCH  11  12
ENDBRANCH  10  11
ENDBRANCH   3  10
BRANCH   7  25
ATOM     25  C   UNL d   1      59.416  -3.925  28.635  0.00  0.00     0.022 A 
ATOM     26  C   UNL d   1      58.603  -3.894  28.611  0.00  0.00     0.022 A 
ATOM     27  C   UNL d   1      58.168  -4.578  28.522  0.00  0.00     0.099 A 
ATOM     28  N   UNL d   1      58.550  -5.306  28.455  0.00  0.00    -0.242 NA
ATOM     29  C   UNL d   1      59.367  -5.334  28.479  0.00  0.00     0.099 A 
ATOM     30  C   UNL d   1      59.802  -4.638  28.570  0.00  0.00     0.022 A 
ENDBRANCH   7  25
TORSDOF 8
ENDMDL
