MODEL 1
REMARK VINA RESULT:      36.9      0.000      0.000
REMARK  4 active torsions:
REMARK  status: ('A' for Active; 'I' for Inactive)
REMARK    1  A    between atoms: C_2  and  S_1 
REMARK    2  A    between atoms: C_4  and  S_1 
REMARK    3  A    between atoms: C_3  and  C_2 
REMARK    4  A    between atoms: C_8  and  C_3 
ROOT
ATOM      1  S   UNL d   1     -51.440  25.407  33.559  0.00  0.00     0.214 S 
ATOM      2  O   UNL d   1     -51.973  26.034  33.608  0.00  0.00    -0.217 OA
ATOM      3  O   UNL d   1     -50.913  24.797  33.512  0.00  0.00    -0.217 OA
ENDROOT
BRANCH   1   4
ATOM      4  C   UNL d   1     -50.831  25.945  33.614  0.00  0.00     0.141 C 
BRANCH   4   5
ATOM      5  C   UNL d   1     -50.996  26.741  33.651  0.00  0.00     0.207 C 
ATOM      6  O   UNL d   1     -51.755  26.945  33.804  0.00  0.00    -0.286 OA
BRANCH   5   7
ATOM      7  C   UNL d   1     -50.404  27.305  33.536  0.00  0.00     0.040 A 
ATOM      8  C   UNL d   1     -49.613  27.069  33.534  0.00  0.00     0.003 A 
ATOM      9  C   UNL d   1     -49.022  27.632  33.419  0.00  0.00     0.000 A 
ATOM     10  C   UNL d   1     -49.189  28.418  33.307  0.00  0.00     0.000 A 
ATOM     11  C   UNL d   1     -49.975  28.651  33.310  0.00  0.00     0.000 A 
ATOM     12  C   UNL d   1     -50.568  28.087  33.425  0.00  0.00     0.003 A 
ENDBRANCH   5   7
ENDBRANCH   4   5
ENDBRANCH   1   4
BRANCH   1  13
ATOM     13  C   UNL d   1     -52.056  24.887  33.505  0.00  0.00     0.088 A 
ATOM     14  C   UNL d   1     -51.903  24.082  33.454  0.00  0.00     0.011 A 
ATOM     15  C   UNL d   1     -52.512  23.523  33.398  0.00  0.00     0.001 A 
ATOM     16  C   UNL d   1     -53.307  23.815  33.395  0.00  0.00     0.000 A 
ATOM     17  C   UNL d   1     -53.445  24.602  33.445  0.00  0.00     0.001 A 
ATOM     18  C   UNL d   1     -53.956  23.284  33.340  0.00  0.00     0.000 C 
ATOM     19  C   UNL d   1     -52.826  25.147  33.501  0.00  0.00     0.011 A 
ENDBRANCH   1  13
TORSDOF 4
ENDMDL
