MODEL 1
REMARK VINA RESULT:      -9.8      0.000      0.000
REMARK  3 active torsions:
REMARK  status: ('A' for Active; 'I' for Inactive)
REMARK    1  A    between atoms: C_9  and  S_1 
REMARK       I    between atoms: C_4  and  N_8 
REMARK    2  A    between atoms: C_5  and  C_4 
REMARK    3  A    between atoms: N_8  and  C_18 
ROOT
ATOM      1  C   UNL d   1      53.364  31.057  53.371  0.00  0.00     0.302 C 
ATOM      2  N   UNL d   1      52.617  31.169  53.049  0.00  0.00    -0.206 NA
ATOM      3  O   UNL d   1      53.689  30.302  53.405  0.00  0.00    -0.263 OA
ENDROOT
BRANCH   1   4
ATOM      4  C   UNL d   1      53.791  31.694  53.662  0.00  0.00     0.161 A 
ATOM      5  O   UNL d   1      54.297  32.117  53.150  0.00  0.00    -0.268 OA
ATOM      6  C   UNL d   1      54.732  32.763  53.442  0.00  0.00     0.300 A 
ATOM      7  O   UNL d   1      55.230  33.180  52.937  0.00  0.00    -0.259 OA
ATOM      8  C   UNL d   1      54.666  32.990  54.235  0.00  0.00     0.064 A 
ATOM      9  C   UNL d   1      54.158  32.563  54.741  0.00  0.00     0.007 A 
ATOM     10  C   UNL d   1      55.095  33.628  54.520  0.00  0.00     0.005 A 
ATOM     11  C   UNL d   1      53.723  31.920  54.458  0.00  0.00     0.030 A 
ATOM     12  C   UNL d   1      54.092  32.791  55.535  0.00  0.00     0.000 A 
ATOM     13  C   UNL d   1      54.528  33.434  55.812  0.00  0.00     0.000 A 
ATOM     14  C   UNL d   1      55.027  33.850  55.308  0.00  0.00     0.000 A 
ENDBRANCH   1   4
BRANCH   2  15
ATOM     15  C   UNL d   1      52.293  31.928  53.017  0.00  0.00     0.085 A 
ATOM     16  C   UNL d   1      51.798  32.183  53.618  0.00  0.00     0.020 A 
ATOM     17  C   UNL d   1      51.474  32.938  53.590  0.00  0.00     0.015 A 
ATOM     18  C   UNL d   1      51.650  33.437  52.953  0.00  0.00     0.107 A 
ATOM     19  C   UNL d   1      52.150  33.172  52.352  0.00  0.00     0.015 A 
ATOM     20  C   UNL d   1      52.471  32.425  52.381  0.00  0.00     0.020 A 
BRANCH  18  21
ATOM     21  S   UNL d   1      51.326  34.193  52.924  0.00  0.00     0.302 S 
ATOM     22  O   UNL d   1      52.011  34.559  52.682  0.00  0.00    -0.197 OA
ATOM     23  O   UNL d   1      50.635  33.810  53.171  0.00  0.00    -0.197 OA
ATOM     24  N   UNL d   1      50.927  34.908  52.922  0.00  0.00    -0.043 N 
ENDBRANCH  18  21
ENDBRANCH   2  15
TORSDOF 3
ENDMDL
MODEL 2
REMARK VINA RESULT:      -9.7      1.399      2.308
REMARK  3 active torsions:
REMARK  status: ('A' for Active; 'I' for Inactive)
REMARK    1  A    between atoms: C_9  and  S_1 
REMARK       I    between atoms: C_4  and  N_8 
REMARK    2  A    between atoms: C_5  and  C_4 
REMARK    3  A    between atoms: N_8  and  C_18 
ROOT
ATOM      1  C   UNL d   1      54.168  34.024  55.071  0.00  0.00     0.302 C 
ATOM      2  N   UNL d   1      53.614  34.616  54.944  0.00  0.00    -0.206 NA
ATOM      3  O   UNL d   1      54.725  34.103  55.671  0.00  0.00    -0.263 OA
ENDROOT
BRANCH   1   4
ATOM      4  C   UNL d   1      54.172  33.350  54.603  0.00  0.00     0.161 A 
ATOM      5  O   UNL d   1      54.608  33.346  53.892  0.00  0.00    -0.268 OA
ATOM      6  C   UNL d   1      54.613  32.664  53.416  0.00  0.00     0.300 A 
ATOM      7  O   UNL d   1      55.043  32.660  52.715  0.00  0.00    -0.259 OA
ATOM      8  C   UNL d   1      54.189  31.990  53.642  0.00  0.00     0.064 A 
ATOM      9  C   UNL d   1      53.755  32.001  54.354  0.00  0.00     0.007 A 
ATOM     10  C   UNL d   1      54.195  31.319  53.171  0.00  0.00     0.005 A 
ATOM     11  C   UNL d   1      53.745  32.675  54.833  0.00  0.00     0.030 A 
ATOM     12  C   UNL d   1      53.330  31.327  54.580  0.00  0.00     0.000 A 
ATOM     13  C   UNL d   1      53.343  30.657  54.099  0.00  0.00     0.000 A 
ATOM     14  C   UNL d   1      53.773  30.653  53.399  0.00  0.00     0.000 A 
ENDBRANCH   1   4
BRANCH   2  15
ATOM     15  C   UNL d   1      53.055  34.533  54.341  0.00  0.00     0.085 A 
ATOM     16  C   UNL d   1      52.351  34.144  54.492  0.00  0.00     0.020 A 
ATOM     17  C   UNL d   1      51.793  34.059  53.895  0.00  0.00     0.015 A 
ATOM     18  C   UNL d   1      51.947  34.368  53.142  0.00  0.00     0.107 A 
ATOM     19  C   UNL d   1      52.658  34.759  52.999  0.00  0.00     0.015 A 
ATOM     20  C   UNL d   1      53.211  34.842  53.590  0.00  0.00     0.020 A 
BRANCH  18  21
ATOM     21  S   UNL d   1      51.388  34.284  52.544  0.00  0.00     0.302 S 
ATOM     22  O   UNL d   1      51.931  34.164  51.950  0.00  0.00    -0.197 OA
ATOM     23  O   UNL d   1      50.843  34.407  53.155  0.00  0.00    -0.197 OA
ATOM     24  N   UNL d   1      50.771  34.212  52.011  0.00  0.00    -0.043 N 
ENDBRANCH  18  21
ENDBRANCH   2  15
TORSDOF 3
ENDMDL
MODEL 3
REMARK VINA RESULT:      -9.6      1.725      3.569
REMARK  3 active torsions:
REMARK  status: ('A' for Active; 'I' for Inactive)
REMARK    1  A    between atoms: C_9  and  S_1 
REMARK       I    between atoms: C_4  and  N_8 
REMARK    2  A    between atoms: C_5  and  C_4 
REMARK    3  A    between atoms: N_8  and  C_18 
ROOT
ATOM      1  C   UNL d   1      53.635  34.365  54.552  0.00  0.00     0.302 C 
ATOM      2  N   UNL d   1      54.055  33.682  54.728  0.00  0.00    -0.206 NA
ATOM      3  O   UNL d   1      53.802  35.065  54.949  0.00  0.00    -0.263 OA
ENDROOT
BRANCH   1   4
ATOM      4  C   UNL d   1      53.047  34.356  53.978  0.00  0.00     0.161 A 
ATOM      5  O   UNL d   1      53.244  34.531  53.187  0.00  0.00    -0.268 OA
ATOM      6  C   UNL d   1      52.650  34.523  52.604  0.00  0.00     0.300 A 
ATOM      7  O   UNL d   1      52.843  34.696  51.824  0.00  0.00    -0.259 OA
ATOM      8  C   UNL d   1      51.867  34.342  52.804  0.00  0.00     0.064 A 
ATOM      9  C   UNL d   1      51.679  34.168  53.598  0.00  0.00     0.007 A 
ATOM     10  C   UNL d   1      51.284  34.334  52.228  0.00  0.00     0.005 A 
ATOM     11  C   UNL d   1      52.263  34.174  54.182  0.00  0.00     0.030 A 
ATOM     12  C   UNL d   1      50.895  33.987  53.798  0.00  0.00     0.000 A 
ATOM     13  C   UNL d   1      50.316  33.982  53.210  0.00  0.00     0.000 A 
ATOM     14  C   UNL d   1      50.509  34.155  52.430  0.00  0.00     0.000 A 
ENDBRANCH   1   4
BRANCH   2  15
ATOM     15  C   UNL d   1      53.885  32.980  54.326  0.00  0.00     0.085 A 
ATOM     16  C   UNL d   1      53.336  32.458  54.638  0.00  0.00     0.020 A 
ATOM     17  C   UNL d   1      53.164  31.759  54.241  0.00  0.00     0.015 A 
ATOM     18  C   UNL d   1      53.548  31.587  53.527  0.00  0.00     0.107 A 
ATOM     19  C   UNL d   1      54.098  32.118  53.221  0.00  0.00     0.015 A 
ATOM     20  C   UNL d   1      54.269  32.810  53.614  0.00  0.00     0.020 A 
BRANCH  18  21
ATOM     21  S   UNL d   1      53.376  30.887  53.130  0.00  0.00     0.302 S 
ATOM     22  O   UNL d   1      53.033  31.248  52.487  0.00  0.00    -0.197 OA
ATOM     23  O   UNL d   1      53.727  30.529  53.788  0.00  0.00    -0.197 OA
ATOM     24  N   UNL d   1      53.241  30.149  52.803  0.00  0.00    -0.043 N 
ENDBRANCH  18  21
ENDBRANCH   2  15
TORSDOF 3
ENDMDL
MODEL 4
REMARK VINA RESULT:      -9.6      1.680      3.247
REMARK  3 active torsions:
REMARK  status: ('A' for Active; 'I' for Inactive)
REMARK    1  A    between atoms: C_9  and  S_1 
REMARK       I    between atoms: C_4  and  N_8 
REMARK    2  A    between atoms: C_5  and  C_4 
REMARK    3  A    between atoms: N_8  and  C_18 
ROOT
ATOM      1  C   UNL d   1      52.899  31.384  52.934  0.00  0.00     0.302 C 
ATOM      2  N   UNL d   1      53.547  31.276  53.427  0.00  0.00    -0.206 NA
ATOM      3  O   UNL d   1      52.597  30.752  52.505  0.00  0.00    -0.263 OA
ENDROOT
BRANCH   1   4
ATOM      4  C   UNL d   1      52.548  32.123  52.866  0.00  0.00     0.161 A 
ATOM      5  O   UNL d   1      52.894  32.698  52.371  0.00  0.00    -0.268 OA
ATOM      6  C   UNL d   1      52.540  33.448  52.300  0.00  0.00     0.300 A 
ATOM      7  O   UNL d   1      52.881  34.015  51.812  0.00  0.00    -0.259 OA
ATOM      8  C   UNL d   1      51.847  33.627  52.717  0.00  0.00     0.064 A 
ATOM      9  C   UNL d   1      51.507  33.047  53.210  0.00  0.00     0.007 A 
ATOM     10  C   UNL d   1      51.500  34.366  52.646  0.00  0.00     0.005 A 
ATOM     11  C   UNL d   1      51.853  32.300  53.286  0.00  0.00     0.030 A 
ATOM     12  C   UNL d   1      50.814  33.226  53.627  0.00  0.00     0.000 A 
ATOM     13  C   UNL d   1      50.472  33.973  53.548  0.00  0.00     0.000 A 
ATOM     14  C   UNL d   1      50.814  34.539  53.061  0.00  0.00     0.000 A 
ENDBRANCH   1   4
BRANCH   2  15
ATOM     15  C   UNL d   1      53.848  31.914  53.857  0.00  0.00     0.085 A 
ATOM     16  C   UNL d   1      54.427  32.389  53.525  0.00  0.00     0.020 A 
ATOM     17  C   UNL d   1      54.729  33.024  53.950  0.00  0.00     0.015 A 
ATOM     18  C   UNL d   1      54.444  33.182  54.712  0.00  0.00     0.107 A 
ATOM     19  C   UNL d   1      53.861  32.699  55.038  0.00  0.00     0.015 A 
ATOM     20  C   UNL d   1      53.562  32.069  54.617  0.00  0.00     0.020 A 
BRANCH  18  21
ATOM     21  S   UNL d   1      54.746  33.818  55.137  0.00  0.00     0.302 S 
ATOM     22  O   UNL d   1      54.023  34.086  55.395  0.00  0.00    -0.197 OA
ATOM     23  O   UNL d   1      55.477  33.538  54.870  0.00  0.00    -0.197 OA
ATOM     24  N   UNL d   1      55.127  34.425  55.534  0.00  0.00    -0.043 N 
ENDBRANCH  18  21
ENDBRANCH   2  15
TORSDOF 3
ENDMDL
MODEL 5
REMARK VINA RESULT:      -9.2      1.524      2.807
REMARK  3 active torsions:
REMARK  status: ('A' for Active; 'I' for Inactive)
REMARK    1  A    between atoms: C_9  and  S_1 
REMARK       I    between atoms: C_4  and  N_8 
REMARK    2  A    between atoms: C_5  and  C_4 
REMARK    3  A    between atoms: N_8  and  C_18 
ROOT
ATOM      1  C   UNL d   1      52.437  32.882  52.593  0.00  0.00     0.302 C 
ATOM      2  N   UNL d   1      52.106  32.142  52.465  0.00  0.00    -0.206 NA
ATOM      3  O   UNL d   1      52.131  33.543  52.211  0.00  0.00    -0.263 OA
ENDROOT
BRANCH   1   4
ATOM      4  C   UNL d   1      53.074  32.970  53.104  0.00  0.00     0.161 A 
ATOM      5  O   UNL d   1      53.847  32.836  52.823  0.00  0.00    -0.268 OA
ATOM      6  C   UNL d   1      54.494  32.925  53.338  0.00  0.00     0.300 A 
ATOM      7  O   UNL d   1      55.257  32.793  53.061  0.00  0.00    -0.259 OA
ATOM      8  C   UNL d   1      54.375  33.145  54.128  0.00  0.00     0.064 A 
ATOM      9  C   UNL d   1      53.599  33.277  54.402  0.00  0.00     0.007 A 
ATOM     10  C   UNL d   1      55.014  33.231  54.634  0.00  0.00     0.005 A 
ATOM     11  C   UNL d   1      52.951  33.191  53.896  0.00  0.00     0.030 A 
ATOM     12  C   UNL d   1      53.480  33.497  55.192  0.00  0.00     0.000 A 
ATOM     13  C   UNL d   1      54.130  33.581  55.693  0.00  0.00     0.000 A 
ATOM     14  C   UNL d   1      54.893  33.449  55.416  0.00  0.00     0.000 A 
ENDBRANCH   1   4
BRANCH   2  15
ATOM     15  C   UNL d   1      52.416  31.481  52.851  0.00  0.00     0.085 A 
ATOM     16  C   UNL d   1      52.121  31.266  53.584  0.00  0.00     0.020 A 
ATOM     17  C   UNL d   1      52.426  30.609  53.972  0.00  0.00     0.015 A 
ATOM     18  C   UNL d   1      53.032  30.168  53.619  0.00  0.00     0.107 A 
ATOM     19  C   UNL d   1      53.323  30.392  52.881  0.00  0.00     0.015 A 
ATOM     20  C   UNL d   1      53.020  31.042  52.497  0.00  0.00     0.020 A 
BRANCH  18  21
ATOM     21  S   UNL d   1      53.338  29.510  54.007  0.00  0.00     0.302 S 
ATOM     22  O   UNL d   1      54.113  29.751  53.964  0.00  0.00    -0.197 OA
ATOM     23  O   UNL d   1      52.546  29.273  54.045  0.00  0.00    -0.197 OA
ATOM     24  N   UNL d   1      53.559  28.826  54.399  0.00  0.00    -0.043 N 
ENDBRANCH  18  21
ENDBRANCH   2  15
TORSDOF 3
ENDMDL
