MODEL 1
REMARK VINA RESULT:       5.8      0.000      0.000
REMARK  4 active torsions:
REMARK  status: ('A' for Active; 'I' for Inactive)
REMARK    1  A    between atoms: C_8  and  N_1 
REMARK    2  A    between atoms: C_11  and  C_13 
REMARK       I    between atoms: N_14  and  C_11 
REMARK    3  A    between atoms: C_18  and  N_14 
REMARK    4  A    between atoms: C_20  and  C_18 
ROOT
ATOM      1  C   UNL d   1     -41.869-122.784 -50.835  0.00  0.00     0.066 A 
ATOM      2  C   UNL d   1     -42.164-122.236 -51.377  0.00  0.00     0.022 A 
ATOM      3  C   UNL d   1     -41.949-122.296 -52.175  0.00  0.00     0.059 A 
ATOM      4  C   UNL d   1     -41.361-123.392 -51.083  0.00  0.00     0.017 A 
ATOM      5  C   UNL d   1     -41.441-122.904 -52.422  0.00  0.00     0.005 A 
ATOM      6  C   UNL d   1     -41.151-123.446 -51.876  0.00  0.00     0.002 A 
ENDROOT
BRANCH   1   7
ATOM      7  N   UNL d   1     -42.079-122.730 -50.043  0.00  0.00    -0.261 N 
ATOM      8  C   UNL d   1     -42.658-123.274 -49.831  0.00  0.00     0.174 A 
ATOM      9  O   UNL d   1     -43.059-123.454 -49.127  0.00  0.00    -0.316 OA
ATOM     10  C   UNL d   1     -42.066-122.403 -49.154  0.00  0.00     0.079 A 
ATOM     11  C   UNL d   1     -42.997-123.816 -50.344  0.00  0.00     0.055 C 
ATOM     12  C   UNL d   1     -43.045-123.168 -48.356  0.00  0.00     0.094 A 
ATOM     13  C   UNL d   1     -43.603-123.617 -47.936  0.00  0.00     0.024 A 
ATOM     14  C   UNL d   1     -42.623-122.578 -47.960  0.00  0.00     0.022 A 
ATOM     15  C   UNL d   1     -43.733-123.474 -47.136  0.00  0.00     0.002 A 
ATOM     16  C   UNL d   1     -43.308-122.883 -46.747  0.00  0.00    -0.000 A 
ATOM     17  C   UNL d   1     -42.752-122.435 -47.159  0.00  0.00    -0.001 A 
ATOM     18  C   UNL d   1     -42.044-122.034 -48.172  0.00  0.00     0.137 A 
ATOM     19  N   UNL d   1     -41.637-121.847 -48.876  0.00  0.00    -0.216 NA
ATOM     20  C   UNL d   1     -41.651-122.133 -49.647  0.00  0.00     0.348 A 
ATOM     21  O   UNL d   1     -41.125-121.745 -50.140  0.00  0.00    -0.245 OA
ENDBRANCH   1   7
BRANCH   3  22
ATOM     22  C   UNL d   1     -42.244-121.748 -52.716  0.00  0.00     0.279 C 
ATOM     23  N   UNL d   1     -42.284-121.940 -53.515  0.00  0.00    -0.206 NA
ATOM     24  O   UNL d   1     -42.498-121.008 -52.450  0.00  0.00    -0.265 OA
BRANCH  23  25
ATOM     25  C   UNL d   1     -42.581-121.388 -54.056  0.00  0.00     0.102 C 
BRANCH  25  26
ATOM     26  C   UNL d   1     -42.551-121.551 -54.862  0.00  0.00     0.019 A 
ATOM     27  C   UNL d   1     -41.942-121.245 -55.330  0.00  0.00     0.002 A 
ATOM     28  C   UNL d   1     -41.921-121.414 -56.135  0.00  0.00     0.000 A 
ATOM     29  C   UNL d   1     -42.499-121.886 -56.484  0.00  0.00     0.000 A 
ATOM     30  C   UNL d   1     -43.109-122.192 -56.012  0.00  0.00     0.000 A 
ATOM     31  C   UNL d   1     -43.136-122.027 -55.207  0.00  0.00     0.002 A 
ENDBRANCH  25  26
ENDBRANCH  23  25
ENDBRANCH   3  22
TORSDOF 4
ENDMDL
