MODEL 1
REMARK VINA RESULT:      -6.9      0.000      0.000
REMARK  2 active torsions:
REMARK  status: ('A' for Active; 'I' for Inactive)
REMARK    1  A    between atoms: C_13  and  N_8 
REMARK    2  A    between atoms: C_14  and  C_13 
ROOT
ATOM      1  C   UNL d   1     -47.374  13.172  23.161  0.00  0.00     0.093 A 
ATOM      2  N   UNL d   1     -46.172  12.481  23.504  0.00  0.00    -0.179 NA
ATOM      3  C   UNL d   1     -46.565  13.188  23.325  0.00  0.00     0.284 A 
ATOM      4  C   UNL d   1     -47.784  12.454  23.176  0.00  0.00     0.091 A 
ATOM      5  C   UNL d   1     -46.582  11.764  23.519  0.00  0.00     0.223 A 
ATOM      6  N   UNL d   1     -47.386  11.754  23.355  0.00  0.00    -0.217 NA
ATOM      7  C   UNL d   1     -47.772  13.872  22.982  0.00  0.00     0.087 A 
ATOM      8  N   UNL d   1     -48.572  13.851  22.820  0.00  0.00    -0.302 N 
ATOM      9  C   UNL d   1     -48.593  12.437  23.012  0.00  0.00     0.038 A 
ATOM     10  S   UNL d   1     -46.187  11.060  23.697  0.00  0.00    -0.037 SA
ATOM     11  O   UNL d   1     -46.147  13.902  23.312  0.00  0.00    -0.265 OA
ATOM     12  C   UNL d   1     -48.983  13.133  22.835  0.00  0.00     0.082 A 
ENDROOT
BRANCH   8  13
ATOM     13  C   UNL d   1     -48.978  14.555  22.640  0.00  0.00     0.080 C 
BRANCH  13  14
ATOM     14  C   UNL d   1     -49.536  14.855  23.171  0.00  0.00     0.019 C 
ATOM     15  C   UNL d   1     -49.944  15.546  22.983  0.00  0.00     0.002 C 
ENDBRANCH  13  14
ENDBRANCH   8  13
TORSDOF 2
ENDMDL
MODEL 2
REMARK VINA RESULT:      -6.8      1.871      3.009
REMARK  2 active torsions:
REMARK  status: ('A' for Active; 'I' for Inactive)
REMARK    1  A    between atoms: C_13  and  N_8 
REMARK    2  A    between atoms: C_14  and  C_13 
ROOT
ATOM      1  C   UNL d   1     -48.303  12.310  23.338  0.00  0.00     0.093 A 
ATOM      2  N   UNL d   1     -49.451  11.503  23.607  0.00  0.00    -0.179 NA
ATOM      3  C   UNL d   1     -48.627  11.580  23.548  0.00  0.00     0.284 A 
ATOM      4  C   UNL d   1     -48.798  12.955  23.189  0.00  0.00     0.091 A 
ATOM      5  C   UNL d   1     -49.945  12.148  23.458  0.00  0.00     0.223 A 
ATOM      6  N   UNL d   1     -49.616  12.871  23.250  0.00  0.00    -0.217 NA
ATOM      7  C   UNL d   1     -47.485  12.394  23.277  0.00  0.00     0.087 A 
ATOM      8  N   UNL d   1     -47.168  13.118  23.070  0.00  0.00    -0.302 N 
ATOM      9  C   UNL d   1     -48.474  13.684  22.980  0.00  0.00     0.038 A 
ATOM     10  S   UNL d   1     -50.766  12.068  23.518  0.00  0.00    -0.037 SA
ATOM     11  O   UNL d   1     -48.139  10.930  23.698  0.00  0.00    -0.265 OA
ATOM     12  C   UNL d   1     -47.663  13.763  22.921  0.00  0.00     0.082 A 
ENDROOT
BRANCH   8  13
ATOM     13  C   UNL d   1     -46.343  13.207  23.007  0.00  0.00     0.080 C 
BRANCH  13  14
ATOM     14  C   UNL d   1     -45.997  13.320  22.264  0.00  0.00     0.019 C 
ATOM     15  C   UNL d   1     -45.176  13.305  22.193  0.00  0.00     0.002 C 
ENDBRANCH  13  14
ENDBRANCH   8  13
TORSDOF 2
ENDMDL
MODEL 3
REMARK VINA RESULT:      -6.3      1.818      2.995
REMARK  2 active torsions:
REMARK  status: ('A' for Active; 'I' for Inactive)
REMARK    1  A    between atoms: C_13  and  N_8 
REMARK    2  A    between atoms: C_14  and  C_13 
ROOT
ATOM      1  C   UNL d   1     -48.611  13.121  23.201  0.00  0.00     0.093 A 
ATOM      2  N   UNL d   1     -50.034  13.230  23.241  0.00  0.00    -0.179 NA
ATOM      3  C   UNL d   1     -49.293  13.570  23.086  0.00  0.00     0.284 A 
ATOM      4  C   UNL d   1     -48.668  12.340  23.467  0.00  0.00     0.091 A 
ATOM      5  C   UNL d   1     -50.092  12.450  23.506  0.00  0.00     0.223 A 
ATOM      6  N   UNL d   1     -49.408  12.009  23.618  0.00  0.00    -0.217 NA
ATOM      7  C   UNL d   1     -47.871  13.453  23.050  0.00  0.00     0.087 A 
ATOM      8  N   UNL d   1     -47.197  13.005  23.164  0.00  0.00    -0.302 N 
ATOM      9  C   UNL d   1     -47.986  11.892  23.581  0.00  0.00     0.038 A 
ATOM     10  S   UNL d   1     -50.832  12.114  23.659  0.00  0.00    -0.037 SA
ATOM     11  O   UNL d   1     -49.245  14.351  22.821  0.00  0.00    -0.265 OA
ATOM     12  C   UNL d   1     -47.255  12.224  23.430  0.00  0.00     0.082 A 
ENDROOT
BRANCH   8  13
ATOM     13  C   UNL d   1     -46.448  13.335  23.013  0.00  0.00     0.080 C 
BRANCH  13  14
ATOM     14  C   UNL d   1     -46.017  13.089  22.351  0.00  0.00     0.019 C 
ATOM     15  C   UNL d   1     -45.274  13.415  22.208  0.00  0.00     0.002 C 
ENDBRANCH  13  14
ENDBRANCH   8  13
TORSDOF 2
ENDMDL
MODEL 4
REMARK VINA RESULT:      -6.1      1.446      1.955
REMARK  2 active torsions:
REMARK  status: ('A' for Active; 'I' for Inactive)
REMARK    1  A    between atoms: C_13  and  N_8 
REMARK    2  A    between atoms: C_14  and  C_13 
ROOT
ATOM      1  C   UNL d   1     -47.634  12.781  23.244  0.00  0.00     0.093 A 
ATOM      2  N   UNL d   1     -46.229  12.596  23.066  0.00  0.00    -0.179 NA
ATOM      3  C   UNL d   1     -46.960  12.314  23.337  0.00  0.00     0.284 A 
ATOM      4  C   UNL d   1     -47.577  13.522  22.882  0.00  0.00     0.091 A 
ATOM      5  C   UNL d   1     -46.172  13.337  22.704  0.00  0.00     0.223 A 
ATOM      6  N   UNL d   1     -46.846  13.796  22.615  0.00  0.00    -0.217 NA
ATOM      7  C   UNL d   1     -48.364  12.507  23.512  0.00  0.00     0.087 A 
ATOM      8  N   UNL d   1     -49.029  12.973  23.418  0.00  0.00    -0.302 N 
ATOM      9  C   UNL d   1     -48.251  13.989  22.789  0.00  0.00     0.038 A 
ATOM     10  S   UNL d   1     -45.441  13.615  22.434  0.00  0.00    -0.037 SA
ATOM     11  O   UNL d   1     -47.008  11.571  23.698  0.00  0.00    -0.265 OA
ATOM     12  C   UNL d   1     -48.972  13.714  23.056  0.00  0.00     0.082 A 
ENDROOT
BRANCH   8  13
ATOM     13  C   UNL d   1     -49.768  12.700  23.687  0.00  0.00     0.080 C 
BRANCH  13  14
ATOM     14  C   UNL d   1     -50.319  12.406  23.144  0.00  0.00     0.019 C 
ATOM     15  C   UNL d   1     -51.064  12.173  23.410  0.00  0.00     0.002 C 
ENDBRANCH  13  14
ENDBRANCH   8  13
TORSDOF 2
ENDMDL
MODEL 5
REMARK VINA RESULT:      -6.0      2.166      3.619
REMARK  2 active torsions:
REMARK  status: ('A' for Active; 'I' for Inactive)
REMARK    1  A    between atoms: C_13  and  N_8 
REMARK    2  A    between atoms: C_14  and  C_13 
ROOT
ATOM      1  C   UNL d   1     -49.001  12.419  22.818  0.00  0.00     0.093 A 
ATOM      2  N   UNL d   1     -50.322  12.626  22.316  0.00  0.00    -0.179 NA
ATOM      3  C   UNL d   1     -49.768  12.141  22.698  0.00  0.00     0.284 A 
ATOM      4  C   UNL d   1     -48.789  13.175  22.558  0.00  0.00     0.091 A 
ATOM      5  C   UNL d   1     -50.110  13.381  22.056  0.00  0.00     0.223 A 
ATOM      6  N   UNL d   1     -49.345  13.652  22.178  0.00  0.00    -0.217 NA
ATOM      7  C   UNL d   1     -48.445  11.942  23.197  0.00  0.00     0.087 A 
ATOM      8  N   UNL d   1     -47.686  12.222  23.314  0.00  0.00    -0.302 N 
ATOM      9  C   UNL d   1     -48.022  13.454  22.677  0.00  0.00     0.038 A 
ATOM     10  S   UNL d   1     -50.665  13.863  21.675  0.00  0.00    -0.037 SA
ATOM     11  O   UNL d   1     -49.988  11.386  22.955  0.00  0.00    -0.265 OA
ATOM     12  C   UNL d   1     -47.475  12.978  23.054  0.00  0.00     0.082 A 
ENDROOT
BRANCH   8  13
ATOM     13  C   UNL d   1     -47.122  11.744  23.696  0.00  0.00     0.080 C 
BRANCH  13  14
ATOM     14  C   UNL d   1     -46.375  11.639  23.357  0.00  0.00     0.019 C 
ATOM     15  C   UNL d   1     -45.847  11.106  23.698  0.00  0.00     0.002 C 
ENDBRANCH  13  14
ENDBRANCH   8  13
TORSDOF 2
ENDMDL
MODEL 6
REMARK VINA RESULT:      -5.3      8.801      9.318
REMARK  2 active torsions:
REMARK  status: ('A' for Active; 'I' for Inactive)
REMARK    1  A    between atoms: C_13  and  N_8 
REMARK    2  A    between atoms: C_14  and  C_13 
ROOT
ATOM      1  C   UNL d   1     -40.257  14.776  18.473  0.00  0.00     0.093 A 
ATOM      2  N   UNL d   1     -40.690  14.778  17.112  0.00  0.00    -0.179 NA
ATOM      3  C   UNL d   1     -40.318  14.392  17.746  0.00  0.00     0.284 A 
ATOM      4  C   UNL d   1     -40.565  15.537  18.567  0.00  0.00     0.091 A 
ATOM      5  C   UNL d   1     -40.998  15.539  17.206  0.00  0.00     0.223 A 
ATOM      6  N   UNL d   1     -40.934  15.915  17.933  0.00  0.00    -0.217 NA
ATOM      7  C   UNL d   1     -39.888  14.398  19.107  0.00  0.00     0.087 A 
ATOM      8  N   UNL d   1     -39.830  14.782  19.827  0.00  0.00    -0.302 N 
ATOM      9  C   UNL d   1     -40.505  15.921  19.295  0.00  0.00     0.038 A 
ATOM     10  S   UNL d   1     -41.369  15.920  16.573  0.00  0.00    -0.037 SA
ATOM     11  O   UNL d   1     -40.012  13.631  17.643  0.00  0.00    -0.265 OA
ATOM     12  C   UNL d   1     -40.139  15.543  19.920  0.00  0.00     0.082 A 
ENDROOT
BRANCH   8  13
ATOM     13  C   UNL d   1     -39.459  14.404  20.469  0.00  0.00     0.080 C 
BRANCH  13  14
ATOM     14  C   UNL d   1     -39.797  14.449  21.222  0.00  0.00     0.019 C 
ATOM     15  C   UNL d   1     -39.445  14.045  21.849  0.00  0.00     0.002 C 
ENDBRANCH  13  14
ENDBRANCH   8  13
TORSDOF 2
ENDMDL
MODEL 7
REMARK VINA RESULT:      -4.9      9.291     10.231
REMARK  2 active torsions:
REMARK  status: ('A' for Active; 'I' for Inactive)
REMARK    1  A    between atoms: C_13  and  N_8 
REMARK    2  A    between atoms: C_14  and  C_13 
ROOT
ATOM      1  C   UNL d   1     -39.287  13.823  17.501  0.00  0.00     0.093 A 
ATOM      2  N   UNL d   1     -38.353  13.253  16.583  0.00  0.00    -0.179 NA
ATOM      3  C   UNL d   1     -38.802  13.194  17.278  0.00  0.00     0.284 A 
ATOM      4  C   UNL d   1     -39.322  14.505  17.034  0.00  0.00     0.091 A 
ATOM      5  C   UNL d   1     -38.389  13.934  16.117  0.00  0.00     0.223 A 
ATOM      6  N   UNL d   1     -38.873  14.556  16.344  0.00  0.00    -0.217 NA
ATOM      7  C   UNL d   1     -39.736  13.771  18.191  0.00  0.00     0.087 A 
ATOM      8  N   UNL d   1     -40.215  14.397  18.409  0.00  0.00    -0.302 N 
ATOM      9  C   UNL d   1     -39.807  15.133  17.258  0.00  0.00     0.038 A 
ATOM     10  S   UNL d   1     -37.940  13.990  15.424  0.00  0.00    -0.037 SA
ATOM     11  O   UNL d   1     -38.761  12.509  17.740  0.00  0.00    -0.265 OA
ATOM     12  C   UNL d   1     -40.250  15.078  17.942  0.00  0.00     0.082 A 
ENDROOT
BRANCH   8  13
ATOM     13  C   UNL d   1     -40.670  14.349  19.104  0.00  0.00     0.080 C 
BRANCH  13  14
ATOM     14  C   UNL d   1     -40.465  14.807  19.761  0.00  0.00     0.019 C 
ATOM     15  C   UNL d   1     -40.858  14.689  20.476  0.00  0.00     0.002 C 
ENDBRANCH  13  14
ENDBRANCH   8  13
TORSDOF 2
ENDMDL
MODEL 8
REMARK VINA RESULT:      -4.4      9.353      9.637
REMARK  2 active torsions:
REMARK  status: ('A' for Active; 'I' for Inactive)
REMARK    1  A    between atoms: C_13  and  N_8 
REMARK    2  A    between atoms: C_14  and  C_13 
ROOT
ATOM      1  C   UNL d   1     -39.479  14.588  18.243  0.00  0.00     0.093 A 
ATOM      2  N   UNL d   1     -38.610  13.677  18.917  0.00  0.00    -0.179 NA
ATOM      3  C   UNL d   1     -38.998  13.918  18.225  0.00  0.00     0.284 A 
ATOM      4  C   UNL d   1     -39.571  15.012  18.947  0.00  0.00     0.091 A 
ATOM      5  C   UNL d   1     -38.701  14.101  19.620  0.00  0.00     0.223 A 
ATOM      6  N   UNL d   1     -39.181  14.766  19.631  0.00  0.00    -0.217 NA
ATOM      7  C   UNL d   1     -39.869  14.833  17.559  0.00  0.00     0.087 A 
ATOM      8  N   UNL d   1     -40.344  15.497  17.582  0.00  0.00    -0.302 N 
ATOM      9  C   UNL d   1     -40.052  15.682  18.965  0.00  0.00     0.038 A 
ATOM     10  S   UNL d   1     -38.312  13.858  20.308  0.00  0.00    -0.037 SA
ATOM     11  O   UNL d   1     -38.901  13.487  17.525  0.00  0.00    -0.265 OA
ATOM     12  C   UNL d   1     -40.436  15.922  18.285  0.00  0.00     0.082 A 
ENDROOT
BRANCH   8  13
ATOM     13  C   UNL d   1     -40.739  15.749  16.893  0.00  0.00     0.080 C 
BRANCH  13  14
ATOM     14  C   UNL d   1     -41.566  15.770  16.879  0.00  0.00     0.019 C 
ATOM     15  C   UNL d   1     -41.955  15.922  16.168  0.00  0.00     0.002 C 
ENDBRANCH  13  14
ENDBRANCH   8  13
TORSDOF 2
ENDMDL
MODEL 9
REMARK VINA RESULT:      -4.4     10.073     11.150
REMARK  2 active torsions:
REMARK  status: ('A' for Active; 'I' for Inactive)
REMARK    1  A    between atoms: C_13  and  N_8 
REMARK    2  A    between atoms: C_14  and  C_13 
ROOT
ATOM      1  C   UNL d   1     -39.315  14.484  17.251  0.00  0.00     0.093 A 
ATOM      2  N   UNL d   1     -40.178  14.600  18.383  0.00  0.00    -0.179 NA
ATOM      3  C   UNL d   1     -39.751  14.126  17.852  0.00  0.00     0.284 A 
ATOM      4  C   UNL d   1     -39.305  15.308  17.181  0.00  0.00     0.091 A 
ATOM      5  C   UNL d   1     -40.168  15.422  18.313  0.00  0.00     0.223 A 
ATOM      6  N   UNL d   1     -39.732  15.773  17.713  0.00  0.00    -0.217 NA
ATOM      7  C   UNL d   1     -38.888  14.019  16.720  0.00  0.00     0.087 A 
ATOM      8  N   UNL d   1     -38.456  14.378  16.126  0.00  0.00    -0.302 N 
ATOM      9  C   UNL d   1     -38.868  15.666  16.580  0.00  0.00     0.038 A 
ATOM     10  S   UNL d   1     -40.595  15.892  18.844  0.00  0.00    -0.037 SA
ATOM     11  O   UNL d   1     -39.766  13.303  17.930  0.00  0.00    -0.265 OA
ATOM     12  C   UNL d   1     -38.447  15.202  16.056  0.00  0.00     0.082 A 
ENDROOT
BRANCH   8  13
ATOM     13  C   UNL d   1     -38.024  13.913  15.588  0.00  0.00     0.080 C 
BRANCH  13  14
ATOM     14  C   UNL d   1     -38.224  13.922  14.785  0.00  0.00     0.019 C 
ATOM     15  C   UNL d   1     -37.940  13.327  14.291  0.00  0.00     0.002 C 
ENDBRANCH  13  14
ENDBRANCH   8  13
TORSDOF 2
ENDMDL
