MODEL 1
REMARK VINA RESULT:      51.8      0.000      0.000
REMARK  6 active torsions:
REMARK  status: ('A' for Active; 'I' for Inactive)
REMARK    1  A    between atoms: C_11  and  N_2 
REMARK    2  A    between atoms: O_15  and  C_9 
REMARK    3  A    between atoms: C_10  and  O_14 
REMARK    4  A    between atoms: C_16  and  C_11 
REMARK    5  A    between atoms: O_14  and  C_17 
REMARK    6  A    between atoms: C_17  and  C_16 
ROOT
ATOM      1  C   UNL d   1     -49.050  29.008  34.772  0.00  0.00     0.087 C 
ENDROOT
BRANCH   1   2
ATOM      2  N   UNL d   1     -48.419  29.344  35.189  0.00  0.00    -0.251 N 
ATOM      3  C   UNL d   1     -47.967  29.012  35.799  0.00  0.00     0.378 A 
ATOM      4  O   UNL d   1     -47.401  29.576  36.031  0.00  0.00    -0.258 OA
ATOM      5  O   UNL d   1     -48.061  28.257  36.119  0.00  0.00    -0.237 OA
ATOM      6  C   UNL d   1     -47.504  30.252  35.566  0.00  0.00     0.121 A 
ATOM      7  C   UNL d   1     -47.111  30.986  35.540  0.00  0.00     0.026 A 
ATOM      8  C   UNL d   1     -48.133  30.109  35.045  0.00  0.00     0.092 A 
ATOM      9  C   UNL d   1     -47.346  31.565  35.003  0.00  0.00     0.002 A 
ATOM     10  C   UNL d   1     -47.976  31.418  34.485  0.00  0.00     0.002 A 
ATOM     11  C   UNL d   1     -48.367  30.694  34.506  0.00  0.00     0.020 A 
ATOM     12  C   UNL d   1     -48.210  31.996  33.948  0.00  0.00     0.000 C 
ENDBRANCH   1   2
BRANCH   1  13
ATOM     13  C   UNL d   1     -48.922  28.388  34.249  0.00  0.00     0.046 C 
BRANCH  13  14
ATOM     14  C   UNL d   1     -49.440  27.745  34.224  0.00  0.00     0.124 C 
BRANCH  14  15
ATOM     15  O   UNL d   1     -49.814  27.543  33.527  0.00  0.00    -0.303 OA
BRANCH  15  16
ATOM     16  C   UNL d   1     -50.046  26.758  33.457  0.00  0.00     0.122 A 
ATOM     17  C   UNL d   1     -50.852  26.568  33.401  0.00  0.00     0.117 A 
ATOM     18  C   UNL d   1     -51.084  25.779  33.331  0.00  0.00     0.026 A 
ATOM     19  C   UNL d   1     -50.509  25.187  33.318  0.00  0.00     0.002 A 
ATOM     20  C   UNL d   1     -49.711  25.382  33.375  0.00  0.00     0.002 A 
ATOM     21  C   UNL d   1     -49.479  26.167  33.444  0.00  0.00     0.027 A 
BRANCH  17  22
ATOM     22  O   UNL d   1     -51.418  27.167  33.414  0.00  0.00    -0.326 OA
ATOM     23  C   UNL d   1     -52.221  27.042  33.307  0.00  0.00     0.181 C 
ENDBRANCH  17  22
ENDBRANCH  15  16
ENDBRANCH  14  15
ENDBRANCH  13  14
ENDBRANCH   1  13
TORSDOF 6
ENDMDL
MODEL 2
REMARK VINA RESULT:      52.8      1.527      5.254
REMARK  6 active torsions:
REMARK  status: ('A' for Active; 'I' for Inactive)
REMARK    1  A    between atoms: C_11  and  N_2 
REMARK    2  A    between atoms: O_15  and  C_9 
REMARK    3  A    between atoms: C_10  and  O_14 
REMARK    4  A    between atoms: C_16  and  C_11 
REMARK    5  A    between atoms: O_14  and  C_17 
REMARK    6  A    between atoms: C_17  and  C_16 
ROOT
ATOM      1  C   UNL d   1     -50.131  26.811  33.383  0.00  0.00     0.087 C 
ENDROOT
BRANCH   1   2
ATOM      2  N   UNL d   1     -50.327  26.007  33.358  0.00  0.00    -0.251 N 
ATOM      3  C   UNL d   1     -49.822  25.352  33.342  0.00  0.00     0.378 A 
ATOM      4  O   UNL d   1     -50.295  24.667  33.319  0.00  0.00    -0.258 OA
ATOM      5  O   UNL d   1     -48.997  25.372  33.346  0.00  0.00    -0.237 OA
ATOM      6  C   UNL d   1     -51.088  24.901  33.322  0.00  0.00     0.121 A 
ATOM      7  C   UNL d   1     -51.803  24.475  33.306  0.00  0.00     0.026 A 
ATOM      8  C   UNL d   1     -51.109  25.729  33.346  0.00  0.00     0.092 A 
ATOM      9  C   UNL d   1     -52.525  24.872  33.314  0.00  0.00     0.002 A 
ATOM     10  C   UNL d   1     -52.542  25.700  33.338  0.00  0.00     0.002 A 
ATOM     11  C   UNL d   1     -51.837  26.127  33.354  0.00  0.00     0.020 A 
ATOM     12  C   UNL d   1     -53.262  26.098  33.346  0.00  0.00     0.000 C 
ENDBRANCH   1   2
BRANCH   1  13
ATOM     13  C   UNL d   1     -49.765  27.131  34.045  0.00  0.00     0.046 C 
BRANCH  13  14
ATOM     14  C   UNL d   1     -49.364  27.853  33.996  0.00  0.00     0.124 C 
BRANCH  14  15
ATOM     15  O   UNL d   1     -49.470  28.423  34.570  0.00  0.00    -0.303 OA
BRANCH  15  16
ATOM     16  C   UNL d   1     -48.788  28.792  34.841  0.00  0.00     0.122 A 
ATOM     17  C   UNL d   1     -48.650  29.590  34.662  0.00  0.00     0.117 A 
ATOM     18  C   UNL d   1     -47.964  29.960  34.935  0.00  0.00     0.026 A 
ATOM     19  C   UNL d   1     -47.422  29.529  35.383  0.00  0.00     0.002 A 
ATOM     20  C   UNL d   1     -47.564  28.737  35.557  0.00  0.00     0.002 A 
ATOM     21  C   UNL d   1     -48.246  28.368  35.286  0.00  0.00     0.027 A 
BRANCH  17  22
ATOM     22  O   UNL d   1     -49.199  30.012  34.214  0.00  0.00    -0.326 OA
ATOM     23  C   UNL d   1     -49.061  30.758  33.904  0.00  0.00     0.181 C 
ENDBRANCH  17  22
ENDBRANCH  15  16
ENDBRANCH  14  15
ENDBRANCH  13  14
ENDBRANCH   1  13
TORSDOF 6
ENDMDL
MODEL 3
REMARK VINA RESULT:      53.8      2.141      5.810
REMARK  6 active torsions:
REMARK  status: ('A' for Active; 'I' for Inactive)
REMARK    1  A    between atoms: C_11  and  N_2 
REMARK    2  A    between atoms: O_15  and  C_9 
REMARK    3  A    between atoms: C_10  and  O_14 
REMARK    4  A    between atoms: C_16  and  C_11 
REMARK    5  A    between atoms: O_14  and  C_17 
REMARK    6  A    between atoms: C_17  and  C_16 
ROOT
ATOM      1  C   UNL d   1     -50.735  25.625  33.446  0.00  0.00     0.087 C 
ENDROOT
BRANCH   1   2
ATOM      2  N   UNL d   1     -50.981  24.836  33.403  0.00  0.00    -0.251 N 
ATOM      3  C   UNL d   1     -50.518  24.150  33.375  0.00  0.00     0.378 A 
ATOM      4  O   UNL d   1     -51.033  23.498  33.335  0.00  0.00    -0.258 OA
ATOM      5  O   UNL d   1     -49.694  24.119  33.386  0.00  0.00    -0.237 OA
ATOM      6  C   UNL d   1     -51.810  23.781  33.337  0.00  0.00     0.121 A 
ATOM      7  C   UNL d   1     -52.550  23.401  33.307  0.00  0.00     0.026 A 
ATOM      8  C   UNL d   1     -51.779  24.609  33.379  0.00  0.00     0.092 A 
ATOM      9  C   UNL d   1     -53.245  23.843  33.318  0.00  0.00     0.002 A 
ATOM     10  C   UNL d   1     -53.210  24.670  33.360  0.00  0.00     0.002 A 
ATOM     11  C   UNL d   1     -52.481  25.051  33.390  0.00  0.00     0.020 A 
ATOM     12  C   UNL d   1     -53.904  25.112  33.372  0.00  0.00     0.000 C 
ENDBRANCH   1   2
BRANCH   1  13
ATOM     13  C   UNL d   1     -49.951  25.826  33.306  0.00  0.00     0.046 C 
BRANCH  13  14
ATOM     14  C   UNL d   1     -49.663  26.571  33.520  0.00  0.00     0.124 C 
BRANCH  14  15
ATOM     15  O   UNL d   1     -49.400  26.708  34.280  0.00  0.00    -0.303 OA
BRANCH  15  16
ATOM     16  C   UNL d   1     -49.108  27.462  34.429  0.00  0.00     0.122 A 
ATOM     17  C   UNL d   1     -49.034  27.730  35.211  0.00  0.00     0.117 A 
ATOM     18  C   UNL d   1     -48.741  28.487  35.359  0.00  0.00     0.026 A 
ATOM     19  C   UNL d   1     -48.525  28.970  34.726  0.00  0.00     0.002 A 
ATOM     20  C   UNL d   1     -48.601  28.698  33.952  0.00  0.00     0.002 A 
ATOM     21  C   UNL d   1     -48.893  27.944  33.803  0.00  0.00     0.027 A 
BRANCH  17  22
ATOM     22  O   UNL d   1     -49.253  27.240  35.836  0.00  0.00    -0.326 OA
ATOM     23  C   UNL d   1     -49.512  27.513  36.565  0.00  0.00     0.181 C 
ENDBRANCH  17  22
ENDBRANCH  15  16
ENDBRANCH  14  15
ENDBRANCH  13  14
ENDBRANCH   1  13
TORSDOF 6
ENDMDL
