MODEL 1
REMARK VINA RESULT:       0.4      0.000      0.000
REMARK  4 active torsions:
REMARK  status: ('A' for Active; 'I' for Inactive)
REMARK    1  A    between atoms: N_10  and  C_3 
REMARK    2  A    between atoms: C_11  and  C_5 
REMARK    3  A    between atoms: C_13  and  N_10 
REMARK    4  A    between atoms: C_19  and  C_13 
ROOT
ATOM      1  N   UNL d   1      57.445  -1.369  30.914  0.00  0.00    -0.195 N 
ATOM      2  C   UNL d   1      57.293  -0.809  31.525  0.00  0.00     0.167 A 
ATOM      3  C   UNL d   1      58.034  -1.211  30.350  0.00  0.00     0.167 A 
ATOM      4  N   UNL d   1      56.429  -2.219  31.439  0.00  0.00    -0.163 NA
ATOM      5  C   UNL d   1      56.718  -0.962  32.076  0.00  0.00     0.055 A 
ATOM      6  N   UNL d   1      57.735  -0.112  31.551  0.00  0.00    -0.227 NA
ATOM      7  C   UNL d   1      58.462  -0.518  30.389  0.00  0.00     0.054 A 
ATOM      8  C   UNL d   1      56.279  -1.668  32.040  0.00  0.00     0.104 A 
ATOM      9  C   UNL d   1      58.315   0.046  30.997  0.00  0.00     0.086 A 
ATOM     10  C   UNL d   1      59.060  -0.216  29.927  0.00  0.00     0.005 A 
ATOM     11  C   UNL d   1      55.699  -1.815  32.602  0.00  0.00     0.023 C 
ATOM     12  C   UNL d   1      58.827   0.682  30.894  0.00  0.00     0.019 A 
ATOM     13  C   UNL d   1      59.293   0.515  30.222  0.00  0.00     0.002 A 
ENDROOT
BRANCH   5  14
ATOM     14  C   UNL d   1      56.568  -0.414  32.674  0.00  0.00     0.004 A 
ATOM     15  C   UNL d   1      55.924   0.097  32.617  0.00  0.00     0.000 A 
ATOM     16  C   UNL d   1      55.772   0.643  33.209  0.00  0.00     0.000 A 
ATOM     17  C   UNL d   1      56.270   0.682  33.871  0.00  0.00     0.000 A 
ATOM     18  C   UNL d   1      56.908   0.180  33.935  0.00  0.00     0.000 A 
ATOM     19  C   UNL d   1      57.059  -0.373  33.331  0.00  0.00     0.000 A 
ENDBRANCH   5  14
BRANCH   3  20
ATOM     20  N   UNL d   1      58.191  -1.773  29.732  0.00  0.00    -0.225 NA
BRANCH  20  21
ATOM     21  C   UNL d   1      58.599  -1.990  29.026  0.00  0.00     0.101 C 
BRANCH  21  22
ATOM     22  C   UNL d   1      58.772  -2.800  28.863  0.00  0.00     0.019 C 
ATOM     23  C   UNL d   1      59.578  -3.062  28.831  0.00  0.00     0.002 C 
ATOM     24  C   UNL d   1      58.136  -3.349  28.731  0.00  0.00     0.002 C 
ENDBRANCH  21  22
ENDBRANCH  20  21
ENDBRANCH   3  20
TORSDOF 4
ENDMDL
MODEL 2
REMARK VINA RESULT:       0.5      1.572      4.244
REMARK  4 active torsions:
REMARK  status: ('A' for Active; 'I' for Inactive)
REMARK    1  A    between atoms: N_10  and  C_3 
REMARK    2  A    between atoms: C_11  and  C_5 
REMARK    3  A    between atoms: C_13  and  N_10 
REMARK    4  A    between atoms: C_19  and  C_13 
ROOT
ATOM      1  N   UNL d   1      57.821   0.170  31.262  0.00  0.00    -0.195 N 
ATOM      2  C   UNL d   1      58.601   0.169  30.944  0.00  0.00     0.167 A 
ATOM      3  C   UNL d   1      57.709   0.308  32.074  0.00  0.00     0.167 A 
ATOM      4  N   UNL d   1      57.292  -0.101  29.967  0.00  0.00    -0.163 NA
ATOM      5  C   UNL d   1      58.711   0.035  30.152  0.00  0.00     0.055 A 
ATOM      6  N   UNL d   1      59.241   0.306  31.448  0.00  0.00    -0.227 NA
ATOM      7  C   UNL d   1      58.351   0.441  32.558  0.00  0.00     0.054 A 
ATOM      8  C   UNL d   1      58.059  -0.102  29.654  0.00  0.00     0.104 A 
ATOM      9  C   UNL d   1      59.133   0.442  32.247  0.00  0.00     0.086 A 
ATOM     10  C   UNL d   1      58.416   0.589  33.356  0.00  0.00     0.005 A 
ATOM     11  C   UNL d   1      58.180  -0.237  28.853  0.00  0.00     0.023 C 
ATOM     12  C   UNL d   1      59.660   0.590  32.861  0.00  0.00     0.019 A 
ATOM     13  C   UNL d   1      59.207   0.682  33.555  0.00  0.00     0.002 A 
ENDROOT
BRANCH   5  14
ATOM     14  C   UNL d   1      59.475   0.034  29.840  0.00  0.00     0.004 A 
ATOM     15  C   UNL d   1      59.742   0.675  29.394  0.00  0.00     0.000 A 
ATOM     16  C   UNL d   1      60.500   0.677  29.082  0.00  0.00     0.000 A 
ATOM     17  C   UNL d   1      61.002   0.032  29.215  0.00  0.00     0.000 A 
ATOM     18  C   UNL d   1      60.746  -0.604  29.654  0.00  0.00     0.000 A 
ATOM     19  C   UNL d   1      59.975  -0.603  29.969  0.00  0.00     0.000 A 
ENDBRANCH   5  14
BRANCH   3  20
ATOM     20  N   UNL d   1      56.924   0.309  32.399  0.00  0.00    -0.225 NA
BRANCH  20  21
ATOM     21  C   UNL d   1      56.087   0.291  32.292  0.00  0.00     0.101 C 
BRANCH  21  22
ATOM     22  C   UNL d   1      55.587  -0.044  32.882  0.00  0.00     0.019 C 
ATOM     23  C   UNL d   1      55.177   0.461  33.427  0.00  0.00     0.002 C 
ATOM     24  C   UNL d   1      55.496  -0.889  32.928  0.00  0.00     0.002 C 
ENDBRANCH  21  22
ENDBRANCH  20  21
ENDBRANCH   3  20
TORSDOF 4
ENDMDL
MODEL 3
REMARK VINA RESULT:       2.6      1.060      4.616
REMARK  4 active torsions:
REMARK  status: ('A' for Active; 'I' for Inactive)
REMARK    1  A    between atoms: N_10  and  C_3 
REMARK    2  A    between atoms: C_11  and  C_5 
REMARK    3  A    between atoms: C_13  and  N_10 
REMARK    4  A    between atoms: C_19  and  C_13 
ROOT
ATOM      1  N   UNL d   1      57.539  -0.050  32.504  0.00  0.00    -0.195 N 
ATOM      2  C   UNL d   1      57.568  -0.396  31.737  0.00  0.00     0.167 A 
ATOM      3  C   UNL d   1      56.922  -0.250  33.023  0.00  0.00     0.167 A 
ATOM      4  N   UNL d   1      58.730   0.680  32.220  0.00  0.00    -0.163 NA
ATOM      5  C   UNL d   1      58.170  -0.201  31.231  0.00  0.00     0.055 A 
ATOM      6  N   UNL d   1      56.979  -0.931  31.515  0.00  0.00    -0.227 NA
ATOM      7  C   UNL d   1      56.348  -0.780  32.789  0.00  0.00     0.054 A 
ATOM      8  C   UNL d   1      58.758   0.339  31.465  0.00  0.00     0.104 A 
ATOM      9  C   UNL d   1      56.370  -1.130  32.023  0.00  0.00     0.086 A 
ATOM     10  C   UNL d   1      55.690  -1.078  33.164  0.00  0.00     0.005 A 
ATOM     11  C   UNL d   1      59.364   0.531  30.946  0.00  0.00     0.023 C 
ATOM     12  C   UNL d   1      55.725  -1.635  31.947  0.00  0.00     0.019 A 
ATOM     13  C   UNL d   1      55.301  -1.600  32.664  0.00  0.00     0.002 A 
ENDROOT
BRANCH   5  14
ATOM     14  C   UNL d   1      58.198  -0.540  30.479  0.00  0.00     0.004 A 
ATOM     15  C   UNL d   1      58.440  -1.323  30.386  0.00  0.00     0.000 A 
ATOM     16  C   UNL d   1      58.470  -1.663  29.640  0.00  0.00     0.000 A 
ATOM     17  C   UNL d   1      58.255  -1.218  28.976  0.00  0.00     0.000 A 
ATOM     18  C   UNL d   1      58.015  -0.444  29.059  0.00  0.00     0.000 A 
ATOM     19  C   UNL d   1      57.987  -0.102  29.818  0.00  0.00     0.000 A 
ENDBRANCH   5  14
BRANCH   3  20
ATOM     20  N   UNL d   1      56.889   0.097  33.798  0.00  0.00    -0.225 NA
BRANCH  20  21
ATOM     21  C   UNL d   1      56.446   0.339  34.474  0.00  0.00     0.101 C 
BRANCH  21  22
ATOM     22  C   UNL d   1      56.838   0.561  35.186  0.00  0.00     0.019 C 
ATOM     23  C   UNL d   1      56.391   0.681  35.897  0.00  0.00     0.002 C 
ATOM     24  C   UNL d   1      57.683   0.665  35.187  0.00  0.00     0.002 C 
ENDBRANCH  21  22
ENDBRANCH  20  21
ENDBRANCH   3  20
TORSDOF 4
ENDMDL
