MODEL 1
REMARK VINA RESULT:      45.1      0.000      0.000
REMARK  5 active torsions:
REMARK  status: ('A' for Active; 'I' for Inactive)
REMARK    1  A    between atoms: C_9  and  N_2 
REMARK    2  A    between atoms: C_7  and  O_10 
REMARK    3  A    between atoms: O_11  and  C_8 
REMARK    4  A    between atoms: C_12  and  C_9 
REMARK    5  A    between atoms: O_10  and  C_12 
ROOT
ATOM      1  C   UNL d   1     -55.898 -99.581 -44.407  0.00  0.00     0.110 C 
ENDROOT
BRANCH   1   2
ATOM      2  N   UNL d   1     -55.651-100.361 -44.300  0.00  0.00    -0.266 N 
ATOM      3  C   UNL d   1     -55.669-100.955 -44.868  0.00  0.00     0.296 A 
ATOM      4  S   UNL d   1     -55.367-101.653 -44.515  0.00  0.00    -0.025 SA
ATOM      5  O   UNL d   1     -55.932-100.883 -45.642  0.00  0.00    -0.259 OA
ATOM      6  C   UNL d   1     -55.170-101.474 -43.732  0.00  0.00     0.050 A 
ATOM      7  C   UNL d   1     -54.851-101.943 -43.126  0.00  0.00     0.008 A 
ATOM      8  C   UNL d   1     -55.344-100.682 -43.599  0.00  0.00     0.074 A 
ATOM      9  C   UNL d   1     -54.712-101.598 -42.385  0.00  0.00     0.001 A 
ATOM     10  C   UNL d   1     -54.886-100.806 -42.252  0.00  0.00     0.002 A 
ATOM     11  C   UNL d   1     -55.203-100.341 -42.859  0.00  0.00     0.018 A 
ENDBRANCH   1   2
BRANCH   1  12
ATOM     12  C   UNL d   1     -56.556 -99.292 -44.007  0.00  0.00     0.142 C 
BRANCH  12  13
ATOM     13  O   UNL d   1     -57.223 -99.029 -44.418  0.00  0.00    -0.302 OA
BRANCH  13  14
ATOM     14  C   UNL d   1     -57.949 -98.957 -44.031  0.00  0.00     0.122 A 
ATOM     15  C   UNL d   1     -58.637 -98.828 -44.468  0.00  0.00     0.117 A 
ATOM     16  C   UNL d   1     -59.358 -98.756 -44.083  0.00  0.00     0.026 A 
ATOM     17  C   UNL d   1     -59.391 -98.813 -43.260  0.00  0.00     0.002 A 
ATOM     18  C   UNL d   1     -58.698 -98.943 -42.825  0.00  0.00     0.002 A 
ATOM     19  C   UNL d   1     -57.980 -99.014 -43.219  0.00  0.00     0.027 A 
BRANCH  15  20
ATOM     20  O   UNL d   1     -58.636 -98.765 -45.296  0.00  0.00    -0.326 OA
ATOM     21  C   UNL d   1     -59.248 -99.111 -45.731  0.00  0.00     0.181 C 
ENDBRANCH  15  20
ENDBRANCH  13  14
ENDBRANCH  12  13
ENDBRANCH   1  12
TORSDOF 5
ENDMDL
