MODEL 1
REMARK VINA RESULT:      44.5      0.000      0.000
REMARK  3 active torsions:
REMARK  status: ('A' for Active; 'I' for Inactive)
REMARK    1  A    between atoms: C_15  and  N_1 
REMARK       I    between atoms: C_6  and  N_7 
REMARK    2  A    between atoms: C_11  and  C_6 
REMARK    3  A    between atoms: N_7  and  C_8 
ROOT
ATOM      1  N   UNL d   1     -49.904  24.848  33.334  0.00  0.00    -0.273 N 
ATOM      2  C   UNL d   1     -50.001  25.914  33.335  0.00  0.00     0.265 A 
ATOM      3  C   UNL d   1     -50.686  24.594  33.360  0.00  0.00     0.067 A 
ATOM      4  C   UNL d   1     -51.158  25.270  33.374  0.00  0.00     0.022 A 
ATOM      5  C   UNL d   1     -50.813  25.999  33.361  0.00  0.00     0.058 A 
ATOM      6  C   UNL d   1     -52.315  24.446  33.413  0.00  0.00     0.084 A 
ATOM      7  C   UNL d   1     -51.973  25.196  33.400  0.00  0.00     0.019 A 
ATOM      8  C   UNL d   1     -51.028  23.843  33.373  0.00  0.00     0.019 A 
ATOM      9  O   UNL d   1     -49.508  26.575  33.317  0.00  0.00    -0.267 OA
ATOM     10  C   UNL d   1     -51.844  23.769  33.400  0.00  0.00     0.021 A 
ATOM     11  C   UNL d   1     -51.285  26.675  33.374  0.00  0.00     0.005 A 
ATOM     12  C   UNL d   1     -52.443  25.851  33.414  0.00  0.00     0.002 A 
ATOM     13  C   UNL d   1     -52.100  26.601  33.401  0.00  0.00     0.000 A 
ENDROOT
BRANCH   6  14
ATOM     14  N   UNL d   1     -53.130  24.372  33.440  0.00  0.00    -0.212 NA
ATOM     15  C   UNL d   1     -53.472  23.758  33.872  0.00  0.00     0.255 C 
ATOM     16  O   UNL d   1     -53.000  23.235  34.265  0.00  0.00    -0.270 OA
BRANCH  15  17
ATOM     17  C   UNL d   1     -54.286  23.685  33.898  0.00  0.00     0.073 C 
ATOM     18  C   UNL d   1     -54.711  24.052  34.502  0.00  0.00     0.009 C 
ATOM     19  C   UNL d   1     -54.677  23.243  33.321  0.00  0.00     0.009 C 
ATOM     20  C   UNL d   1     -55.220  23.595  33.921  0.00  0.00     0.009 C 
ENDBRANCH  15  17
ENDBRANCH   6  14
BRANCH   1  21
ATOM     21  C   UNL d   1     -49.300  24.270  33.316  0.00  0.00     0.083 C 
ATOM     22  C   UNL d   1     -49.360  23.624  33.787  0.00  0.00     0.021 C 
ENDBRANCH   1  21
TORSDOF 3
ENDMDL
