MODEL 1
REMARK VINA RESULT:      29.2      0.000      0.000
REMARK  3 active torsions:
REMARK  status: ('A' for Active; 'I' for Inactive)
REMARK    1  A    between atoms: C_2  and  S_1 
REMARK    2  A    between atoms: N_3  and  S_1 
REMARK    3  A    between atoms: N_4  and  C_6 
ROOT
ATOM      1  C   UNL d   1     -56.247 -99.733 -44.393  0.00  0.00     0.116 A 
ATOM      2  C   UNL d   1     -55.979-100.397 -43.966  0.00  0.00     0.037 A 
ATOM      3  C   UNL d   1     -55.222-100.677 -44.097  0.00  0.00     0.127 A 
ATOM      4  C   UNL d   1     -55.748 -99.359 -44.946  0.00  0.00     0.070 A 
ATOM      5  C   UNL d   1     -54.712-100.293 -44.664  0.00  0.00     0.024 A 
ATOM      6  C   UNL d   1     -54.986 -99.649 -45.071  0.00  0.00     0.014 A 
ATOM      7 CL   UNL d   1     -56.038 -98.757 -45.311  0.00  0.00    -0.082 Cl
ENDROOT
BRANCH   1   8
ATOM      8  S   UNL d   1     -57.032 -99.444 -44.256  0.00  0.00     0.273 S 
ATOM      9  O   UNL d   1     -56.723 -98.759 -43.904  0.00  0.00    -0.200 OA
ATOM     10  O   UNL d   1     -57.357-100.146 -44.616  0.00  0.00    -0.200 OA
BRANCH   8  11
ATOM     11  N   UNL d   1     -57.793 -99.177 -44.129  0.00  0.00    -0.210 N 
ATOM     12  C   UNL d   1     -58.401 -99.017 -44.728  0.00  0.00     0.193 A 
ATOM     13  N   UNL d   1     -59.079 -98.755 -44.308  0.00  0.00    -0.222 NA
ATOM     14  C   UNL d   1     -58.894 -98.755 -43.483  0.00  0.00     0.120 A 
ATOM     15  C   UNL d   1     -58.115 -99.013 -43.407  0.00  0.00     0.114 A 
ENDBRANCH   8  11
ENDBRANCH   1   8
BRANCH   3  16
ATOM     16  N   UNL d   1     -54.965-101.328 -43.675  0.00  0.00    -0.114 N 
ATOM     17  O   UNL d   1     -54.858-101.363 -42.879  0.00  0.00    -0.532 OA
ATOM     18  O   UNL d   1     -54.780-102.047 -44.031  0.00  0.00    -0.532 OA
ENDBRANCH   3  16
TORSDOF 3
ENDMDL
