MODEL 1
REMARK VINA RESULT:      37.7      0.000      0.000
REMARK  5 active torsions:
REMARK  status: ('A' for Active; 'I' for Inactive)
REMARK    1  A    between atoms: C_15  and  N_5 
REMARK    2  A    between atoms: S_10  and  C_6 
REMARK    3  A    between atoms: C_14  and  S_10 
REMARK    4  A    between atoms: C_11  and  C_14 
REMARK       I    between atoms: N_13  and  C_11 
REMARK    5  A    between atoms: C_17  and  C_15 
ROOT
ATOM      1  C   UNL d   1      13.723  12.844  -2.913  0.00  0.00     0.081 A 
ATOM      2  C   UNL d   1      13.881  13.619  -3.150  0.00  0.00     0.117 A 
ATOM      3  N   UNL d   1      14.203  14.126  -2.631  0.00  0.00    -0.215 NA
ATOM      4  C   UNL d   1      13.888  12.603  -2.172  0.00  0.00     0.268 A 
ATOM      5  N   UNL d   1      14.210  13.110  -1.653  0.00  0.00    -0.253 N 
ATOM      6  C   UNL d   1      14.367  13.868  -1.879  0.00  0.00     0.182 A 
ATOM      7  S   UNL d   1      13.667  13.712  -3.902  0.00  0.00    -0.068 SA
ATOM      8  C   UNL d   1      13.393  12.463  -3.574  0.00  0.00     0.013 A 
ATOM      9  C   UNL d   1      13.370  13.027  -4.176  0.00  0.00     0.031 A 
ATOM     10  O   UNL d   1      13.725  11.780  -1.904  0.00  0.00    -0.267 OA
ATOM     11  C   UNL d   1      13.101  11.783  -3.840  0.00  0.00     0.001 A 
ATOM     12  C   UNL d   1      13.041  12.646  -4.837  0.00  0.00     0.006 A 
ATOM     13  C   UNL d   1      12.888  11.920  -4.629  0.00  0.00     0.001 A 
ENDROOT
BRANCH   6  14
ATOM     14  S   UNL d   1      14.712  14.410  -1.320  0.00  0.00    -0.044 SA
BRANCH  14  15
ATOM     15  C   UNL d   1      14.875  15.195  -1.595  0.00  0.00     0.099 C 
BRANCH  15  16
ATOM     16  C   UNL d   1      15.236  15.733  -1.040  0.00  0.00     0.272 C 
ATOM     17  N   UNL d   1      15.244  16.547  -1.154  0.00  0.00    -0.269 N 
ATOM     18  C   UNL d   1      15.612  17.042  -0.579  0.00  0.00     0.102 C 
ATOM     19  C   UNL d   1      14.886  16.878  -1.837  0.00  0.00     0.102 C 
ATOM     20  O   UNL d   1      15.595  15.393  -0.352  0.00  0.00    -0.266 OA
ENDBRANCH  15  16
ENDBRANCH  14  15
ENDBRANCH   6  14
BRANCH   5  21
ATOM     21  C   UNL d   1      14.379  12.829  -0.866  0.00  0.00     0.085 C 
BRANCH  21  22
ATOM     22  C   UNL d   1      14.906  12.217  -0.716  0.00  0.00     0.019 C 
ATOM     23  C   UNL d   1      14.877  11.807  -0.014  0.00  0.00     0.002 C 
ENDBRANCH  21  22
ENDBRANCH   5  21
TORSDOF 5
ENDMDL
MODEL 2
REMARK VINA RESULT:      39.8      0.974      3.998
REMARK  5 active torsions:
REMARK  status: ('A' for Active; 'I' for Inactive)
REMARK    1  A    between atoms: C_15  and  N_5 
REMARK    2  A    between atoms: S_10  and  C_6 
REMARK    3  A    between atoms: C_14  and  S_10 
REMARK    4  A    between atoms: C_11  and  C_14 
REMARK       I    between atoms: N_13  and  C_11 
REMARK    5  A    between atoms: C_17  and  C_15 
ROOT
ATOM      1  C   UNL d   1      15.027  14.934  -1.096  0.00  0.00     0.081 A 
ATOM      2  C   UNL d   1      14.647  15.066  -1.816  0.00  0.00     0.117 A 
ATOM      3  N   UNL d   1      14.337  14.450  -2.210  0.00  0.00    -0.215 NA
ATOM      4  C   UNL d   1      15.085  14.200  -0.793  0.00  0.00     0.268 A 
ATOM      5  N   UNL d   1      14.775  13.584  -1.186  0.00  0.00    -0.253 N 
ATOM      6  C   UNL d   1      14.402  13.706  -1.891  0.00  0.00     0.182 A 
ATOM      7  S   UNL d   1      14.667  15.834  -1.988  0.00  0.00    -0.068 SA
ATOM      8  C   UNL d   1      15.285  15.679  -0.832  0.00  0.00     0.013 A 
ATOM      9  C   UNL d   1      15.047  16.221  -1.407  0.00  0.00     0.031 A 
ATOM     10  O   UNL d   1      15.488  14.044  -0.025  0.00  0.00    -0.267 OA
ATOM     11  C   UNL d   1      15.663  16.058  -0.255  0.00  0.00     0.001 A 
ATOM     12  C   UNL d   1      15.305  16.965  -1.144  0.00  0.00     0.006 A 
ATOM     13  C   UNL d   1      15.663  16.858  -0.470  0.00  0.00     0.001 A 
ENDROOT
BRANCH   6  14
ATOM     14  S   UNL d   1      14.070  13.043  -2.310  0.00  0.00    -0.044 SA
BRANCH  14  15
ATOM     15  C   UNL d   1      13.626  13.214  -3.011  0.00  0.00     0.099 C 
BRANCH  15  16
ATOM     16  C   UNL d   1      13.417  12.554  -3.509  0.00  0.00     0.272 C 
ATOM     17  N   UNL d   1      13.123  12.650  -4.270  0.00  0.00    -0.269 N 
ATOM     18  C   UNL d   1      12.929  11.968  -4.727  0.00  0.00     0.102 C 
ATOM     19  C   UNL d   1      13.018  13.420  -4.585  0.00  0.00     0.102 C 
ATOM     20  O   UNL d   1      13.525  11.779  -3.185  0.00  0.00    -0.266 OA
ENDBRANCH  15  16
ENDBRANCH  14  15
ENDBRANCH   6  14
BRANCH   5  21
ATOM     21  C   UNL d   1      14.849  12.807  -0.842  0.00  0.00     0.085 C 
BRANCH  21  22
ATOM     22  C   UNL d   1      14.208  12.391  -0.542  0.00  0.00     0.019 C 
ATOM     23  C   UNL d   1      14.319  11.781  -0.015  0.00  0.00     0.002 C 
ENDBRANCH  21  22
ENDBRANCH   5  21
TORSDOF 5
ENDMDL
