MODEL 1
REMARK VINA RESULT:      17.5      0.000      0.000
REMARK  0 active torsions:
REMARK  status: ('A' for Active; 'I' for Inactive)
ROOT
ATOM      1  N   UNL d   1      57.438  49.692  50.625  0.00  0.00    -0.273 N 
ATOM      2  C   UNL d   1      57.825  49.699  49.911  0.00  0.00     0.068 A 
ATOM      3  C   UNL d   1      56.608  49.692  50.645  0.00  0.00     0.265 A 
ATOM      4  C   UNL d   1      58.649  49.699  49.895  0.00  0.00     0.035 A 
ATOM      5  C   UNL d   1      57.871  49.684  51.330  0.00  0.00     0.085 A 
ATOM      6  C   UNL d   1      57.385  49.706  49.211  0.00  0.00     0.018 A 
ATOM      7  N   UNL d   1      59.968  49.691  50.658  0.00  0.00    -0.242 NA
ATOM      8  C   UNL d   1      59.087  49.692  50.595  0.00  0.00     0.006 A 
ATOM      9  C   UNL d   1      58.700  49.684  51.309  0.00  0.00     0.037 A 
ATOM     10  C   UNL d   1      56.558  49.706  49.224  0.00  0.00     0.006 A 
ATOM     11  C   UNL d   1      56.171  49.699  49.938  0.00  0.00     0.061 A 
ATOM     12  O   UNL d   1      56.223  49.684  51.364  0.00  0.00    -0.267 OA
ATOM     13  C   UNL d   1      59.472  49.699  49.898  0.00  0.00     0.100 A 
ATOM     14  C   UNL d   1      59.521  49.684  51.350  0.00  0.00     0.100 A 
ENDROOT
TORSDOF 0
ENDMDL
