MODEL 1
REMARK VINA RESULT:       5.4      0.000      0.000
REMARK  4 active torsions:
REMARK  status: ('A' for Active; 'I' for Inactive)
REMARK    1  A    between atoms: N_7  and  C_1 
REMARK    2  A    between atoms: C_9  and  N_3 
REMARK       I    between atoms: C_11  and  N_7 
REMARK    3  A    between atoms: C_15  and  C_11 
REMARK    4  A    between atoms: C_17  and  C_15 
ROOT
ATOM      1  C   UNL d   1     -41.932-121.471 -51.606  0.00  0.00     0.169 A 
ATOM      2  C   UNL d   1     -41.685-120.687 -51.740  0.00  0.00     0.065 A 
ATOM      3  N   UNL d   1     -41.772-121.665 -50.817  0.00  0.00    -0.212 N 
ATOM      4  N   UNL d   1     -41.425-121.001 -50.461  0.00  0.00    -0.163 NA
ATOM      5  C   UNL d   1     -41.372-120.400 -51.030  0.00  0.00     0.114 A 
ATOM      6  S   UNL d   1     -41.283-119.424 -51.941  0.00  0.00     0.091 S 
ATOM      7  C   UNL d   1     -41.123-119.618 -51.152  0.00  0.00     0.090 A 
ATOM      8  C   UNL d   1     -41.630-120.088 -52.301  0.00  0.00     0.073 A 
ATOM      9  O   UNL d   1     -41.125-118.698 -52.309  0.00  0.00    -0.247 OA
ENDROOT
BRANCH   1  10
ATOM     10  N   UNL d   1     -42.279-121.969 -52.171  0.00  0.00    -0.189 NA
ATOM     11  C   UNL d   1     -41.884-122.150 -52.866  0.00  0.00     0.281 C 
ATOM     12  O   UNL d   1     -41.123-121.832 -53.011  0.00  0.00    -0.265 OA
BRANCH  11  13
ATOM     13  C   UNL d   1     -42.227-122.645 -53.430  0.00  0.00     0.063 C 
BRANCH  13  14
ATOM     14  C   UNL d   1     -42.212-122.424 -54.222  0.00  0.00     0.005 A 
ATOM     15  C   UNL d   1     -42.897-122.135 -54.576  0.00  0.00     0.003 A 
ATOM     16  C   UNL d   1     -42.885-121.913 -55.370  0.00  0.00     0.030 A 
ATOM     17  C   UNL d   1     -42.187-121.980 -55.811  0.00  0.00     0.140 A 
ATOM     18  C   UNL d   1     -41.507-122.269 -55.451  0.00  0.00     0.030 A 
ATOM     19  F   UNL d   1     -42.174-121.757 -56.606  0.00  0.00    -0.204 F 
ATOM     20  C   UNL d   1     -41.517-122.491 -54.657  0.00  0.00     0.003 A 
ENDBRANCH  13  14
ENDBRANCH  11  13
ENDBRANCH   1  10
BRANCH   3  21
ATOM     21  C   UNL d   1     -41.928-122.387 -50.449  0.00  0.00     0.085 A 
ATOM     22  C   UNL d   1     -42.692-122.549 -50.182  0.00  0.00     0.031 A 
ATOM     23  C   UNL d   1     -42.838-123.263 -49.821  0.00  0.00     0.059 A 
ATOM     24 CL   UNL d   1     -43.593-123.434 -49.553  0.00  0.00    -0.082 Cl
ATOM     25  C   UNL d   1     -42.235-123.817 -49.721  0.00  0.00     0.011 A 
ATOM     26  C   UNL d   1     -41.480-123.655 -49.985  0.00  0.00     0.002 A 
ATOM     27  C   UNL d   1     -41.323-122.933 -50.353  0.00  0.00     0.019 A 
ENDBRANCH   3  21
TORSDOF 4
ENDMDL
