MODEL 1
REMARK VINA RESULT:      -5.0      0.000      0.000
REMARK  5 active torsions:
REMARK  status: ('A' for Active; 'I' for Inactive)
REMARK    1  A    between atoms: S_10  and  C_6 
REMARK    2  A    between atoms: C_14  and  S_10 
REMARK    3  A    between atoms: C_12  and  C_14 
REMARK    4  A    between atoms: O_16  and  C_12 
REMARK    5  A    between atoms: C_18  and  O_16 
ROOT
ATOM      1  C   UNL d   1      57.289   0.337  31.931  0.00  0.00     0.117 A 
ATOM      2  C   UNL d   1      57.005  -0.420  31.827  0.00  0.00     0.082 A 
ATOM      3  N   UNL d   1      57.851   0.649  31.388  0.00  0.00    -0.214 NA
ATOM      4  C   UNL d   1      57.259  -0.886  31.198  0.00  0.00     0.283 A 
ATOM      5  N   UNL d   1      57.822  -0.574  30.655  0.00  0.00    -0.183 NA
ATOM      6  C   UNL d   1      58.106   0.191  30.764  0.00  0.00     0.198 A 
ATOM      7  S   UNL d   1      56.931   0.682  32.621  0.00  0.00    -0.068 SA
ATOM      8  C   UNL d   1      56.477  -0.569  32.430  0.00  0.00     0.013 A 
ATOM      9  C   UNL d   1      56.420   0.116  32.937  0.00  0.00     0.031 A 
ATOM     10  O   UNL d   1      56.962  -1.666  31.096  0.00  0.00    -0.265 OA
ATOM     11  C   UNL d   1      56.022  -1.233  32.609  0.00  0.00     0.001 A 
ATOM     12  C   UNL d   1      55.920   0.120  33.598  0.00  0.00     0.006 A 
ATOM     13  C   UNL d   1      55.522  -1.229  33.270  0.00  0.00     0.000 A 
ATOM     14  C   UNL d   1      55.481  -0.535  33.763  0.00  0.00     0.001 A 
ENDROOT
BRANCH   6  15
ATOM     15  S   UNL d   1      58.665   0.502  30.223  0.00  0.00    -0.042 SA
BRANCH  15  16
ATOM     16  C   UNL d   1      59.454   0.319  30.310  0.00  0.00     0.107 C 
BRANCH  16  17
ATOM     17  C   UNL d   1      59.921   0.146  29.626  0.00  0.00     0.307 C 
ATOM     18  O   UNL d   1      59.947   0.672  28.994  0.00  0.00    -0.258 OA
BRANCH  17  19
ATOM     19  O   UNL d   1      60.365  -0.574  29.594  0.00  0.00    -0.271 OA
BRANCH  19  20
ATOM     20  C   UNL d   1      60.825  -0.741  28.925  0.00  0.00     0.126 C 
ATOM     21  C   UNL d   1      61.050  -1.515  28.752  0.00  0.00     0.029 C 
ENDBRANCH  19  20
ENDBRANCH  17  19
ENDBRANCH  16  17
ENDBRANCH  15  16
ENDBRANCH   6  15
TORSDOF 5
ENDMDL
MODEL 2
REMARK VINA RESULT:      -4.8      1.508      1.998
REMARK  5 active torsions:
REMARK  status: ('A' for Active; 'I' for Inactive)
REMARK    1  A    between atoms: S_10  and  C_6 
REMARK    2  A    between atoms: C_14  and  S_10 
REMARK    3  A    between atoms: C_12  and  C_14 
REMARK    4  A    between atoms: O_16  and  C_12 
REMARK    5  A    between atoms: C_18  and  O_16 
ROOT
ATOM      1  C   UNL d   1      56.141   0.676  32.593  0.00  0.00     0.117 A 
ATOM      2  C   UNL d   1      56.644   0.678  33.233  0.00  0.00     0.082 A 
ATOM      3  N   UNL d   1      56.459   0.675  31.813  0.00  0.00    -0.214 NA
ATOM      4  C   UNL d   1      57.461   0.679  33.131  0.00  0.00     0.283 A 
ATOM      5  N   UNL d   1      57.779   0.678  32.351  0.00  0.00    -0.183 NA
ATOM      6  C   UNL d   1      57.266   0.676  31.707  0.00  0.00     0.198 A 
ATOM      7  S   UNL d   1      55.336   0.676  32.865  0.00  0.00    -0.068 SA
ATOM      8  C   UNL d   1      56.185   0.679  33.907  0.00  0.00     0.013 A 
ATOM      9  C   UNL d   1      55.359   0.678  33.690  0.00  0.00     0.031 A 
ATOM     10  O   UNL d   1      57.975   0.682  33.796  0.00  0.00    -0.265 OA
ATOM     11  C   UNL d   1      56.384   0.681  34.707  0.00  0.00     0.001 A 
ATOM     12  C   UNL d   1      54.764   0.678  34.267  0.00  0.00     0.006 A 
ATOM     13  C   UNL d   1      55.789   0.682  35.284  0.00  0.00     0.000 A 
ATOM     14  C   UNL d   1      54.972   0.680  35.046  0.00  0.00     0.001 A 
ENDROOT
BRANCH   6  15
ATOM     15  S   UNL d   1      57.583   0.675  30.931  0.00  0.00    -0.042 SA
BRANCH  15  16
ATOM     16  C   UNL d   1      57.778  -0.032  30.578  0.00  0.00     0.107 C 
BRANCH  16  17
ATOM     17  C   UNL d   1      58.190  -0.030  29.837  0.00  0.00     0.307 C 
ATOM     18  O   UNL d   1      57.947   0.462  29.226  0.00  0.00    -0.258 OA
BRANCH  17  19
ATOM     19  O   UNL d   1      58.856  -0.540  29.730  0.00  0.00    -0.271 OA
BRANCH  19  20
ATOM     20  C   UNL d   1      58.935  -0.965  29.022  0.00  0.00     0.126 C 
ATOM     21  C   UNL d   1      59.486  -1.574  28.956  0.00  0.00     0.029 C 
ENDBRANCH  19  20
ENDBRANCH  17  19
ENDBRANCH  16  17
ENDBRANCH  15  16
ENDBRANCH   6  15
TORSDOF 5
ENDMDL
MODEL 3
REMARK VINA RESULT:      -4.2      9.248     10.135
REMARK  5 active torsions:
REMARK  status: ('A' for Active; 'I' for Inactive)
REMARK    1  A    between atoms: S_10  and  C_6 
REMARK    2  A    between atoms: C_14  and  S_10 
REMARK    3  A    between atoms: C_12  and  C_14 
REMARK    4  A    between atoms: O_16  and  C_12 
REMARK    5  A    between atoms: C_18  and  O_16 
ROOT
ATOM      1  C   UNL d   1      58.071  -9.816  31.930  0.00  0.00     0.117 A 
ATOM      2  C   UNL d   1      58.663  -9.816  31.371  0.00  0.00     0.082 A 
ATOM      3  N   UNL d   1      58.272  -9.816  32.748  0.00  0.00    -0.214 NA
ATOM      4  C   UNL d   1      59.456  -9.817  31.591  0.00  0.00     0.283 A 
ATOM      5  N   UNL d   1      59.657  -9.816  32.409  0.00  0.00    -0.183 NA
ATOM      6  C   UNL d   1      59.055  -9.816  32.971  0.00  0.00     0.198 A 
ATOM      7  S   UNL d   1      57.315  -9.816  31.543  0.00  0.00    -0.068 SA
ATOM      8  C   UNL d   1      58.308  -9.817  30.637  0.00  0.00     0.013 A 
ATOM      9  C   UNL d   1      57.458  -9.816  30.731  0.00  0.00     0.031 A 
ATOM     10  O   UNL d   1      60.062  -9.817  31.008  0.00  0.00    -0.265 OA
ATOM     11  C   UNL d   1      58.621  -9.817  29.875  0.00  0.00     0.001 A 
ATOM     12  C   UNL d   1      56.955  -9.816  30.073  0.00  0.00     0.006 A 
ATOM     13  C   UNL d   1      58.117  -9.817  29.217  0.00  0.00     0.000 A 
ATOM     14  C   UNL d   1      57.274  -9.817  29.332  0.00  0.00     0.001 A 
ENDROOT
BRANCH   6  15
ATOM     15  S   UNL d   1      59.254  -9.816  33.785  0.00  0.00    -0.042 SA
BRANCH  15  16
ATOM     16  C   UNL d   1      59.558  -9.141  34.125  0.00  0.00     0.107 C 
BRANCH  16  17
ATOM     17  C   UNL d   1      59.574  -9.068  34.968  0.00  0.00     0.307 C 
ATOM     18  O   UNL d   1      59.801  -9.702  35.438  0.00  0.00    -0.258 OA
BRANCH  17  19
ATOM     19  O   UNL d   1      59.353  -8.334  35.327  0.00  0.00    -0.271 OA
BRANCH  19  20
ATOM     20  C   UNL d   1      59.699  -8.111  36.047  0.00  0.00     0.126 C 
ATOM     21  C   UNL d   1      59.800  -7.316  36.238  0.00  0.00     0.029 C 
ENDBRANCH  19  20
ENDBRANCH  17  19
ENDBRANCH  16  17
ENDBRANCH  15  16
ENDBRANCH   6  15
TORSDOF 5
ENDMDL
MODEL 4
REMARK VINA RESULT:      -3.5      2.201      5.081
REMARK  5 active torsions:
REMARK  status: ('A' for Active; 'I' for Inactive)
REMARK    1  A    between atoms: S_10  and  C_6 
REMARK    2  A    between atoms: C_14  and  S_10 
REMARK    3  A    between atoms: C_12  and  C_14 
REMARK    4  A    between atoms: O_16  and  C_12 
REMARK    5  A    between atoms: C_18  and  O_16 
ROOT
ATOM      1  C   UNL d   1      59.108  -2.594  29.031  0.00  0.00     0.117 A 
ATOM      2  C   UNL d   1      59.919  -2.526  28.987  0.00  0.00     0.082 A 
ATOM      3  N   UNL d   1      58.642  -1.914  29.206  0.00  0.00    -0.214 NA
ATOM      4  C   UNL d   1      60.292  -1.802  29.111  0.00  0.00     0.283 A 
ATOM      5  N   UNL d   1      59.826  -1.123  29.286  0.00  0.00    -0.183 NA
ATOM      6  C   UNL d   1      59.007  -1.197  29.330  0.00  0.00     0.198 A 
ATOM      7  S   UNL d   1      58.882  -3.399  28.879  0.00  0.00    -0.068 SA
ATOM      8  C   UNL d   1      60.218  -3.263  28.811  0.00  0.00     0.013 A 
ATOM      9  C   UNL d   1      59.576  -3.823  28.740  0.00  0.00     0.031 A 
ATOM     10  O   UNL d   1      61.129  -1.739  29.064  0.00  0.00    -0.265 OA
ATOM     11  C   UNL d   1      60.990  -3.531  28.700  0.00  0.00     0.001 A 
ATOM     12  C   UNL d   1      59.720  -4.620  28.564  0.00  0.00     0.006 A 
ATOM     13  C   UNL d   1      61.133  -4.328  28.523  0.00  0.00     0.000 A 
ATOM     14  C   UNL d   1      60.479  -4.869  28.457  0.00  0.00     0.001 A 
ENDROOT
BRANCH   6  15
ATOM     15  S   UNL d   1      58.543  -0.521  29.504  0.00  0.00    -0.042 SA
BRANCH  15  16
ATOM     16  C   UNL d   1      58.489  -0.258  30.273  0.00  0.00     0.107 C 
BRANCH  16  17
ATOM     17  C   UNL d   1      57.833   0.226  30.504  0.00  0.00     0.307 C 
ATOM     18  O   UNL d   1      57.349   0.571  29.937  0.00  0.00    -0.258 OA
BRANCH  17  19
ATOM     19  O   UNL d   1      57.678   0.353  31.326  0.00  0.00    -0.271 OA
BRANCH  19  20
ATOM     20  C   UNL d   1      56.913   0.560  31.570  0.00  0.00     0.126 C 
ATOM     21  C   UNL d   1      56.733   0.636  32.370  0.00  0.00     0.029 C 
ENDBRANCH  19  20
ENDBRANCH  17  19
ENDBRANCH  16  17
ENDBRANCH  15  16
ENDBRANCH   6  15
TORSDOF 5
ENDMDL
MODEL 5
REMARK VINA RESULT:      -3.5      9.352      9.507
REMARK  5 active torsions:
REMARK  status: ('A' for Active; 'I' for Inactive)
REMARK    1  A    between atoms: S_10  and  C_6 
REMARK    2  A    between atoms: C_14  and  S_10 
REMARK    3  A    between atoms: C_12  and  C_14 
REMARK    4  A    between atoms: O_16  and  C_12 
REMARK    5  A    between atoms: C_18  and  O_16 
ROOT
ATOM      1  C   UNL d   1      60.466  -8.834  33.828  0.00  0.00     0.117 A 
ATOM      2  C   UNL d   1      59.753  -9.077  34.139  0.00  0.00     0.082 A 
ATOM      3  N   UNL d   1      60.691  -9.085  33.056  0.00  0.00    -0.214 NA
ATOM      4  C   UNL d   1      59.248  -9.565  33.710  0.00  0.00     0.283 A 
ATOM      5  N   UNL d   1      59.473  -9.816  32.939  0.00  0.00    -0.183 NA
ATOM      6  C   UNL d   1      60.194  -9.568  32.629  0.00  0.00     0.198 A 
ATOM      7  S   UNL d   1      60.867  -8.338  34.390  0.00  0.00    -0.068 SA
ATOM      8  C   UNL d   1      59.686  -8.751  34.883  0.00  0.00     0.013 A 
ATOM      9  C   UNL d   1      60.380  -8.284  35.055  0.00  0.00     0.031 A 
ATOM     10  O   UNL d   1      58.514  -9.812  34.037  0.00  0.00    -0.265 OA
ATOM     11  C   UNL d   1      59.093  -8.802  35.453  0.00  0.00     0.001 A 
ATOM     12  C   UNL d   1      60.462  -7.886  35.777  0.00  0.00     0.006 A 
ATOM     13  C   UNL d   1      59.175  -8.405  36.176  0.00  0.00     0.000 A 
ATOM     14  C   UNL d   1      59.875  -7.944  36.327  0.00  0.00     0.001 A 
ENDROOT
BRANCH   6  15
ATOM     15  S   UNL d   1      60.418  -9.818  31.861  0.00  0.00    -0.042 SA
BRANCH  15  16
ATOM     16  C   UNL d   1      60.197  -9.376  31.214  0.00  0.00     0.107 C 
BRANCH  16  17
ATOM     17  C   UNL d   1      60.354  -9.668  30.434  0.00  0.00     0.307 C 
ATOM     18  O   UNL d   1      61.126  -9.806  30.189  0.00  0.00    -0.258 OA
BRANCH  17  19
ATOM     19  O   UNL d   1      59.710  -9.818  29.907  0.00  0.00    -0.271 OA
BRANCH  19  20
ATOM     20  C   UNL d   1      59.792  -9.643  29.101  0.00  0.00     0.126 C 
ATOM     21  C   UNL d   1      59.161  -9.746  28.582  0.00  0.00     0.029 C 
ENDBRANCH  19  20
ENDBRANCH  17  19
ENDBRANCH  16  17
ENDBRANCH  15  16
ENDBRANCH   6  15
TORSDOF 5
ENDMDL
