MODEL 1
REMARK VINA RESULT:      -2.0      0.000      0.000
REMARK  7 active torsions:
REMARK  status: ('A' for Active; 'I' for Inactive)
REMARK    1  A    between atoms: C_6  and  C_1 
REMARK    2  A    between atoms: C_8  and  N_3 
REMARK    3  A    between atoms: O_7  and  C_6 
REMARK    4  A    between atoms: C_9  and  O_7 
REMARK    5  A    between atoms: C_19  and  C_8 
REMARK    6  A    between atoms: O_16  and  C_10 
REMARK    7  A    between atoms: O_18  and  C_19 
ROOT
ATOM      1  C   UNL d   1      33.238  20.428 -23.447  0.00  0.00     0.173 A 
ATOM      2  N   UNL d   1      33.238  20.687 -24.238  0.00  0.00    -0.225 NA
ATOM      3  N   UNL d   1      33.239  21.105 -22.951  0.00  0.00    -0.286 N 
ATOM      4  C   UNL d   1      33.239  21.784 -23.444  0.00  0.00     0.083 A 
ATOM      5  C   UNL d   1      33.238  21.519 -24.236  0.00  0.00     0.099 A 
ATOM      6  C   UNL d   1      33.240  22.594 -23.288  0.00  0.00     0.019 A 
ATOM      7  C   UNL d   1      33.238  22.069 -24.855  0.00  0.00     0.021 A 
ATOM      8  C   UNL d   1      33.240  23.140 -23.906  0.00  0.00     0.002 A 
ATOM      9  C   UNL d   1      33.239  22.877 -24.691  0.00  0.00     0.002 A 
ENDROOT
BRANCH   1  10
ATOM     10  C   UNL d   1      33.237  19.609 -23.397  0.00  0.00     0.160 C 
BRANCH  10  11
ATOM     11  O   UNL d   1      32.847  19.157 -23.972  0.00  0.00    -0.302 OA
BRANCH  11  12
ATOM     12  C   UNL d   1      32.665  18.366 -23.826  0.00  0.00     0.100 A 
ATOM     13  C   UNL d   1      33.205  17.896 -23.419  0.00  0.00     0.027 A 
ATOM     14  C   UNL d   1      33.023  17.105 -23.273  0.00  0.00     0.026 A 
ATOM     15  C   UNL d   1      32.304  16.787 -23.534  0.00  0.00     0.094 A 
ATOM     16  C   UNL d   1      31.770  17.261 -23.939  0.00  0.00     0.026 A 
ATOM     17  C   UNL d   1      31.952  18.052 -24.085  0.00  0.00     0.027 A 
BRANCH  15  18
ATOM     18  O   UNL d   1      32.124  15.998 -23.388  0.00  0.00    -0.328 OA
ATOM     19  C   UNL d   1      32.696  15.489 -23.079  0.00  0.00     0.181 C 
ENDBRANCH  15  18
ENDBRANCH  11  12
ENDBRANCH  10  11
ENDBRANCH   1  10
BRANCH   3  20
ATOM     20  C   UNL d   1      33.240  21.107 -22.129  0.00  0.00     0.108 C 
BRANCH  20  21
ATOM     21  C   UNL d   1      32.555  21.313 -21.711  0.00  0.00     0.135 C 
BRANCH  21  22
ATOM     22  O   UNL d   1      32.529  21.219 -20.898  0.00  0.00    -0.325 OA
ATOM     23  C   UNL d   1      31.977  21.637 -20.454  0.00  0.00     0.182 C 
ENDBRANCH  21  22
ENDBRANCH  20  21
ENDBRANCH   3  20
TORSDOF 7
ENDMDL
MODEL 2
REMARK VINA RESULT:      -2.0      1.665      5.009
REMARK  7 active torsions:
REMARK  status: ('A' for Active; 'I' for Inactive)
REMARK    1  A    between atoms: C_6  and  C_1 
REMARK    2  A    between atoms: C_8  and  N_3 
REMARK    3  A    between atoms: O_7  and  C_6 
REMARK    4  A    between atoms: C_9  and  O_7 
REMARK    5  A    between atoms: C_19  and  C_8 
REMARK    6  A    between atoms: O_16  and  C_10 
REMARK    7  A    between atoms: O_18  and  C_19 
ROOT
ATOM      1  C   UNL d   1      32.520  18.171 -23.389  0.00  0.00     0.173 A 
ATOM      2  N   UNL d   1      33.055  17.686 -22.975  0.00  0.00    -0.225 NA
ATOM      3  N   UNL d   1      32.021  17.677 -23.848  0.00  0.00    -0.286 N 
ATOM      4  C   UNL d   1      32.252  16.882 -23.713  0.00  0.00     0.083 A 
ATOM      5  C   UNL d   1      32.890  16.895 -23.174  0.00  0.00     0.099 A 
ATOM      6  C   UNL d   1      31.979  16.159 -23.999  0.00  0.00     0.019 A 
ATOM      7  C   UNL d   1      33.241  16.185 -22.932  0.00  0.00     0.021 A 
ATOM      8  C   UNL d   1      32.329  15.453 -23.756  0.00  0.00     0.002 A 
ATOM      9  C   UNL d   1      32.961  15.466 -23.223  0.00  0.00     0.002 A 
ENDROOT
BRANCH   1  10
ATOM     10  C   UNL d   1      32.644  18.966 -23.225  0.00  0.00     0.160 C 
BRANCH  10  11
ATOM     11  O   UNL d   1      32.896  19.201 -22.471  0.00  0.00    -0.302 OA
BRANCH  11  12
ATOM     12  C   UNL d   1      32.908  20.000 -22.267  0.00  0.00     0.100 A 
ATOM     13  C   UNL d   1      33.227  20.546 -22.794  0.00  0.00     0.027 A 
ATOM     14  C   UNL d   1      33.241  21.345 -22.591  0.00  0.00     0.026 A 
ATOM     15  C   UNL d   1      32.935  21.596 -21.862  0.00  0.00     0.094 A 
ATOM     16  C   UNL d   1      32.619  21.046 -21.341  0.00  0.00     0.026 A 
ATOM     17  C   UNL d   1      32.606  20.246 -21.544  0.00  0.00     0.027 A 
BRANCH  15  18
ATOM     18  O   UNL d   1      32.949  22.392 -21.660  0.00  0.00    -0.328 OA
ATOM     19  C   UNL d   1      33.069  22.622 -20.876  0.00  0.00     0.181 C 
ENDBRANCH  15  18
ENDBRANCH  11  12
ENDBRANCH  10  11
ENDBRANCH   1  10
BRANCH   3  20
ATOM     20  C   UNL d   1      31.413  17.924 -24.342  0.00  0.00     0.108 C 
BRANCH  20  21
ATOM     21  C   UNL d   1      30.637  17.974 -24.057  0.00  0.00     0.135 C 
BRANCH  21  22
ATOM     22  O   UNL d   1      30.009  17.760 -24.538  0.00  0.00    -0.325 OA
ATOM     23  C   UNL d   1      29.305  18.184 -24.510  0.00  0.00     0.182 C 
ENDBRANCH  21  22
ENDBRANCH  20  21
ENDBRANCH   3  20
TORSDOF 7
ENDMDL
MODEL 3
REMARK VINA RESULT:       0.6      1.761      4.936
REMARK  7 active torsions:
REMARK  status: ('A' for Active; 'I' for Inactive)
REMARK    1  A    between atoms: C_6  and  C_1 
REMARK    2  A    between atoms: C_8  and  N_3 
REMARK    3  A    between atoms: O_7  and  C_6 
REMARK    4  A    between atoms: C_9  and  O_7 
REMARK    5  A    between atoms: C_19  and  C_8 
REMARK    6  A    between atoms: O_16  and  C_10 
REMARK    7  A    between atoms: O_18  and  C_19 
ROOT
ATOM      1  C   UNL d   1      31.588  17.619 -23.988  0.00  0.00     0.173 A 
ATOM      2  N   UNL d   1      30.952  18.116 -24.194  0.00  0.00    -0.225 NA
ATOM      3  N   UNL d   1      31.376  16.831 -24.182  0.00  0.00    -0.286 N 
ATOM      4  C   UNL d   1      30.603  16.845 -24.509  0.00  0.00     0.083 A 
ATOM      5  C   UNL d   1      30.349  17.641 -24.513  0.00  0.00     0.099 A 
ATOM      6  C   UNL d   1      30.102  16.259 -24.799  0.00  0.00     0.019 A 
ATOM      7  C   UNL d   1      29.599  17.833 -24.808  0.00  0.00     0.021 A 
ATOM      8  C   UNL d   1      29.355  16.452 -25.092  0.00  0.00     0.002 A 
ATOM      9  C   UNL d   1      29.104  17.240 -25.096  0.00  0.00     0.002 A 
ENDROOT
BRANCH   1  10
ATOM     10  C   UNL d   1      32.212  18.044 -23.667  0.00  0.00     0.160 C 
BRANCH  10  11
ATOM     11  O   UNL d   1      32.327  18.837 -23.875  0.00  0.00    -0.302 OA
BRANCH  11  12
ATOM     12  C   UNL d   1      32.556  19.388 -23.306  0.00  0.00     0.100 A 
ATOM     13  C   UNL d   1      32.531  19.180 -22.510  0.00  0.00     0.027 A 
ATOM     14  C   UNL d   1      32.760  19.730 -21.940  0.00  0.00     0.026 A 
ATOM     15  C   UNL d   1      33.012  20.487 -22.168  0.00  0.00     0.094 A 
ATOM     16  C   UNL d   1      33.034  20.688 -22.963  0.00  0.00     0.026 A 
ATOM     17  C   UNL d   1      32.805  20.137 -23.533  0.00  0.00     0.027 A 
BRANCH  15  18
ATOM     18  O   UNL d   1      33.239  21.035 -21.599  0.00  0.00    -0.328 OA
ATOM     19  C   UNL d   1      32.677  21.373 -21.097  0.00  0.00     0.181 C 
ENDBRANCH  15  18
ENDBRANCH  11  12
ENDBRANCH  10  11
ENDBRANCH   1  10
BRANCH   3  20
ATOM     20  C   UNL d   1      31.838  16.160 -24.072  0.00  0.00     0.108 C 
BRANCH  20  21
ATOM     21  C   UNL d   1      32.049  15.918 -23.309  0.00  0.00     0.135 C 
BRANCH  21  22
ATOM     22  O   UNL d   1      32.718  15.458 -23.196  0.00  0.00    -0.325 OA
ATOM     23  C   UNL d   1      33.142  15.516 -22.493  0.00  0.00     0.182 C 
ENDBRANCH  21  22
ENDBRANCH  20  21
ENDBRANCH   3  20
TORSDOF 7
ENDMDL
