MODEL 1
REMARK VINA RESULT:      -0.4      0.000      0.000
REMARK  5 active torsions:
REMARK  status: ('A' for Active; 'I' for Inactive)
REMARK    1  A    between atoms: N_5  and  C_1 
REMARK    2  A    between atoms: N_8  and  C_2 
REMARK    3  A    between atoms: C_26  and  N_4 
REMARK    4  A    between atoms: C_22  and  N_9 
REMARK    5  A    between atoms: C_21  and  C_22 
ROOT
ATOM      1  C   UNL d   1      32.598  21.370 -21.499  0.00  0.00     0.199 A 
ATOM      2  C   UNL d   1      32.760  21.440 -22.313  0.00  0.00     0.092 A 
ATOM      3  C   UNL d   1      32.593  22.036 -21.014  0.00  0.00     0.288 A 
ATOM      4  N   UNL d   1      32.752  22.782 -21.342  0.00  0.00    -0.272 N 
ATOM      5  C   UNL d   1      32.918  22.190 -22.633  0.00  0.00     0.034 A 
ATOM      6  C   UNL d   1      32.913  22.859 -22.147  0.00  0.00     0.068 A 
ATOM      7  O   UNL d   1      32.431  21.959 -20.209  0.00  0.00    -0.265 OA
ATOM      8  C   UNL d   1      33.080  22.267 -23.439  0.00  0.00     0.003 A 
ATOM      9  C   UNL d   1      33.070  23.602 -22.468  0.00  0.00     0.018 A 
ATOM     10  C   UNL d   1      33.237  23.013 -23.758  0.00  0.00     0.000 A 
ATOM     11  C   UNL d   1      33.232  23.678 -23.273  0.00  0.00     0.002 A 
ENDROOT
BRANCH   2  12
ATOM     12  N   UNL d   1      32.766  20.783 -22.798  0.00  0.00    -0.300 N 
ATOM     13  C   UNL d   1      33.229  20.133 -22.594  0.00  0.00     0.100 A 
ATOM     14  C   UNL d   1      33.240  19.461 -23.082  0.00  0.00     0.100 A 
ATOM     15  N   UNL d   1      32.789  19.442 -23.772  0.00  0.00    -0.300 N 
ATOM     16  C   UNL d   1      32.323  20.096 -23.977  0.00  0.00     0.100 A 
ATOM     17  C   UNL d   1      32.315  20.761 -23.489  0.00  0.00     0.100 A 
BRANCH  15  18
ATOM     18  C   UNL d   1      32.798  18.778 -24.257  0.00  0.00     0.080 C 
BRANCH  18  19
ATOM     19  C   UNL d   1      32.340  18.121 -24.064  0.00  0.00     0.020 A 
ATOM     20  C   UNL d   1      31.538  18.112 -24.245  0.00  0.00     0.028 A 
ATOM     21  C   UNL d   1      31.080  17.456 -24.051  0.00  0.00     0.119 A 
ATOM     22  O   UNL d   1      30.281  17.290 -24.160  0.00  0.00    -0.300 OA
ATOM     23  C   UNL d   1      31.426  16.808 -23.676  0.00  0.00     0.119 A 
ATOM     24  C   UNL d   1      30.129  16.538 -23.852  0.00  0.00     0.304 A 
ATOM     25  O   UNL d   1      30.838  16.237 -23.552  0.00  0.00    -0.300 OA
ATOM     26  C   UNL d   1      32.233  16.818 -23.495  0.00  0.00     0.026 A 
ATOM     27  C   UNL d   1      32.690  17.475 -23.689  0.00  0.00     0.004 A 
ENDBRANCH  18  19
ENDBRANCH  15  18
ENDBRANCH   2  12
BRANCH   1  28
ATOM     28  N   UNL d   1      32.440  20.621 -21.179  0.00  0.00    -0.107 N 
ATOM     29  O   UNL d   1      31.667  20.337 -21.162  0.00  0.00    -0.531 OA
ATOM     30  O   UNL d   1      33.057  20.158 -20.879  0.00  0.00    -0.531 OA
ENDBRANCH   1  28
BRANCH   4  31
ATOM     31  C   UNL d   1      32.747  23.448 -20.857  0.00  0.00     0.083 C 
ATOM     32  C   UNL d   1      32.120  23.575 -20.327  0.00  0.00     0.021 C 
ENDBRANCH   4  31
TORSDOF 5
ENDMDL
MODEL 2
REMARK VINA RESULT:      -0.3      1.567      5.571
REMARK  5 active torsions:
REMARK  status: ('A' for Active; 'I' for Inactive)
REMARK    1  A    between atoms: N_5  and  C_1 
REMARK    2  A    between atoms: N_8  and  C_2 
REMARK    3  A    between atoms: C_26  and  N_4 
REMARK    4  A    between atoms: C_22  and  N_9 
REMARK    5  A    between atoms: C_21  and  C_22 
ROOT
ATOM      1  C   UNL d   1      31.034  16.784 -24.477  0.00  0.00     0.199 A 
ATOM      2  C   UNL d   1      30.864  17.592 -24.371  0.00  0.00     0.092 A 
ATOM      3  C   UNL d   1      30.438  16.251 -24.676  0.00  0.00     0.288 A 
ATOM      4  N   UNL d   1      29.660  16.526 -24.771  0.00  0.00    -0.272 N 
ATOM      5  C   UNL d   1      30.083  17.859 -24.469  0.00  0.00     0.034 A 
ATOM      6  C   UNL d   1      29.483  17.325 -24.668  0.00  0.00     0.068 A 
ATOM      7  O   UNL d   1      30.614  15.453 -24.779  0.00  0.00    -0.265 OA
ATOM      8  C   UNL d   1      29.906  18.658 -24.366  0.00  0.00     0.003 A 
ATOM      9  C   UNL d   1      28.710  17.593 -24.764  0.00  0.00     0.018 A 
ATOM     10  C   UNL d   1      29.130  18.924 -24.462  0.00  0.00     0.000 A 
ATOM     11  C   UNL d   1      28.533  18.392 -24.661  0.00  0.00     0.002 A 
ENDROOT
BRANCH   2  12
ATOM     12  N   UNL d   1      31.451  18.123 -24.174  0.00  0.00    -0.300 N 
ATOM     13  C   UNL d   1      31.857  18.521 -24.771  0.00  0.00     0.100 A 
ATOM     14  C   UNL d   1      32.456  19.062 -24.579  0.00  0.00     0.100 A 
ATOM     15  N   UNL d   1      32.648  19.205 -23.789  0.00  0.00    -0.300 N 
ATOM     16  C   UNL d   1      32.240  18.805 -23.188  0.00  0.00     0.100 A 
ATOM     17  C   UNL d   1      31.646  18.268 -23.385  0.00  0.00     0.100 A 
BRANCH  15  18
ATOM     18  C   UNL d   1      33.241  19.741 -23.595  0.00  0.00     0.080 C 
BRANCH  18  19
ATOM     19  C   UNL d   1      33.097  20.329 -23.038  0.00  0.00     0.020 A 
ATOM     20  C   UNL d   1      33.118  20.149 -22.236  0.00  0.00     0.028 A 
ATOM     21  C   UNL d   1      32.974  20.738 -21.678  0.00  0.00     0.119 A 
ATOM     22  O   UNL d   1      32.958  20.725 -20.855  0.00  0.00    -0.300 OA
ATOM     23  C   UNL d   1      32.808  21.507 -21.924  0.00  0.00     0.119 A 
ATOM     24  C   UNL d   1      32.781  21.487 -20.589  0.00  0.00     0.304 A 
ATOM     25  O   UNL d   1      32.688  21.973 -21.250  0.00  0.00    -0.300 OA
ATOM     26  C   UNL d   1      32.786  21.687 -22.732  0.00  0.00     0.026 A 
ATOM     27  C   UNL d   1      32.931  21.097 -23.289  0.00  0.00     0.004 A 
ENDBRANCH  18  19
ENDBRANCH  15  18
ENDBRANCH   2  12
BRANCH   1  28
ATOM     28  N   UNL d   1      31.815  16.518 -24.379  0.00  0.00    -0.107 N 
ATOM     29  O   UNL d   1      32.066  16.245 -23.644  0.00  0.00    -0.531 OA
ATOM     30  O   UNL d   1      32.340  16.526 -25.019  0.00  0.00    -0.531 OA
ENDBRANCH   1  28
BRANCH   4  31
ATOM     31  C   UNL d   1      29.063  15.995 -24.970  0.00  0.00     0.083 C 
ATOM     32  C   UNL d   1      28.757  15.476 -24.398  0.00  0.00     0.021 C 
ENDBRANCH   4  31
TORSDOF 5
ENDMDL
MODEL 3
REMARK VINA RESULT:       0.7      1.413      5.623
REMARK  5 active torsions:
REMARK  status: ('A' for Active; 'I' for Inactive)
REMARK    1  A    between atoms: N_5  and  C_1 
REMARK    2  A    between atoms: N_8  and  C_2 
REMARK    3  A    between atoms: C_26  and  N_4 
REMARK    4  A    between atoms: C_22  and  N_9 
REMARK    5  A    between atoms: C_21  and  C_22 
ROOT
ATOM      1  C   UNL d   1      30.657  17.705 -24.389  0.00  0.00     0.199 A 
ATOM      2  C   UNL d   1      31.474  17.631 -24.244  0.00  0.00     0.092 A 
ATOM      3  C   UNL d   1      30.222  17.066 -24.672  0.00  0.00     0.288 A 
ATOM      4  N   UNL d   1      30.603  16.342 -24.814  0.00  0.00    -0.272 N 
ATOM      5  C   UNL d   1      31.848  16.903 -24.389  0.00  0.00     0.034 A 
ATOM      6  C   UNL d   1      31.412  16.261 -24.673  0.00  0.00     0.068 A 
ATOM      7  O   UNL d   1      29.414  17.147 -24.813  0.00  0.00    -0.265 OA
ATOM      8  C   UNL d   1      32.657  16.823 -24.248  0.00  0.00     0.003 A 
ATOM      9  C   UNL d   1      31.786  15.541 -24.816  0.00  0.00     0.018 A 
ATOM     10  C   UNL d   1      33.030  16.100 -24.392  0.00  0.00     0.000 A 
ATOM     11  C   UNL d   1      32.595  15.460 -24.675  0.00  0.00     0.002 A 
ENDROOT
BRANCH   2  12
ATOM     12  N   UNL d   1      31.910  18.262 -23.964  0.00  0.00    -0.300 N 
ATOM     13  C   UNL d   1      32.259  18.784 -24.497  0.00  0.00     0.100 A 
ATOM     14  C   UNL d   1      32.703  19.428 -24.220  0.00  0.00     0.100 A 
ATOM     15  N   UNL d   1      32.797  19.548 -23.409  0.00  0.00    -0.300 N 
ATOM     16  C   UNL d   1      32.447  19.023 -22.872  0.00  0.00     0.100 A 
ATOM     17  C   UNL d   1      32.006  18.385 -23.154  0.00  0.00     0.100 A 
BRANCH  15  18
ATOM     18  C   UNL d   1      33.237  20.185 -23.131  0.00  0.00     0.080 C 
BRANCH  18  19
ATOM     19  C   UNL d   1      33.004  20.577 -22.445  0.00  0.00     0.020 A 
ATOM     20  C   UNL d   1      32.925  21.396 -22.447  0.00  0.00     0.028 A 
ATOM     21  C   UNL d   1      32.692  21.788 -21.761  0.00  0.00     0.119 A 
ATOM     22  O   UNL d   1      32.568  22.585 -21.597  0.00  0.00    -0.300 OA
ATOM     23  C   UNL d   1      32.538  21.359 -21.073  0.00  0.00     0.119 A 
ATOM     24  C   UNL d   1      32.337  22.653 -20.807  0.00  0.00     0.304 A 
ATOM     25  O   UNL d   1      32.317  21.894 -20.480  0.00  0.00    -0.300 OA
ATOM     26  C   UNL d   1      32.617  20.536 -21.073  0.00  0.00     0.026 A 
ATOM     27  C   UNL d   1      32.851  20.144 -21.759  0.00  0.00     0.004 A 
ENDBRANCH  18  19
ENDBRANCH  15  18
ENDBRANCH   2  12
BRANCH   1  28
ATOM     28  N   UNL d   1      30.284  18.432 -24.244  0.00  0.00    -0.107 N 
ATOM     29  O   UNL d   1      30.226  18.991 -24.848  0.00  0.00    -0.531 OA
ATOM     30  O   UNL d   1      29.969  18.597 -23.497  0.00  0.00    -0.531 OA
ENDBRANCH   1  28
BRANCH   4  31
ATOM     31  C   UNL d   1      30.168  15.703 -25.097  0.00  0.00     0.083 C 
ATOM     32  C   UNL d   1      29.342  15.691 -25.017  0.00  0.00     0.021 C 
ENDBRANCH   4  31
TORSDOF 5
ENDMDL
