MODEL 1
REMARK VINA RESULT:      -5.0      0.000      0.000
REMARK  2 active torsions:
REMARK  status: ('A' for Active; 'I' for Inactive)
REMARK    1  A    between atoms: C_4  and  C_1 
REMARK    2  A    between atoms: N_2  and  C_9 
REMARK       I    between atoms: N_7  and  C_4 
ROOT
ATOM      1  C   UNL d   1     -41.607-122.318 -51.527  0.00  0.00     0.086 A 
ATOM      2  S   UNL d   1     -41.212-122.889 -51.919  0.00  0.00    -0.082 SA
ATOM      3  C   UNL d   1     -42.019-121.841 -52.042  0.00  0.00     0.012 A 
ATOM      4  C   UNL d   1     -41.877-122.126 -52.806  0.00  0.00     0.008 A 
ATOM      5  C   UNL d   1     -41.376-122.777 -52.730  0.00  0.00     0.030 A 
ATOM      6  C   UNL d   1     -41.885-122.298 -54.226  0.00  0.00     0.127 A 
ATOM      7  C   UNL d   1     -42.125-121.894 -53.545  0.00  0.00     0.024 A 
ATOM      8  C   UNL d   1     -41.123-123.196 -53.393  0.00  0.00     0.008 A 
ATOM      9  C   UNL d   1     -41.383-122.949 -54.150  0.00  0.00     0.024 A 
ENDROOT
BRANCH   1  10
ATOM     10  C   UNL d   1     -41.592-122.230 -50.686  0.00  0.00     0.271 C 
ATOM     11  N   UNL d   1     -42.031-122.722 -50.210  0.00  0.00    -0.272 N 
ATOM     12  C   UNL d   1     -42.495-123.313 -50.548  0.00  0.00     0.083 A 
ATOM     13  C   UNL d   1     -42.016-122.635 -49.379  0.00  0.00     0.083 A 
ATOM     14  C   UNL d   1     -42.944-123.817 -50.078  0.00  0.00     0.019 A 
ATOM     15  C   UNL d   1     -42.932-123.734 -49.257  0.00  0.00     0.003 A 
ATOM     16  C   UNL d   1     -42.468-123.142 -48.908  0.00  0.00     0.019 A 
ATOM     17  O   UNL d   1     -41.123-121.633 -50.361  0.00  0.00    -0.266 OA
ENDBRANCH   1  10
BRANCH   6  18
ATOM     18  N   UNL d   1     -42.145-122.053 -54.985  0.00  0.00    -0.114 N 
ATOM     19  O   UNL d   1     -41.584-121.933 -55.596  0.00  0.00    -0.532 OA
ATOM     20  O   UNL d   1     -42.942-121.931 -55.128  0.00  0.00    -0.532 OA
ENDBRANCH   6  18
TORSDOF 2
ENDMDL
MODEL 2
REMARK VINA RESULT:      -4.9      1.523      4.290
REMARK  2 active torsions:
REMARK  status: ('A' for Active; 'I' for Inactive)
REMARK    1  A    between atoms: C_4  and  C_1 
REMARK    2  A    between atoms: N_2  and  C_9 
REMARK       I    between atoms: N_7  and  C_4 
ROOT
ATOM      1  C   UNL d   1     -41.651-122.345 -51.574  0.00  0.00     0.086 A 
ATOM      2  S   UNL d   1     -41.123-122.807 -51.196  0.00  0.00    -0.082 SA
ATOM      3  C   UNL d   1     -42.318-122.233 -51.120  0.00  0.00     0.012 A 
ATOM      4  C   UNL d   1     -42.205-122.648 -50.413  0.00  0.00     0.008 A 
ATOM      5  C   UNL d   1     -41.462-123.004 -50.460  0.00  0.00     0.030 A 
ATOM      6  C   UNL d   1     -42.392-123.209 -49.110  0.00  0.00     0.127 A 
ATOM      7  C   UNL d   1     -42.659-122.751 -49.747  0.00  0.00     0.024 A 
ATOM      8  C   UNL d   1     -41.174-123.465 -49.840  0.00  0.00     0.008 A 
ATOM      9  C   UNL d   1     -41.650-123.566 -49.157  0.00  0.00     0.024 A 
ENDROOT
BRANCH   1  10
ATOM     10  C   UNL d   1     -41.525-122.021 -52.344  0.00  0.00     0.271 C 
ATOM     11  N   UNL d   1     -41.503-122.503 -52.999  0.00  0.00    -0.272 N 
ATOM     12  C   UNL d   1     -41.604-123.316 -52.912  0.00  0.00     0.083 A 
ATOM     13  C   UNL d   1     -41.378-122.182 -53.760  0.00  0.00     0.083 A 
ATOM     14  C   UNL d   1     -41.583-123.816 -53.566  0.00  0.00     0.019 A 
ATOM     15  C   UNL d   1     -41.461-123.502 -54.319  0.00  0.00     0.003 A 
ATOM     16  C   UNL d   1     -41.358-122.685 -54.415  0.00  0.00     0.019 A 
ATOM     17  O   UNL d   1     -41.425-121.204 -52.416  0.00  0.00    -0.266 OA
ENDBRANCH   1  10
BRANCH   6  18
ATOM     18  N   UNL d   1     -42.867-123.311 -48.426  0.00  0.00    -0.114 N 
ATOM     19  O   UNL d   1     -43.546-123.801 -48.464  0.00  0.00    -0.532 OA
ATOM     20  O   UNL d   1     -42.668-122.935 -47.727  0.00  0.00    -0.532 OA
ENDBRANCH   6  18
TORSDOF 2
ENDMDL
