MODEL 1
REMARK VINA RESULT:      18.0      0.000      0.000
REMARK  2 active torsions:
REMARK  status: ('A' for Active; 'I' for Inactive)
REMARK    1  A    between atoms: C_11  and  C_2 
REMARK    2  A    between atoms: C_9  and  C_6 
ROOT
ATOM      1  C   UNL d   1      45.000 -15.403  36.788  0.00  0.00     0.045 A 
ATOM      2  C   UNL d   1      44.320 -15.848  36.698  0.00  0.00     0.127 A 
ATOM      3  C   UNL d   1      45.119 -14.630  37.048  0.00  0.00     0.010 A 
ATOM      4  O   UNL d   1      44.529 -16.587  36.417  0.00  0.00    -0.211 OA
ATOM      5  N   UNL d   1      45.351 -16.607  36.330  0.00  0.00    -0.126 NA
ATOM      6  C   UNL d   1      45.883 -14.321  37.082  0.00  0.00     0.065 A 
ATOM      7  C   UNL d   1      45.645 -15.868  36.561  0.00  0.00     0.110 A 
ATOM      8  C   UNL d   1      46.528 -14.786  36.856  0.00  0.00     0.008 A 
ATOM      9  C   UNL d   1      46.409 -15.560  36.595  0.00  0.00     0.022 A 
ENDROOT
BRANCH   2  10
ATOM     10  C   UNL d   1      43.545 -15.600  36.860  0.00  0.00     0.025 A 
ATOM     11  C   UNL d   1      42.938 -15.798  36.334  0.00  0.00     0.002 A 
ATOM     12  C   UNL d   1      42.162 -15.555  36.489  0.00  0.00     0.000 A 
ATOM     13  C   UNL d   1      41.997 -15.114  37.171  0.00  0.00     0.000 A 
ATOM     14  C   UNL d   1      42.608 -14.919  37.695  0.00  0.00     0.000 A 
ATOM     15  C   UNL d   1      43.380 -15.162  37.539  0.00  0.00     0.002 A 
ENDBRANCH   2  10
BRANCH   6  16
ATOM     16  C   UNL d   1      46.003 -13.547  37.342  0.00  0.00     0.211 C 
ATOM     17  O   UNL d   1      45.640 -13.279  38.035  0.00  0.00    -0.644 OA
ATOM     18  O   UNL d   1      46.491 -13.041  36.902  0.00  0.00    -0.644 OA
ENDBRANCH   6  16
TORSDOF 2
ENDMDL
MODEL 2
REMARK VINA RESULT:      19.0      1.371      3.166
REMARK  2 active torsions:
REMARK  status: ('A' for Active; 'I' for Inactive)
REMARK    1  A    between atoms: C_11  and  C_2 
REMARK    2  A    between atoms: C_9  and  C_6 
ROOT
ATOM      1  C   UNL d   1      44.047 -15.830  36.653  0.00  0.00     0.045 A 
ATOM      2  C   UNL d   1      44.864 -15.825  36.677  0.00  0.00     0.127 A 
ATOM      3  C   UNL d   1      43.490 -15.240  36.800  0.00  0.00     0.010 A 
ATOM      4  O   UNL d   1      45.134 -16.572  36.480  0.00  0.00    -0.211 OA
ATOM      5  N   UNL d   1      44.478 -17.052  36.331  0.00  0.00    -0.126 NA
ATOM      6  C   UNL d   1      42.685 -15.409  36.732  0.00  0.00     0.065 A 
ATOM      7  C   UNL d   1      43.800 -16.590  36.439  0.00  0.00     0.110 A 
ATOM      8  C   UNL d   1      42.438 -16.169  36.518  0.00  0.00     0.008 A 
ATOM      9  C   UNL d   1      42.995 -16.759  36.372  0.00  0.00     0.022 A 
ENDROOT
BRANCH   2  10
ATOM     10  C   UNL d   1      45.347 -15.176  36.867  0.00  0.00     0.025 A 
ATOM     11  C   UNL d   1      46.092 -15.111  36.515  0.00  0.00     0.002 A 
ATOM     12  C   UNL d   1      46.579 -14.468  36.699  0.00  0.00     0.000 A 
ATOM     13  C   UNL d   1      46.318 -13.892  37.235  0.00  0.00     0.000 A 
ATOM     14  C   UNL d   1      45.570 -13.962  37.584  0.00  0.00     0.000 A 
ATOM     15  C   UNL d   1      45.086 -14.604  37.400  0.00  0.00     0.002 A 
ENDBRANCH   2  10
BRANCH   6  16
ATOM     16  C   UNL d   1      42.127 -14.819  36.879  0.00  0.00     0.211 C 
ATOM     17  O   UNL d   1      41.527 -14.667  36.331  0.00  0.00    -0.644 OA
ATOM     18  O   UNL d   1      42.174 -14.380  37.581  0.00  0.00    -0.644 OA
ENDBRANCH   6  16
TORSDOF 2
ENDMDL
MODEL 3
REMARK VINA RESULT:      20.2      6.755      7.576
REMARK  2 active torsions:
REMARK  status: ('A' for Active; 'I' for Inactive)
REMARK    1  A    between atoms: C_11  and  C_2 
REMARK    2  A    between atoms: C_9  and  C_6 
ROOT
ATOM      1  C   UNL d   1      44.698 -13.345  43.896  0.00  0.00     0.045 A 
ATOM      2  C   UNL d   1      44.648 -13.925  44.469  0.00  0.00     0.127 A 
ATOM      3  C   UNL d   1      45.283 -13.169  43.342  0.00  0.00     0.010 A 
ATOM      4  O   UNL d   1      43.937 -13.838  44.865  0.00  0.00    -0.211 OA
ATOM      5  N   UNL d   1      43.535 -13.195  44.535  0.00  0.00    -0.126 NA
ATOM      6  C   UNL d   1      45.180 -12.537  42.822  0.00  0.00     0.065 A 
ATOM      7  C   UNL d   1      44.010 -12.888  43.931  0.00  0.00     0.110 A 
ATOM      8  C   UNL d   1      44.492 -12.080  42.856  0.00  0.00     0.008 A 
ATOM      9  C   UNL d   1      43.907 -12.255  43.411  0.00  0.00     0.022 A 
ENDROOT
BRANCH   2  10
ATOM     10  C   UNL d   1      45.217 -14.507  44.631  0.00  0.00     0.025 A 
ATOM     11  C   UNL d   1      44.993 -15.303  44.630  0.00  0.00     0.002 A 
ATOM     12  C   UNL d   1      45.554 -15.890  44.790  0.00  0.00     0.000 A 
ATOM     13  C   UNL d   1      46.339 -15.677  44.952  0.00  0.00     0.000 A 
ATOM     14  C   UNL d   1      46.558 -14.878  44.952  0.00  0.00     0.000 A 
ATOM     15  C   UNL d   1      45.998 -14.295  44.792  0.00  0.00     0.002 A 
ENDBRANCH   2  10
BRANCH   6  16
ATOM     16  C   UNL d   1      45.765 -12.362  42.267  0.00  0.00     0.211 C 
ATOM     17  O   UNL d   1      45.619 -12.464  41.460  0.00  0.00    -0.644 OA
ATOM     18  O   UNL d   1      46.501 -12.082  42.527  0.00  0.00    -0.644 OA
ENDBRANCH   6  16
TORSDOF 2
ENDMDL
