MODEL 1
REMARK VINA RESULT:      -3.2      0.000      0.000
REMARK  3 active torsions:
REMARK  status: ('A' for Active; 'I' for Inactive)
REMARK       I    between atoms: C_2  and  N_1 
REMARK    1  A    between atoms: C_6  and  C_2 
REMARK    2  A    between atoms: O_14  and  C_9 
REMARK    3  A    between atoms: O_16  and  C_11 
ROOT
ATOM      1  C   UNL d   1     -41.738-122.336 -51.335  0.00  0.00     0.060 A 
ATOM      2  C   UNL d   1     -42.508-122.354 -51.047  0.00  0.00     0.031 A 
ATOM      3  C   UNL d   1     -42.672-122.696 -50.318  0.00  0.00     0.116 A 
ATOM      4  C   UNL d   1     -42.057-123.025 -49.870  0.00  0.00     0.116 A 
ATOM      5  C   UNL d   1     -41.123-122.665 -50.887  0.00  0.00     0.007 A 
ATOM      6  C   UNL d   1     -41.284-123.009 -50.155  0.00  0.00     0.026 A 
ENDROOT
BRANCH   1   7
ATOM      7  C   UNL d   1     -41.578-121.993 -52.065  0.00  0.00     0.280 C 
ATOM      8  N   UNL d   1     -41.486-122.469 -52.728  0.00  0.00    -0.195 N 
ATOM      9  N   UNL d   1     -41.324-122.205 -53.500  0.00  0.00    -0.163 NA
ATOM     10  C   UNL d   1     -41.538-123.289 -52.748  0.00  0.00     0.088 A 
ATOM     11  C   UNL d   1     -41.276-122.865 -53.993  0.00  0.00     0.103 A 
ATOM     12  C   UNL d   1     -41.123-122.856 -54.806  0.00  0.00     0.022 C 
ATOM     13  C   UNL d   1     -41.408-123.535 -53.533  0.00  0.00     0.040 A 
ATOM     14  C   UNL d   1     -41.692-123.784 -52.103  0.00  0.00     0.021 C 
ATOM     15  O   UNL d   1     -41.510-121.173 -52.131  0.00  0.00    -0.265 OA
ENDBRANCH   1   7
BRANCH   3  16
ATOM     16  O   UNL d   1     -43.443-122.713 -50.034  0.00  0.00    -0.326 OA
ATOM     17  C   UNL d   1     -44.020-122.232 -50.376  0.00  0.00     0.181 C 
ENDBRANCH   3  16
BRANCH   4  18
ATOM     18  O   UNL d   1     -42.219-123.367 -49.141  0.00  0.00    -0.326 OA
ATOM     19  C   UNL d   1     -41.608-123.656 -48.672  0.00  0.00     0.181 C 
ENDBRANCH   4  18
TORSDOF 3
ENDMDL
MODEL 2
REMARK VINA RESULT:      -1.9      1.511      3.577
REMARK  3 active torsions:
REMARK  status: ('A' for Active; 'I' for Inactive)
REMARK       I    between atoms: C_2  and  N_1 
REMARK    1  A    between atoms: C_6  and  C_2 
REMARK    2  A    between atoms: O_14  and  C_9 
REMARK    3  A    between atoms: O_16  and  C_11 
ROOT
ATOM      1  C   UNL d   1     -41.557-122.346 -52.440  0.00  0.00     0.060 A 
ATOM      2  C   UNL d   1     -42.063-122.031 -53.006  0.00  0.00     0.031 A 
ATOM      3  C   UNL d   1     -42.141-122.390 -53.741  0.00  0.00     0.116 A 
ATOM      4  C   UNL d   1     -41.707-123.075 -53.913  0.00  0.00     0.116 A 
ATOM      5  C   UNL d   1     -41.123-123.031 -52.612  0.00  0.00     0.007 A 
ATOM      6  C   UNL d   1     -41.198-123.394 -53.348  0.00  0.00     0.026 A 
ENDROOT
BRANCH   1   7
ATOM      7  C   UNL d   1     -41.482-121.983 -51.706  0.00  0.00     0.280 C 
ATOM      8  N   UNL d   1     -41.755-122.366 -51.032  0.00  0.00    -0.195 N 
ATOM      9  N   UNL d   1     -41.718-122.072 -50.255  0.00  0.00    -0.163 NA
ATOM     10  C   UNL d   1     -42.112-123.106 -51.004  0.00  0.00     0.088 A 
ATOM     11  C   UNL d   1     -42.053-122.634 -49.751  0.00  0.00     0.103 A 
ATOM     12  C   UNL d   1     -42.131-122.566 -48.930  0.00  0.00     0.022 C 
ATOM     13  C   UNL d   1     -42.297-123.272 -50.210  0.00  0.00     0.040 A 
ATOM     14  C   UNL d   1     -42.261-123.600 -51.651  0.00  0.00     0.021 C 
ATOM     15  O   UNL d   1     -41.134-121.238 -51.647  0.00  0.00    -0.265 OA
ENDBRANCH   1   7
BRANCH   3  16
ATOM     16  O   UNL d   1     -42.649-122.072 -54.305  0.00  0.00    -0.326 OA
ATOM     17  C   UNL d   1     -42.486-121.334 -54.636  0.00  0.00     0.181 C 
ENDBRANCH   3  16
BRANCH   4  18
ATOM     18  O   UNL d   1     -41.784-123.435 -54.647  0.00  0.00    -0.326 OA
ATOM     19  C   UNL d   1     -41.141-123.817 -54.992  0.00  0.00     0.181 C 
ENDBRANCH   4  18
TORSDOF 3
ENDMDL
MODEL 3
REMARK VINA RESULT:      -1.5      1.702      3.715
REMARK  3 active torsions:
REMARK  status: ('A' for Active; 'I' for Inactive)
REMARK       I    between atoms: C_2  and  N_1 
REMARK    1  A    between atoms: C_6  and  C_2 
REMARK    2  A    between atoms: O_14  and  C_9 
REMARK    3  A    between atoms: O_16  and  C_11 
ROOT
ATOM      1  C   UNL d   1     -41.540-122.672 -50.445  0.00  0.00     0.060 A 
ATOM      2  C   UNL d   1     -41.598-121.993 -50.906  0.00  0.00     0.031 A 
ATOM      3  C   UNL d   1     -41.500-122.032 -51.720  0.00  0.00     0.116 A 
ATOM      4  C   UNL d   1     -41.341-122.761 -52.081  0.00  0.00     0.116 A 
ATOM      5  C   UNL d   1     -41.382-123.401 -50.806  0.00  0.00     0.007 A 
ATOM      6  C   UNL d   1     -41.283-123.444 -51.624  0.00  0.00     0.026 A 
ENDROOT
BRANCH   1   7
ATOM      7  C   UNL d   1     -41.639-122.628 -49.631  0.00  0.00     0.280 C 
ATOM      8  N   UNL d   1     -42.252-123.039 -49.271  0.00  0.00    -0.195 N 
ATOM      9  N   UNL d   1     -42.422-123.049 -48.457  0.00  0.00    -0.163 NA
ATOM     10  C   UNL d   1     -42.807-123.513 -49.650  0.00  0.00     0.088 A 
ATOM     11  C   UNL d   1     -43.083-123.530 -48.339  0.00  0.00     0.103 A 
ATOM     12  C   UNL d   1     -43.441-123.695 -47.611  0.00  0.00     0.022 C 
ATOM     13  C   UNL d   1     -43.323-123.817 -49.072  0.00  0.00     0.040 A 
ATOM     14  C   UNL d   1     -42.848-123.661 -50.464  0.00  0.00     0.021 C 
ATOM     15  O   UNL d   1     -41.123-122.172 -49.176  0.00  0.00    -0.265 OA
ENDBRANCH   1   7
BRANCH   3  16
ATOM     16  O   UNL d   1     -41.558-121.350 -52.177  0.00  0.00    -0.326 OA
ATOM     17  C   UNL d   1     -41.253-120.637 -51.895  0.00  0.00     0.181 C 
ENDBRANCH   3  16
BRANCH   4  18
ATOM     18  O   UNL d   1     -41.243-122.802 -52.896  0.00  0.00    -0.326 OA
ATOM     19  C   UNL d   1     -41.226-123.532 -53.277  0.00  0.00     0.181 C 
ENDBRANCH   4  18
TORSDOF 3
ENDMDL
MODEL 4
REMARK VINA RESULT:      -1.2      1.443      2.036
REMARK  3 active torsions:
REMARK  status: ('A' for Active; 'I' for Inactive)
REMARK       I    between atoms: C_2  and  N_1 
REMARK    1  A    between atoms: C_6  and  C_2 
REMARK    2  A    between atoms: O_14  and  C_9 
REMARK    3  A    between atoms: O_16  and  C_11 
ROOT
ATOM      1  C   UNL d   1     -41.490-122.853 -52.781  0.00  0.00     0.060 A 
ATOM      2  C   UNL d   1     -41.794-123.344 -52.196  0.00  0.00     0.031 A 
ATOM      3  C   UNL d   1     -41.770-123.117 -51.407  0.00  0.00     0.116 A 
ATOM      4  C   UNL d   1     -41.437-122.387 -51.198  0.00  0.00     0.116 A 
ATOM      5  C   UNL d   1     -41.157-122.123 -52.572  0.00  0.00     0.007 A 
ATOM      6  C   UNL d   1     -41.131-121.891 -51.781  0.00  0.00     0.026 A 
ENDROOT
BRANCH   1   7
ATOM      7  C   UNL d   1     -41.516-123.084 -53.569  0.00  0.00     0.280 C 
ATOM      8  N   UNL d   1     -41.850-122.585 -54.130  0.00  0.00    -0.195 N 
ATOM      9  N   UNL d   1     -41.916-122.741 -54.944  0.00  0.00    -0.163 NA
ATOM     10  C   UNL d   1     -42.177-121.844 -53.988  0.00  0.00     0.088 A 
ATOM     11  C   UNL d   1     -42.285-122.094 -55.300  0.00  0.00     0.103 A 
ATOM     12  C   UNL d   1     -42.461-122.016 -56.105  0.00  0.00     0.022 C 
ATOM     13  C   UNL d   1     -42.447-121.539 -54.714  0.00  0.00     0.040 A 
ATOM     14  C   UNL d   1     -42.230-121.467 -53.253  0.00  0.00     0.021 C 
ATOM     15  O   UNL d   1     -41.207-123.814 -53.796  0.00  0.00    -0.265 OA
ENDBRANCH   1   7
BRANCH   3  16
ATOM     16  O   UNL d   1     -42.076-123.611 -50.825  0.00  0.00    -0.326 OA
ATOM     17  C   UNL d   1     -42.875-123.817 -50.836  0.00  0.00     0.181 C 
ENDBRANCH   3  16
BRANCH   4  18
ATOM     18  O   UNL d   1     -41.413-122.158 -50.410  0.00  0.00    -0.326 OA
ATOM     19  C   UNL d   1     -41.143-121.409 -50.202  0.00  0.00     0.181 C 
ENDBRANCH   4  18
TORSDOF 3
ENDMDL
