MODEL 1
REMARK VINA RESULT:      54.7      0.000      0.000
REMARK  4 active torsions:
REMARK  status: ('A' for Active; 'I' for Inactive)
REMARK    1  A    between atoms: C_3  and  C_14 
REMARK    2  A    between atoms: C_21  and  C_4 
REMARK    3  A    between atoms: S_15  and  C_5 
REMARK    4  A    between atoms: C_14  and  S_15 
ROOT
ATOM      1  C   UNL d   1     -57.519 -98.935 -44.006  0.00  0.00     0.092 A 
ATOM      2  C   UNL d   1     -58.591 -98.937 -44.942  0.00  0.00     0.057 A 
ATOM      3  C   UNL d   1     -58.325 -98.983 -44.165  0.00  0.00     0.016 A 
ATOM      4  C   UNL d   1     -56.980 -98.841 -44.626  0.00  0.00     0.120 A 
ATOM      5  N   UNL d   1     -57.239 -98.795 -45.397  0.00  0.00    -0.239 NA
ATOM      6  C   UNL d   1     -58.052 -98.844 -45.561  0.00  0.00     0.081 A 
ATOM      7  C   UNL d   1     -59.401 -98.985 -45.104  0.00  0.00     0.193 A 
ATOM      8  C   UNL d   1     -57.250 -98.980 -43.227  0.00  0.00     0.103 C 
ATOM      9  N   UNL d   1     -56.981 -99.026 -42.448  0.00  0.00    -0.191 NA
ATOM     10  C   UNL d   1     -59.127 -98.845 -46.508  0.00  0.00     0.042 A 
ATOM     11  C   UNL d   1     -59.678 -98.940 -45.886  0.00  0.00     0.019 A 
ATOM     12  C   UNL d   1     -58.315 -98.797 -46.350  0.00  0.00    -0.003 A 
ATOM     13  O   UNL d   1     -59.940 -99.079 -44.483  0.00  0.00    -0.287 OA
ATOM     14  C   UNL d   1     -58.778 -98.756 -47.247  0.00  0.00     0.009 C 
ATOM     15  C   UNL d   1     -59.938 -98.894 -46.661  0.00  0.00     0.009 C 
ENDROOT
BRANCH   3  16
ATOM     16  C   UNL d   1     -58.864 -99.076 -43.546  0.00  0.00     0.001 C 
ATOM     17  C   UNL d   1     -58.686 -98.764 -42.810  0.00  0.00     0.000 C 
ENDBRANCH   3  16
BRANCH   4  18
ATOM     18  S   UNL d   1     -56.172 -98.794 -44.461  0.00  0.00    -0.067 SA
BRANCH  18  19
ATOM     19  C   UNL d   1     -55.649 -99.312 -44.832  0.00  0.00     0.041 C 
BRANCH  19  20
ATOM     20  C   UNL d   1     -55.308 -99.931 -44.407  0.00  0.00     0.051 A 
ATOM     21  C   UNL d   1     -55.176-100.634 -44.616  0.00  0.00     0.127 A 
ATOM     22  O   UNL d   1     -54.830-101.118 -44.073  0.00  0.00    -0.211 OA
ATOM     23  C   UNL d   1     -55.190-101.199 -45.108  0.00  0.00     0.029 C 
ATOM     24  N   UNL d   1     -54.741-100.620 -43.434  0.00  0.00    -0.126 NA
ATOM     25  C   UNL d   1     -55.034 -99.886 -43.635  0.00  0.00     0.111 A 
ATOM     26  C   UNL d   1     -55.054 -99.222 -43.155  0.00  0.00     0.023 C 
ENDBRANCH  19  20
ENDBRANCH  18  19
ENDBRANCH   4  18
TORSDOF 4
ENDMDL
