MODEL 1
REMARK VINA RESULT:      -2.8      0.000      0.000
REMARK  3 active torsions:
REMARK  status: ('A' for Active; 'I' for Inactive)
REMARK    1  A    between atoms: C_8  and  N_2 
REMARK    2  A    between atoms: C_6  and  C_3 
REMARK    3  A    between atoms: C_7  and  C_4 
ROOT
ATOM      1  N   UNL d   1      30.415  17.702 -24.350  0.00  0.00    -0.159 NA
ATOM      2  N   UNL d   1      31.178  17.376 -24.288  0.00  0.00    -0.234 N 
ATOM      3  C   UNL d   1      29.884  17.093 -24.373  0.00  0.00     0.167 A 
ATOM      4  C   UNL d   1      31.103  16.567 -24.273  0.00  0.00     0.062 A 
ATOM      5  C   UNL d   1      30.302  16.382 -24.326  0.00  0.00     0.042 A 
ENDROOT
BRANCH   2   6
ATOM      6  C   UNL d   1      31.862  17.835 -24.250  0.00  0.00     0.083 A 
ATOM      7  C   UNL d   1      32.177  18.053 -23.527  0.00  0.00     0.019 A 
ATOM      8  C   UNL d   1      32.855  18.508 -23.497  0.00  0.00     0.002 A 
ATOM      9  C   UNL d   1      33.223  18.747 -24.184  0.00  0.00     0.000 A 
ATOM     10  C   UNL d   1      32.908  18.528 -24.907  0.00  0.00     0.002 A 
ATOM     11  C   UNL d   1      32.224  18.069 -24.944  0.00  0.00     0.019 A 
ENDBRANCH   2   6
BRANCH   4  12
ATOM     12  C   UNL d   1      31.721  16.010 -24.216  0.00  0.00     0.036 C 
ATOM     13  C   UNL d   1      32.339  15.454 -24.159  0.00  0.00     0.006 C 
ATOM     14  C   UNL d   1      31.776  15.986 -25.048  0.00  0.00     0.006 C 
ATOM     15  C   UNL d   1      31.663  16.037 -23.385  0.00  0.00     0.006 C 
ENDBRANCH   4  12
BRANCH   3  16
ATOM     16  C   UNL d   1      29.061  17.169 -24.434  0.00  0.00     0.231 C 
ATOM     17  O   UNL d   1      28.571  16.797 -23.884  0.00  0.00    -0.643 OA
ATOM     18  O   UNL d   1      28.741  17.617 -25.044  0.00  0.00    -0.643 OA
ENDBRANCH   3  16
TORSDOF 3
ENDMDL
MODEL 2
REMARK VINA RESULT:      -2.6      2.027      3.099
REMARK  3 active torsions:
REMARK  status: ('A' for Active; 'I' for Inactive)
REMARK    1  A    between atoms: C_8  and  N_2 
REMARK    2  A    between atoms: C_6  and  C_3 
REMARK    3  A    between atoms: C_7  and  C_4 
ROOT
ATOM      1  N   UNL d   1      32.000  17.797 -23.239  0.00  0.00    -0.159 NA
ATOM      2  N   UNL d   1      31.969  17.056 -23.616  0.00  0.00    -0.234 N 
ATOM      3  C   UNL d   1      32.771  18.036 -23.221  0.00  0.00     0.167 A 
ATOM      4  C   UNL d   1      32.727  16.851 -23.826  0.00  0.00     0.062 A 
ATOM      5  C   UNL d   1      33.233  17.455 -23.584  0.00  0.00     0.042 A 
ENDROOT
BRANCH   2   6
ATOM      6  C   UNL d   1      31.267  16.639 -23.734  0.00  0.00     0.083 A 
ATOM      7  C   UNL d   1      31.032  16.062 -23.204  0.00  0.00     0.019 A 
ATOM      8  C   UNL d   1      30.335  15.653 -23.327  0.00  0.00     0.002 A 
ATOM      9  C   UNL d   1      29.871  15.816 -23.977  0.00  0.00     0.000 A 
ATOM     10  C   UNL d   1      30.106  16.392 -24.507  0.00  0.00     0.002 A 
ATOM     11  C   UNL d   1      30.808  16.809 -24.388  0.00  0.00     0.019 A 
ENDBRANCH   2   6
BRANCH   4  12
ATOM     12  C   UNL d   1      32.965  16.154 -24.218  0.00  0.00     0.036 C 
ATOM     13  C   UNL d   1      33.202  15.458 -24.608  0.00  0.00     0.006 C 
ATOM     14  C   UNL d   1      33.067  15.776 -23.482  0.00  0.00     0.006 C 
ATOM     15  C   UNL d   1      32.862  16.536 -24.951  0.00  0.00     0.006 C 
ENDBRANCH   4  12
BRANCH   3  16
ATOM     16  C   UNL d   1      33.052  18.745 -22.895  0.00  0.00     0.231 C 
ATOM     17  O   UNL d   1      33.241  18.784 -22.093  0.00  0.00    -0.643 OA
ATOM     18  O   UNL d   1      33.140  19.404 -23.377  0.00  0.00    -0.643 OA
ENDBRANCH   3  16
TORSDOF 3
ENDMDL
MODEL 3
REMARK VINA RESULT:      -1.9      0.728      2.137
REMARK  3 active torsions:
REMARK  status: ('A' for Active; 'I' for Inactive)
REMARK    1  A    between atoms: C_8  and  N_2 
REMARK    2  A    between atoms: C_6  and  C_3 
REMARK    3  A    between atoms: C_7  and  C_4 
ROOT
ATOM      1  N   UNL d   1      30.503  16.502 -24.093  0.00  0.00    -0.159 NA
ATOM      2  N   UNL d   1      31.276  16.810 -24.059  0.00  0.00    -0.234 N 
ATOM      3  C   UNL d   1      30.005  17.101 -24.309  0.00  0.00     0.167 A 
ATOM      4  C   UNL d   1      31.240  17.597 -24.256  0.00  0.00     0.062 A 
ATOM      5  C   UNL d   1      30.453  17.787 -24.414  0.00  0.00     0.042 A 
ENDROOT
BRANCH   2   6
ATOM      6  C   UNL d   1      31.933  16.355 -23.855  0.00  0.00     0.083 A 
ATOM      7  C   UNL d   1      32.361  15.962 -24.432  0.00  0.00     0.019 A 
ATOM      8  C   UNL d   1      33.011  15.513 -24.223  0.00  0.00     0.002 A 
ATOM      9  C   UNL d   1      33.237  15.453 -23.442  0.00  0.00     0.000 A 
ATOM     10  C   UNL d   1      32.809  15.845 -22.866  0.00  0.00     0.002 A 
ATOM     11  C   UNL d   1      32.152  16.300 -23.071  0.00  0.00     0.019 A 
ENDBRANCH   2   6
BRANCH   4  12
ATOM     12  C   UNL d   1      31.880  18.131 -24.296  0.00  0.00     0.036 C 
ATOM     13  C   UNL d   1      32.519  18.664 -24.334  0.00  0.00     0.006 C 
ATOM     14  C   UNL d   1      31.759  18.333 -23.496  0.00  0.00     0.006 C 
ATOM     15  C   UNL d   1      31.996  17.925 -25.095  0.00  0.00     0.006 C 
ENDBRANCH   4  12
BRANCH   3  16
ATOM     16  C   UNL d   1      29.185  17.038 -24.410  0.00  0.00     0.231 C 
ATOM     17  O   UNL d   1      28.674  17.341 -23.837  0.00  0.00    -0.643 OA
ATOM     18  O   UNL d   1      28.888  16.672 -25.083  0.00  0.00    -0.643 OA
ENDBRANCH   3  16
TORSDOF 3
ENDMDL
