MODEL 1
REMARK VINA RESULT:      -5.6      0.000      0.000
REMARK  7 active torsions:
REMARK  status: ('A' for Active; 'I' for Inactive)
REMARK    1  A    between atoms: C_3  and  C_1 
REMARK    2  A    between atoms: C_6  and  C_1 
REMARK    3  A    between atoms: C_2  and  C_3 
REMARK       I    between atoms: N_4  and  C_2 
REMARK    4  A    between atoms: C_12  and  N_4 
REMARK    5  A    between atoms: N_7  and  C_5 
REMARK    6  A    between atoms: C_16  and  N_7 
REMARK    7  A    between atoms: C_17  and  N_7 
ROOT
ATOM      1  C   UNL d   1     -40.659  15.341  18.170  0.00  0.00     0.279 C 
ATOM      2  N   UNL d   1     -40.876  15.683  18.885  0.00  0.00    -0.208 NA
ATOM      3  O   UNL d   1     -41.083  15.535  17.484  0.00  0.00    -0.265 OA
ENDROOT
BRANCH   2   4
ATOM      4  C   UNL d   1     -40.457  15.491  19.563  0.00  0.00     0.085 A 
ATOM      5  C   UNL d   1     -40.710  14.863  20.037  0.00  0.00     0.021 A 
ATOM      6  C   UNL d   1     -40.286  14.669  20.723  0.00  0.00     0.019 A 
ATOM      7  C   UNL d   1     -39.619  15.093  20.934  0.00  0.00     0.064 A 
ATOM      8  C   UNL d   1     -39.365  15.727  20.453  0.00  0.00     0.019 A 
ATOM      9  C   UNL d   1     -39.790  15.921  19.767  0.00  0.00     0.021 A 
BRANCH   7  10
ATOM     10  N   UNL d   1     -39.202  14.902  21.609  0.00  0.00    -0.304 N 
BRANCH  10  11
ATOM     11  C   UNL d   1     -38.918  15.510  22.104  0.00  0.00     0.080 C 
ATOM     12  C   UNL d   1     -38.925  15.406  22.929  0.00  0.00     0.021 C 
ENDBRANCH  10  11
BRANCH  10  13
ATOM     13  C   UNL d   1     -39.062  14.122  21.801  0.00  0.00     0.080 C 
ATOM     14  C   UNL d   1     -38.290  13.869  21.924  0.00  0.00     0.021 C 
ENDBRANCH  10  13
ENDBRANCH   7  10
ENDBRANCH   2   4
BRANCH   1  15
ATOM     15  C   UNL d   1     -40.035  14.814  18.119  0.00  0.00     0.063 C 
BRANCH  15  16
ATOM     16  C   UNL d   1     -39.743  14.587  17.381  0.00  0.00     0.006 C 
BRANCH  16  17
ATOM     17  C   UNL d   1     -39.176  13.993  17.321  0.00  0.00     0.011 A 
ATOM     18  C   UNL d   1     -38.513  14.087  16.856  0.00  0.00     0.058 A 
ATOM     19 CL   UNL d   1     -38.412  14.775  16.447  0.00  0.00    -0.082 Cl
ATOM     20  C   UNL d   1     -37.940  13.486  16.796  0.00  0.00     0.011 A 
ATOM     21  C   UNL d   1     -38.030  12.792  17.200  0.00  0.00     0.001 A 
ATOM     22  C   UNL d   1     -38.704  12.691  17.676  0.00  0.00     0.000 A 
ATOM     23  C   UNL d   1     -39.266  13.279  17.736  0.00  0.00     0.001 A 
ENDBRANCH  16  17
ENDBRANCH  15  16
ENDBRANCH   1  15
TORSDOF 7
ENDMDL
MODEL 2
REMARK VINA RESULT:      -5.6      8.477      9.841
REMARK  7 active torsions:
REMARK  status: ('A' for Active; 'I' for Inactive)
REMARK    1  A    between atoms: C_3  and  C_1 
REMARK    2  A    between atoms: C_6  and  C_1 
REMARK    3  A    between atoms: C_2  and  C_3 
REMARK       I    between atoms: N_4  and  C_2 
REMARK    4  A    between atoms: C_12  and  N_4 
REMARK    5  A    between atoms: N_7  and  C_5 
REMARK    6  A    between atoms: C_16  and  N_7 
REMARK    7  A    between atoms: C_17  and  N_7 
ROOT
ATOM      1  C   UNL d   1     -48.032  14.818  22.570  0.00  0.00     0.279 C 
ATOM      2  N   UNL d   1     -47.213  14.754  22.591  0.00  0.00    -0.208 NA
ATOM      3  O   UNL d   1     -48.375  15.557  22.416  0.00  0.00    -0.265 OA
ENDROOT
BRANCH   2   4
ATOM      4  C   UNL d   1     -46.873  14.024  22.744  0.00  0.00     0.085 A 
ATOM      5  C   UNL d   1     -46.633  13.545  22.115  0.00  0.00     0.021 A 
ATOM      6  C   UNL d   1     -46.289  12.805  22.270  0.00  0.00     0.019 A 
ATOM      7  C   UNL d   1     -46.187  12.547  23.038  0.00  0.00     0.064 A 
ATOM      8  C   UNL d   1     -46.431  13.033  23.672  0.00  0.00     0.019 A 
ATOM      9  C   UNL d   1     -46.775  13.772  23.518  0.00  0.00     0.021 A 
BRANCH   7  10
ATOM     10  N   UNL d   1     -45.849  11.820  23.190  0.00  0.00    -0.304 N 
BRANCH  10  11
ATOM     11  C   UNL d   1     -45.056  11.679  22.975  0.00  0.00     0.080 C 
ATOM     12  C   UNL d   1     -44.617  11.097  23.375  0.00  0.00     0.021 C 
ENDBRANCH  10  11
BRANCH  10  13
ATOM     13  C   UNL d   1     -46.283  11.230  23.552  0.00  0.00     0.080 C 
ATOM     14  C   UNL d   1     -45.947  10.488  23.656  0.00  0.00     0.021 C 
ENDBRANCH  10  13
ENDBRANCH   7  10
ENDBRANCH   2   4
BRANCH   1  15
ATOM     15  C   UNL d   1     -48.515  14.172  22.697  0.00  0.00     0.063 C 
BRANCH  15  16
ATOM     16  C   UNL d   1     -49.332  14.237  22.595  0.00  0.00     0.006 C 
BRANCH  16  17
ATOM     17  C   UNL d   1     -49.825  13.596  22.747  0.00  0.00     0.011 A 
ATOM     18  C   UNL d   1     -50.239  13.229  22.148  0.00  0.00     0.058 A 
ATOM     19 CL   UNL d   1     -50.163  13.501  21.392  0.00  0.00    -0.082 Cl
ATOM     20  C   UNL d   1     -50.737  12.580  22.302  0.00  0.00     0.011 A 
ATOM     21  C   UNL d   1     -50.822  12.298  23.055  0.00  0.00     0.001 A 
ATOM     22  C   UNL d   1     -50.402  12.668  23.670  0.00  0.00     0.000 A 
ATOM     23  C   UNL d   1     -49.913  13.304  23.519  0.00  0.00     0.001 A 
ENDBRANCH  16  17
ENDBRANCH  15  16
ENDBRANCH   1  15
TORSDOF 7
ENDMDL
MODEL 3
REMARK VINA RESULT:      -5.3      1.687      4.129
REMARK  7 active torsions:
REMARK  status: ('A' for Active; 'I' for Inactive)
REMARK    1  A    between atoms: C_3  and  C_1 
REMARK    2  A    between atoms: C_6  and  C_1 
REMARK    3  A    between atoms: C_2  and  C_3 
REMARK       I    between atoms: N_4  and  C_2 
REMARK    4  A    between atoms: C_12  and  N_4 
REMARK    5  A    between atoms: N_7  and  C_5 
REMARK    6  A    between atoms: C_16  and  N_7 
REMARK    7  A    between atoms: C_17  and  N_7 
ROOT
ATOM      1  C   UNL d   1     -40.687  15.500  20.117  0.00  0.00     0.279 C 
ATOM      2  N   UNL d   1     -40.803  15.553  19.305  0.00  0.00    -0.208 NA
ATOM      3  O   UNL d   1     -41.193  15.917  20.624  0.00  0.00    -0.265 OA
ENDROOT
BRANCH   2   4
ATOM      4  C   UNL d   1     -40.302  15.141  18.803  0.00  0.00     0.085 A 
ATOM      5  C   UNL d   1     -40.508  14.381  18.552  0.00  0.00     0.021 A 
ATOM      6  C   UNL d   1     -40.002  13.964  18.044  0.00  0.00     0.019 A 
ATOM      7  C   UNL d   1     -39.300  14.298  17.789  0.00  0.00     0.064 A 
ATOM      8  C   UNL d   1     -39.095  15.067  18.044  0.00  0.00     0.019 A 
ATOM      9  C   UNL d   1     -39.601  15.484  18.552  0.00  0.00     0.021 A 
BRANCH   7  10
ATOM     10  N   UNL d   1     -38.802  13.888  17.290  0.00  0.00    -0.304 N 
BRANCH  10  11
ATOM     11  C   UNL d   1     -38.158  13.465  17.606  0.00  0.00     0.080 C 
ATOM     12  C   UNL d   1     -38.062  12.659  17.419  0.00  0.00     0.021 C 
ENDBRANCH  10  11
BRANCH  10  13
ATOM     13  C   UNL d   1     -38.932  13.891  16.484  0.00  0.00     0.080 C 
ATOM     14  C   UNL d   1     -38.292  13.959  15.973  0.00  0.00     0.021 C 
ENDBRANCH  10  13
ENDBRANCH   7  10
ENDBRANCH   2   4
BRANCH   1  15
ATOM     15  C   UNL d   1     -40.085  15.047  20.435  0.00  0.00     0.063 C 
BRANCH  15  16
ATOM     16  C   UNL d   1     -40.073  14.883  21.244  0.00  0.00     0.006 C 
BRANCH  16  17
ATOM     17  C   UNL d   1     -39.397  14.574  21.597  0.00  0.00     0.011 A 
ATOM     18  C   UNL d   1     -39.411  13.855  21.982  0.00  0.00     0.058 A 
ATOM     19 CL   UNL d   1     -40.103  13.440  22.017  0.00  0.00    -0.082 Cl
ATOM     20  C   UNL d   1     -38.727  13.543  22.339  0.00  0.00     0.011 A 
ATOM     21  C   UNL d   1     -38.029  13.948  22.311  0.00  0.00     0.001 A 
ATOM     22  C   UNL d   1     -38.008  14.682  21.919  0.00  0.00     0.000 A 
ATOM     23  C   UNL d   1     -38.678  14.988  21.569  0.00  0.00     0.001 A 
ENDBRANCH  16  17
ENDBRANCH  15  16
ENDBRANCH   1  15
TORSDOF 7
ENDMDL
MODEL 4
REMARK VINA RESULT:      -5.0      8.509      9.912
REMARK  7 active torsions:
REMARK  status: ('A' for Active; 'I' for Inactive)
REMARK    1  A    between atoms: C_3  and  C_1 
REMARK    2  A    between atoms: C_6  and  C_1 
REMARK    3  A    between atoms: C_2  and  C_3 
REMARK       I    between atoms: N_4  and  C_2 
REMARK    4  A    between atoms: C_12  and  N_4 
REMARK    5  A    between atoms: N_7  and  C_5 
REMARK    6  A    between atoms: C_16  and  N_7 
REMARK    7  A    between atoms: C_17  and  N_7 
ROOT
ATOM      1  C   UNL d   1     -47.148  15.079  22.615  0.00  0.00     0.279 C 
ATOM      2  N   UNL d   1     -47.882  15.422  22.476  0.00  0.00    -0.208 NA
ATOM      3  O   UNL d   1     -46.470  15.556  22.596  0.00  0.00    -0.265 OA
ENDROOT
BRANCH   2   4
ATOM      4  C   UNL d   1     -48.553  14.950  22.495  0.00  0.00     0.085 A 
ATOM      5  C   UNL d   1     -48.794  14.556  21.810  0.00  0.00     0.021 A 
ATOM      6  C   UNL d   1     -49.473  14.078  21.829  0.00  0.00     0.019 A 
ATOM      7  C   UNL d   1     -49.904  13.994  22.519  0.00  0.00     0.064 A 
ATOM      8  C   UNL d   1     -49.657  14.393  23.209  0.00  0.00     0.019 A 
ATOM      9  C   UNL d   1     -48.978  14.871  23.190  0.00  0.00     0.021 A 
BRANCH   7  10
ATOM     10  N   UNL d   1     -50.571  13.524  22.537  0.00  0.00    -0.304 N 
BRANCH  10  11
ATOM     11  C   UNL d   1     -50.891  13.233  21.824  0.00  0.00     0.080 C 
ATOM     12  C   UNL d   1     -51.060  12.422  21.749  0.00  0.00     0.021 C 
ENDBRANCH  10  11
BRANCH  10  13
ATOM     13  C   UNL d   1     -50.925  13.339  23.248  0.00  0.00     0.080 C 
ATOM     14  C   UNL d   1     -51.064  12.551  23.436  0.00  0.00     0.021 C 
ENDBRANCH  10  13
ENDBRANCH   7  10
ENDBRANCH   2   4
BRANCH   1  15
ATOM     15  C   UNL d   1     -47.071  14.280  22.770  0.00  0.00     0.063 C 
BRANCH  15  16
ATOM     16  C   UNL d   1     -46.333  13.915  22.707  0.00  0.00     0.006 C 
BRANCH  16  17
ATOM     17  C   UNL d   1     -46.239  13.125  22.919  0.00  0.00     0.011 A 
ATOM     18  C   UNL d   1     -45.661  12.662  22.578  0.00  0.00     0.058 A 
ATOM     19 CL   UNL d   1     -45.173  12.985  22.022  0.00  0.00    -0.082 Cl
ATOM     20  C   UNL d   1     -45.566  11.862  22.792  0.00  0.00     0.011 A 
ATOM     21  C   UNL d   1     -46.049  11.527  23.347  0.00  0.00     0.001 A 
ATOM     22  C   UNL d   1     -46.640  11.995  23.698  0.00  0.00     0.000 A 
ATOM     23  C   UNL d   1     -46.733  12.778  23.488  0.00  0.00     0.001 A 
ENDBRANCH  16  17
ENDBRANCH  15  16
ENDBRANCH   1  15
TORSDOF 7
ENDMDL
MODEL 5
REMARK VINA RESULT:      -4.0      7.655      8.932
REMARK  7 active torsions:
REMARK  status: ('A' for Active; 'I' for Inactive)
REMARK    1  A    between atoms: C_3  and  C_1 
REMARK    2  A    between atoms: C_6  and  C_1 
REMARK    3  A    between atoms: C_2  and  C_3 
REMARK       I    between atoms: N_4  and  C_2 
REMARK    4  A    between atoms: C_12  and  N_4 
REMARK    5  A    between atoms: N_7  and  C_5 
REMARK    6  A    between atoms: C_16  and  N_7 
REMARK    7  A    between atoms: C_17  and  N_7 
ROOT
ATOM      1  C   UNL d   1     -45.464  13.437  22.416  0.00  0.00     0.279 C 
ATOM      2  N   UNL d   1     -46.163  13.868  22.381  0.00  0.00    -0.208 NA
ATOM      3  O   UNL d   1     -44.754  13.801  22.193  0.00  0.00    -0.265 OA
ENDROOT
BRANCH   2   4
ATOM      4  C   UNL d   1     -46.866  13.508  22.602  0.00  0.00     0.085 A 
ATOM      5  C   UNL d   1     -47.151  13.605  23.371  0.00  0.00     0.021 A 
ATOM      6  C   UNL d   1     -47.862  13.240  23.594  0.00  0.00     0.019 A 
ATOM      7  C   UNL d   1     -48.283  12.786  23.059  0.00  0.00     0.064 A 
ATOM      8  C   UNL d   1     -47.992  12.691  22.283  0.00  0.00     0.019 A 
ATOM      9  C   UNL d   1     -47.281  13.055  22.059  0.00  0.00     0.021 A 
BRANCH   7  10
ATOM     10  N   UNL d   1     -48.983  12.428  23.279  0.00  0.00    -0.304 N 
BRANCH  10  11
ATOM     11  C   UNL d   1     -49.007  11.602  23.389  0.00  0.00     0.080 C 
ATOM     12  C   UNL d   1     -49.693  11.247  23.697  0.00  0.00     0.021 C 
ENDBRANCH  10  11
BRANCH  10  13
ATOM     13  C   UNL d   1     -49.657  12.873  23.390  0.00  0.00     0.080 C 
ATOM     14  C   UNL d   1     -50.376  12.595  23.106  0.00  0.00     0.021 C 
ENDBRANCH  10  13
ENDBRANCH   7  10
ENDBRANCH   2   4
BRANCH   1  15
ATOM     15  C   UNL d   1     -45.454  12.658  22.665  0.00  0.00     0.063 C 
BRANCH  15  16
ATOM     16  C   UNL d   1     -44.784  12.192  22.541  0.00  0.00     0.006 C 
BRANCH  16  17
ATOM     17  C   UNL d   1     -44.703  11.468  22.923  0.00  0.00     0.011 A 
ATOM     18  C   UNL d   1     -43.985  11.081  22.948  0.00  0.00     0.058 A 
ATOM     19 CL   UNL d   1     -43.344  11.415  22.590  0.00  0.00    -0.082 Cl
ATOM     20  C   UNL d   1     -43.903  10.348  23.336  0.00  0.00     0.011 A 
ATOM     21  C   UNL d   1     -44.537  10.003  23.698  0.00  0.00     0.001 A 
ATOM     22  C   UNL d   1     -45.271  10.393  23.676  0.00  0.00     0.000 A 
ATOM     23  C   UNL d   1     -45.352  11.111  23.296  0.00  0.00     0.001 A 
ENDBRANCH  16  17
ENDBRANCH  15  16
ENDBRANCH   1  15
TORSDOF 7
ENDMDL
