MODEL 1
REMARK VINA RESULT:      -6.4      0.000      0.000
REMARK  4 active torsions:
REMARK  status: ('A' for Active; 'I' for Inactive)
REMARK    1  A    between atoms: N_2  and  C_1 
REMARK       I    between atoms: C_4  and  N_2 
REMARK    2  A    between atoms: C_11  and  C_4 
REMARK    3  A    between atoms: C_7  and  C_5 
REMARK    4  A    between atoms: C_9  and  C_7 
REMARK       I    between atoms: N_13  and  C_9 
ROOT
ATOM      1  C   UNL d   1     -41.369-122.776 -51.707  0.00  0.00     0.197 A 
ATOM      2  N   UNL d   1     -41.474-123.189 -52.404  0.00  0.00    -0.220 NA
ATOM      3  C   UNL d   1     -41.324-122.684 -53.026  0.00  0.00     0.095 A 
ATOM      4  S   UNL d   1     -41.151-122.004 -51.896  0.00  0.00    -0.046 SA
ATOM      5  C   UNL d   1     -41.123-121.945 -52.712  0.00  0.00     0.058 A 
ENDROOT
BRANCH   1   6
ATOM      6  N   UNL d   1     -41.463-123.073 -50.946  0.00  0.00    -0.183 NA
ATOM      7  C   UNL d   1     -42.095-122.823 -50.476  0.00  0.00     0.281 C 
ATOM      8  O   UNL d   1     -42.633-122.269 -50.780  0.00  0.00    -0.265 OA
BRANCH   7   9
ATOM      9  C   UNL d   1     -42.189-123.119 -49.719  0.00  0.00     0.058 A 
ATOM     10  C   UNL d   1     -42.906-123.469 -49.507  0.00  0.00     0.005 A 
ATOM     11  C   UNL d   1     -42.999-123.766 -48.745  0.00  0.00     0.000 A 
ATOM     12  C   UNL d   1     -42.389-123.716 -48.201  0.00  0.00     0.000 A 
ATOM     13  C   UNL d   1     -41.669-123.364 -48.416  0.00  0.00     0.000 A 
ATOM     14  C   UNL d   1     -41.574-123.065 -49.182  0.00  0.00     0.005 A 
ENDBRANCH   7   9
ENDBRANCH   1   6
BRANCH   3  15
ATOM     15  C   UNL d   1     -41.364-122.873 -53.828  0.00  0.00     0.084 C 
BRANCH  15  16
ATOM     16  C   UNL d   1     -41.818-122.407 -54.340  0.00  0.00     0.306 C 
ATOM     17  O   UNL d   1     -42.623-122.309 -54.197  0.00  0.00    -0.263 OA
ATOM     18  N   UNL d   1     -41.462-122.048 -54.984  0.00  0.00    -0.053 NA
ATOM     19  O   UNL d   1     -41.908-121.581 -55.500  0.00  0.00    -0.058 OA
ENDBRANCH  15  16
ENDBRANCH   3  15
TORSDOF 4
ENDMDL
MODEL 2
REMARK VINA RESULT:      -6.3      1.296      4.689
REMARK  4 active torsions:
REMARK  status: ('A' for Active; 'I' for Inactive)
REMARK    1  A    between atoms: N_2  and  C_1 
REMARK       I    between atoms: C_4  and  N_2 
REMARK    2  A    between atoms: C_11  and  C_4 
REMARK    3  A    between atoms: C_7  and  C_5 
REMARK    4  A    between atoms: C_9  and  C_7 
REMARK       I    between atoms: N_13  and  C_9 
ROOT
ATOM      1  C   UNL d   1     -41.653-122.321 -51.866  0.00  0.00     0.197 A 
ATOM      2  N   UNL d   1     -41.976-122.940 -51.441  0.00  0.00    -0.220 NA
ATOM      3  C   UNL d   1     -41.655-122.930 -50.692  0.00  0.00     0.095 A 
ATOM      4  S   UNL d   1     -41.125-121.921 -51.376  0.00  0.00    -0.046 SA
ATOM      5  C   UNL d   1     -41.125-122.297 -50.649  0.00  0.00     0.058 A 
ENDROOT
BRANCH   1   6
ATOM      6  N   UNL d   1     -41.822-122.127 -52.647  0.00  0.00    -0.183 NA
ATOM      7  C   UNL d   1     -41.565-122.615 -53.263  0.00  0.00     0.281 C 
ATOM      8  O   UNL d   1     -41.135-123.301 -53.085  0.00  0.00    -0.265 OA
BRANCH   7   9
ATOM      9  C   UNL d   1     -41.734-122.422 -54.040  0.00  0.00     0.058 A 
ATOM     10  C   UNL d   1     -41.297-122.770 -54.647  0.00  0.00     0.005 A 
ATOM     11  C   UNL d   1     -41.467-122.575 -55.429  0.00  0.00     0.000 A 
ATOM     12  C   UNL d   1     -42.063-122.042 -55.604  0.00  0.00     0.000 A 
ATOM     13  C   UNL d   1     -42.502-121.692 -54.992  0.00  0.00     0.000 A 
ATOM     14  C   UNL d   1     -42.331-121.888 -54.206  0.00  0.00     0.005 A 
ENDBRANCH   7   9
ENDBRANCH   1   6
BRANCH   3  15
ATOM     15  C   UNL d   1     -41.827-123.459 -50.081  0.00  0.00     0.084 C 
BRANCH  15  16
ATOM     16  C   UNL d   1     -42.441-123.293 -49.553  0.00  0.00     0.306 C 
ATOM     17  O   UNL d   1     -43.194-123.125 -49.842  0.00  0.00    -0.263 OA
ATOM     18  N   UNL d   1     -42.296-123.299 -48.747  0.00  0.00    -0.053 NA
ATOM     19  O   UNL d   1     -42.906-123.135 -48.213  0.00  0.00    -0.058 OA
ENDBRANCH  15  16
ENDBRANCH   3  15
TORSDOF 4
ENDMDL
MODEL 3
REMARK VINA RESULT:      -4.8      1.052      1.463
REMARK  4 active torsions:
REMARK  status: ('A' for Active; 'I' for Inactive)
REMARK    1  A    between atoms: N_2  and  C_1 
REMARK       I    between atoms: C_4  and  N_2 
REMARK    2  A    between atoms: C_11  and  C_4 
REMARK    3  A    between atoms: C_7  and  C_5 
REMARK    4  A    between atoms: C_9  and  C_7 
REMARK       I    between atoms: N_13  and  C_9 
ROOT
ATOM      1  C   UNL d   1     -41.833-123.266 -50.960  0.00  0.00     0.197 A 
ATOM      2  N   UNL d   1     -41.825-122.543 -51.342  0.00  0.00    -0.220 NA
ATOM      3  C   UNL d   1     -41.389-122.621 -52.026  0.00  0.00     0.095 A 
ATOM      4  S   UNL d   1     -41.399-123.800 -51.412  0.00  0.00    -0.046 SA
ATOM      5  C   UNL d   1     -41.123-123.403 -52.072  0.00  0.00     0.058 A 
ENDROOT
BRANCH   1   6
ATOM      6  N   UNL d   1     -42.210-123.435 -50.249  0.00  0.00    -0.183 NA
ATOM      7  C   UNL d   1     -41.858-123.225 -49.531  0.00  0.00     0.281 C 
ATOM      8  O   UNL d   1     -41.123-122.841 -49.536  0.00  0.00    -0.265 OA
BRANCH   7   9
ATOM      9  C   UNL d   1     -42.232-123.393 -48.823  0.00  0.00     0.058 A 
ATOM     10  C   UNL d   1     -41.787-123.430 -48.129  0.00  0.00     0.005 A 
ATOM     11  C   UNL d   1     -42.165-123.599 -47.417  0.00  0.00     0.000 A 
ATOM     12  C   UNL d   1     -42.973-123.731 -47.396  0.00  0.00     0.000 A 
ATOM     13  C   UNL d   1     -43.419-123.694 -48.095  0.00  0.00     0.000 A 
ATOM     14  C   UNL d   1     -43.040-123.523 -48.811  0.00  0.00     0.005 A 
ENDBRANCH   7   9
ENDBRANCH   1   6
BRANCH   3  15
ATOM     15  C   UNL d   1     -41.238-122.026 -52.579  0.00  0.00     0.084 C 
BRANCH  15  16
ATOM     16  C   UNL d   1     -41.607-122.047 -53.319  0.00  0.00     0.306 C 
ATOM     17  O   UNL d   1     -41.250-122.451 -53.943  0.00  0.00    -0.263 OA
ATOM     18  N   UNL d   1     -42.324-121.666 -53.425  0.00  0.00    -0.053 NA
ATOM     19  O   UNL d   1     -42.699-121.682 -54.162  0.00  0.00    -0.058 OA
ENDBRANCH  15  16
ENDBRANCH   3  15
TORSDOF 4
ENDMDL
