MODEL 1
REMARK VINA RESULT:      -0.3      0.000      0.000
REMARK  7 active torsions:
REMARK  status: ('A' for Active; 'I' for Inactive)
REMARK    1  A    between atoms: C_3  and  C_1 
REMARK    2  A    between atoms: C_9  and  N_2 
REMARK    3  A    between atoms: C_6  and  C_3 
REMARK    4  A    between atoms: C_8  and  C_3 
REMARK       I    between atoms: N_11  and  C_6 
REMARK    5  A    between atoms: C_26  and  C_7 
REMARK    6  A    between atoms: C_21  and  N_11 
REMARK    7  A    between atoms: C_12  and  C_21 
ROOT
ATOM      1  C   UNL d   1      58.111   0.395  31.035  0.00  0.00     0.103 A 
ATOM      2  N   UNL d   1      57.608   0.252  31.668  0.00  0.00    -0.269 N 
ATOM      3  S   UNL d   1      58.858   0.574  31.336  0.00  0.00    -0.064 SA
ATOM      4  C   UNL d   1      58.038   0.341  32.368  0.00  0.00     0.271 A 
ATOM      5  C   UNL d   1      58.812   0.541  32.158  0.00  0.00     0.087 A 
ATOM      6  O   UNL d   1      57.748   0.248  33.131  0.00  0.00    -0.266 OA
ENDROOT
BRANCH   1   7
ATOM      7  C   UNL d   1      57.909   0.365  30.233  0.00  0.00     0.101 C 
BRANCH   7   8
ATOM      8  C   UNL d   1      58.438   0.048  29.682  0.00  0.00     0.283 C 
ATOM      9  N   UNL d   1      58.628  -0.748  29.707  0.00  0.00    -0.204 NA
ATOM     10  O   UNL d   1      58.773   0.538  29.107  0.00  0.00    -0.265 OA
BRANCH   9  11
ATOM     11  C   UNL d   1      59.157  -1.066  29.158  0.00  0.00     0.127 C 
BRANCH  11  12
ATOM     12  C   UNL d   1      59.300  -1.875  29.132  0.00  0.00     0.119 A 
ATOM     13  O   UNL d   1      58.766  -2.464  28.927  0.00  0.00    -0.304 OA
ATOM     14  C   UNL d   1      59.150  -3.193  28.978  0.00  0.00     0.123 A 
ATOM     15  C   UNL d   1      59.924  -3.053  29.214  0.00  0.00     0.029 A 
ATOM     16  C   UNL d   1      60.021  -2.242  29.310  0.00  0.00     0.028 A 
ENDBRANCH  11  12
ENDBRANCH   9  11
ENDBRANCH   7   8
BRANCH   7  17
ATOM     17  C   UNL d   1      57.173   0.655  29.980  0.00  0.00     0.129 C 
ATOM     18  N   UNL d   1      56.916   0.492  29.216  0.00  0.00    -0.146 N 
ENDBRANCH   7  17
ENDBRANCH   1   7
BRANCH   2  19
ATOM     19  C   UNL d   1      56.928   0.070  32.098  0.00  0.00     0.067 A 
ATOM     20  C   UNL d   1      56.568   0.639  32.559  0.00  0.00     0.018 A 
ATOM     21  C   UNL d   1      55.893   0.459  32.985  0.00  0.00     0.008 A 
ATOM     22  C   UNL d   1      55.574  -0.305  32.947  0.00  0.00     0.035 A 
ATOM     23  C   UNL d   1      55.938  -0.878  32.481  0.00  0.00     0.008 A 
ATOM     24 BR   UNL d   1      54.896  -0.494  33.372  0.00  0.00    -0.049 Br
ATOM     25  C   UNL d   1      56.614  -0.693  32.056  0.00  0.00     0.018 A 
ENDBRANCH   2  19
BRANCH   5  26
ATOM     26  C   UNL d   1      59.429   0.682  32.688  0.00  0.00     0.011 C 
ATOM     27  C   UNL d   1      60.191   0.418  32.509  0.00  0.00     0.001 C 
ENDBRANCH   5  26
TORSDOF 7
ENDMDL
MODEL 2
REMARK VINA RESULT:       1.6      1.755      2.657
REMARK  7 active torsions:
REMARK  status: ('A' for Active; 'I' for Inactive)
REMARK    1  A    between atoms: C_3  and  C_1 
REMARK    2  A    between atoms: C_9  and  N_2 
REMARK    3  A    between atoms: C_6  and  C_3 
REMARK    4  A    between atoms: C_8  and  C_3 
REMARK       I    between atoms: N_11  and  C_6 
REMARK    5  A    between atoms: C_26  and  C_7 
REMARK    6  A    between atoms: C_21  and  N_11 
REMARK    7  A    between atoms: C_12  and  C_21 
ROOT
ATOM      1  C   UNL d   1      56.786  -0.048  33.069  0.00  0.00     0.103 A 
ATOM      2  N   UNL d   1      56.212   0.155  33.621  0.00  0.00    -0.269 N 
ATOM      3  S   UNL d   1      57.526   0.092  33.407  0.00  0.00    -0.064 SA
ATOM      4  C   UNL d   1      56.591   0.423  34.304  0.00  0.00     0.271 A 
ATOM      5  C   UNL d   1      57.404   0.382  34.168  0.00  0.00     0.087 A 
ATOM      6  O   UNL d   1      56.223   0.681  34.993  0.00  0.00    -0.266 OA
ENDROOT
BRANCH   1   7
ATOM      7  C   UNL d   1      56.650  -0.342  32.307  0.00  0.00     0.101 C 
BRANCH   7   8
ATOM      8  C   UNL d   1      56.836   0.118  31.646  0.00  0.00     0.283 C 
ATOM      9  N   UNL d   1      57.551   0.017  31.262  0.00  0.00    -0.204 NA
ATOM     10  O   UNL d   1      56.294   0.681  31.374  0.00  0.00    -0.265 OA
BRANCH   9  11
ATOM     11  C   UNL d   1      57.738   0.475  30.602  0.00  0.00     0.127 C 
BRANCH  11  12
ATOM     12  C   UNL d   1      58.351   0.259  30.098  0.00  0.00     0.119 A 
ATOM     13  O   UNL d   1      59.040  -0.139  30.303  0.00  0.00    -0.304 OA
ATOM     14  C   UNL d   1      59.495  -0.237  29.622  0.00  0.00     0.123 A 
ATOM     15  C   UNL d   1      59.086   0.101  28.995  0.00  0.00     0.029 A 
ATOM     16  C   UNL d   1      58.380   0.408  29.284  0.00  0.00     0.028 A 
ENDBRANCH  11  12
ENDBRANCH   9  11
ENDBRANCH   7   8
BRANCH   7  17
ATOM     17  C   UNL d   1      56.327  -1.100  32.208  0.00  0.00     0.129 C 
ATOM     18  N   UNL d   1      56.669  -1.616  31.666  0.00  0.00    -0.146 N 
ENDBRANCH   7  17
ENDBRANCH   1   7
BRANCH   2  19
ATOM     19  C   UNL d   1      55.474   0.277  33.969  0.00  0.00     0.067 A 
ATOM     20  C   UNL d   1      55.378   0.178  34.774  0.00  0.00     0.018 A 
ATOM     21  C   UNL d   1      54.645   0.299  35.120  0.00  0.00     0.008 A 
ATOM     22  C   UNL d   1      54.000   0.523  34.650  0.00  0.00     0.035 A 
ATOM     23  C   UNL d   1      54.101   0.622  33.839  0.00  0.00     0.008 A 
ATOM     24 BR   UNL d   1      53.262   0.647  34.990  0.00  0.00    -0.049 Br
ATOM     25  C   UNL d   1      54.835   0.500  33.497  0.00  0.00     0.018 A 
ENDBRANCH   2  19
BRANCH   5  26
ATOM     26  C   UNL d   1      57.990   0.598  34.708  0.00  0.00     0.011 C 
ATOM     27  C   UNL d   1      58.781   0.616  34.469  0.00  0.00     0.001 C 
ENDBRANCH   5  26
TORSDOF 7
ENDMDL
