MODEL 1
REMARK VINA RESULT:      -3.6      0.000      0.000
REMARK  5 active torsions:
REMARK  status: ('A' for Active; 'I' for Inactive)
REMARK    1  A    between atoms: N_4  and  C_1 
REMARK       I    between atoms: C_3  and  N_4 
REMARK    2  A    between atoms: C_8  and  C_3 
REMARK    3  A    between atoms: S_9  and  C_5 
REMARK    4  A    between atoms: C_12  and  S_9 
REMARK    5  A    between atoms: C_15  and  C_12 
ROOT
ATOM      1  C   UNL d   1      33.132  19.979 -22.186  0.00  0.00     0.219 A 
ATOM      2  S   UNL d   1      32.922  19.597 -22.926  0.00  0.00    -0.019 SA
ATOM      3  C   UNL d   1      32.943  18.742 -22.768  0.00  0.00     0.165 A 
ATOM      4  N   UNL d   1      33.241  19.439 -21.732  0.00  0.00    -0.120 NA
ATOM      5  N   UNL d   1      33.121  18.671 -22.105  0.00  0.00    -0.133 NA
ENDROOT
BRANCH   1   6
ATOM      6  N   UNL d   1      33.193  20.888 -22.043  0.00  0.00    -0.181 NA
ATOM      7  C   UNL d   1      32.698  21.275 -21.463  0.00  0.00     0.282 C 
ATOM      8  O   UNL d   1      32.252  20.883 -21.106  0.00  0.00    -0.265 OA
BRANCH   7   9
ATOM      9  C   UNL d   1      32.657  22.063 -21.246  0.00  0.00     0.069 A 
ATOM     10  C   UNL d   1      32.830  22.273 -20.480  0.00  0.00     0.062 A 
ATOM     11 CL   UNL d   1      33.065  21.653 -19.875  0.00  0.00    -0.082 Cl
ATOM     12  C   UNL d   1      32.792  23.059 -20.251  0.00  0.00     0.012 A 
ATOM     13  C   UNL d   1      32.578  23.642 -20.793  0.00  0.00     0.001 A 
ATOM     14  C   UNL d   1      32.400  23.429 -21.577  0.00  0.00     0.000 A 
ATOM     15  C   UNL d   1      32.441  22.630 -21.802  0.00  0.00     0.006 A 
ENDBRANCH   7   9
ENDBRANCH   1   6
BRANCH   3  16
ATOM     16  S   UNL d   1      32.788  18.007 -23.275  0.00  0.00    -0.059 SA
BRANCH  16  17
ATOM     17  C   UNL d   1      32.276  18.141 -23.799  0.00  0.00     0.037 C 
BRANCH  17  18
ATOM     18  C   UNL d   1      31.835  17.528 -24.107  0.00  0.00     0.007 A 
ATOM     19  C   UNL d   1      31.019  17.511 -24.031  0.00  0.00     0.001 A 
ATOM     20  C   UNL d   1      30.572  16.888 -24.345  0.00  0.00     0.007 A 
ATOM     21  C   UNL d   1      30.960  16.274 -24.742  0.00  0.00     0.035 A 
ATOM     22  C   UNL d   1      31.799  16.286 -24.823  0.00  0.00     0.007 A 
ATOM     23 BR   UNL d   1      30.499  15.577 -25.097  0.00  0.00    -0.049 Br
ATOM     24  C   UNL d   1      32.215  16.929 -24.494  0.00  0.00     0.001 A 
ENDBRANCH  17  18
ENDBRANCH  16  17
ENDBRANCH   3  16
TORSDOF 5
ENDMDL
MODEL 2
REMARK VINA RESULT:      -3.5      2.701      5.939
REMARK  5 active torsions:
REMARK  status: ('A' for Active; 'I' for Inactive)
REMARK    1  A    between atoms: N_4  and  C_1 
REMARK       I    between atoms: C_3  and  N_4 
REMARK    2  A    between atoms: C_8  and  C_3 
REMARK    3  A    between atoms: S_9  and  C_5 
REMARK    4  A    between atoms: C_12  and  S_9 
REMARK    5  A    between atoms: C_15  and  C_12 
ROOT
ATOM      1  C   UNL d   1      32.883  18.852 -23.436  0.00  0.00     0.219 A 
ATOM      2  S   UNL d   1      32.887  19.224 -22.662  0.00  0.00    -0.019 SA
ATOM      3  C   UNL d   1      33.120  20.051 -22.795  0.00  0.00     0.165 A 
ATOM      4  N   UNL d   1      33.074  19.374 -23.884  0.00  0.00    -0.120 NA
ATOM      5  N   UNL d   1      33.219  20.118 -23.474  0.00  0.00    -0.133 NA
ENDROOT
BRANCH   1   6
ATOM      6  N   UNL d   1      32.674  17.972 -23.614  0.00  0.00    -0.181 NA
ATOM      7  C   UNL d   1      32.105  17.771 -24.220  0.00  0.00     0.282 C 
ATOM      8  O   UNL d   1      31.809  18.290 -24.571  0.00  0.00    -0.265 OA
BRANCH   7   9
ATOM      9  C   UNL d   1      31.837  17.039 -24.470  0.00  0.00     0.069 A 
ATOM     10  C   UNL d   1      31.036  16.905 -24.518  0.00  0.00     0.062 A 
ATOM     11 CL   UNL d   1      30.449  17.547 -24.302  0.00  0.00    -0.082 Cl
ATOM     12  C   UNL d   1      30.756  16.176 -24.768  0.00  0.00     0.012 A 
ATOM     13  C   UNL d   1      31.282  15.574 -24.971  0.00  0.00     0.001 A 
ATOM     14  C   UNL d   1      32.101  15.710 -24.922  0.00  0.00     0.000 A 
ATOM     15  C   UNL d   1      32.378  16.451 -24.668  0.00  0.00     0.006 A 
ENDBRANCH   7   9
ENDBRANCH   1   6
BRANCH   3  16
ATOM     16  S   UNL d   1      33.241  20.764 -22.248  0.00  0.00    -0.059 SA
BRANCH  16  17
ATOM     17  C   UNL d   1      32.629  20.907 -21.849  0.00  0.00     0.037 C 
BRANCH  17  18
ATOM     18  C   UNL d   1      32.613  21.541 -21.335  0.00  0.00     0.007 A 
ATOM     19  C   UNL d   1      32.379  22.286 -21.586  0.00  0.00     0.001 A 
ATOM     20  C   UNL d   1      32.364  22.929 -21.064  0.00  0.00     0.007 A 
ATOM     21  C   UNL d   1      32.590  22.813 -20.276  0.00  0.00     0.035 A 
ATOM     22  C   UNL d   1      32.832  22.050 -20.013  0.00  0.00     0.007 A 
ATOM     23 BR   UNL d   1      32.585  23.497 -19.678  0.00  0.00    -0.049 Br
ATOM     24  C   UNL d   1      32.834  21.426 -20.567  0.00  0.00     0.001 A 
ENDBRANCH  17  18
ENDBRANCH  16  17
ENDBRANCH   3  16
TORSDOF 5
ENDMDL
MODEL 3
REMARK VINA RESULT:      -2.9      0.628      1.021
REMARK  5 active torsions:
REMARK  status: ('A' for Active; 'I' for Inactive)
REMARK    1  A    between atoms: N_4  and  C_1 
REMARK       I    between atoms: C_3  and  N_4 
REMARK    2  A    between atoms: C_8  and  C_3 
REMARK    3  A    between atoms: S_9  and  C_5 
REMARK    4  A    between atoms: C_12  and  S_9 
REMARK    5  A    between atoms: C_15  and  C_12 
ROOT
ATOM      1  C   UNL d   1      33.144  19.966 -22.250  0.00  0.00     0.219 A 
ATOM      2  S   UNL d   1      32.924  19.700 -23.036  0.00  0.00    -0.019 SA
ATOM      3  C   UNL d   1      32.909  18.831 -22.999  0.00  0.00     0.165 A 
ATOM      4  N   UNL d   1      33.227  19.364 -21.875  0.00  0.00    -0.120 NA
ATOM      5  N   UNL d   1      33.078  18.661 -22.352  0.00  0.00    -0.133 NA
ENDROOT
BRANCH   1   6
ATOM      6  N   UNL d   1      33.241  20.843 -21.982  0.00  0.00    -0.181 NA
ATOM      7  C   UNL d   1      32.666  21.210 -21.467  0.00  0.00     0.282 C 
ATOM      8  O   UNL d   1      32.127  20.827 -21.259  0.00  0.00    -0.265 OA
BRANCH   7   9
ATOM      9  C   UNL d   1      32.639  21.970 -21.163  0.00  0.00     0.069 A 
ATOM     10  C   UNL d   1      32.429  22.585 -21.650  0.00  0.00     0.062 A 
ATOM     11 CL   UNL d   1      32.230  22.442 -22.513  0.00  0.00    -0.082 Cl
ATOM     12  C   UNL d   1      32.399  23.350 -21.356  0.00  0.00     0.012 A 
ATOM     13  C   UNL d   1      32.579  23.501 -20.565  0.00  0.00     0.001 A 
ATOM     14  C   UNL d   1      32.793  22.872 -20.065  0.00  0.00     0.000 A 
ATOM     15  C   UNL d   1      32.822  22.100 -20.371  0.00  0.00     0.006 A 
ENDBRANCH   7   9
ENDBRANCH   1   6
BRANCH   3  16
ATOM     16  S   UNL d   1      32.728  18.180 -23.603  0.00  0.00    -0.059 SA
BRANCH  16  17
ATOM     17  C   UNL d   1      32.015  18.201 -23.819  0.00  0.00     0.037 C 
BRANCH  17  18
ATOM     18  C   UNL d   1      31.660  17.534 -24.127  0.00  0.00     0.007 A 
ATOM     19  C   UNL d   1      32.081  16.838 -24.228  0.00  0.00     0.001 A 
ATOM     20  C   UNL d   1      31.721  16.160 -24.540  0.00  0.00     0.007 A 
ATOM     21  C   UNL d   1      30.921  16.192 -24.752  0.00  0.00     0.035 A 
ATOM     22  C   UNL d   1      30.483  16.905 -24.651  0.00  0.00     0.007 A 
ATOM     23 BR   UNL d   1      30.496  15.467 -25.097  0.00  0.00    -0.049 Br
ATOM     24  C   UNL d   1      30.880  17.566 -24.333  0.00  0.00     0.001 A 
ENDBRANCH  17  18
ENDBRANCH  16  17
ENDBRANCH   3  16
TORSDOF 5
ENDMDL
MODEL 4
REMARK VINA RESULT:      -2.4      2.756      5.864
REMARK  5 active torsions:
REMARK  status: ('A' for Active; 'I' for Inactive)
REMARK    1  A    between atoms: N_4  and  C_1 
REMARK       I    between atoms: C_3  and  N_4 
REMARK    2  A    between atoms: C_8  and  C_3 
REMARK    3  A    between atoms: S_9  and  C_5 
REMARK    4  A    between atoms: C_12  and  S_9 
REMARK    5  A    between atoms: C_15  and  C_12 
ROOT
ATOM      1  C   UNL d   1      31.951  17.652 -23.857  0.00  0.00     0.219 A 
ATOM      2  S   UNL d   1      32.097  18.489 -23.732  0.00  0.00    -0.019 SA
ATOM      3  C   UNL d   1      32.780  18.535 -23.195  0.00  0.00     0.165 A 
ATOM      4  N   UNL d   1      32.452  17.324 -23.468  0.00  0.00    -0.120 NA
ATOM      5  N   UNL d   1      32.964  17.884 -23.059  0.00  0.00    -0.133 NA
ENDROOT
BRANCH   1   6
ATOM      6  N   UNL d   1      31.287  17.291 -24.383  0.00  0.00    -0.181 NA
ATOM      7  C   UNL d   1      30.610  16.904 -24.031  0.00  0.00     0.282 C 
ATOM      8  O   UNL d   1      30.580  16.871 -23.339  0.00  0.00    -0.265 OA
BRANCH   7   9
ATOM      9  C   UNL d   1      29.962  16.548 -24.384  0.00  0.00     0.069 A 
ATOM     10  C   UNL d   1      29.246  16.931 -24.375  0.00  0.00     0.062 A 
ATOM     11 CL   UNL d   1      29.159  17.735 -23.986  0.00  0.00    -0.082 Cl
ATOM     12  C   UNL d   1      28.590  16.585 -24.725  0.00  0.00     0.012 A 
ATOM     13  C   UNL d   1      28.651  15.846 -25.087  0.00  0.00     0.001 A 
ATOM     14  C   UNL d   1      29.384  15.453 -25.097  0.00  0.00     0.000 A 
ATOM     15  C   UNL d   1      30.044  15.811 -24.741  0.00  0.00     0.006 A 
ENDBRANCH   7   9
ENDBRANCH   1   6
BRANCH   3  16
ATOM     16  S   UNL d   1      33.241  19.222 -22.824  0.00  0.00    -0.059 SA
BRANCH  16  17
ATOM     17  C   UNL d   1      32.997  19.373 -22.137  0.00  0.00     0.037 C 
BRANCH  17  18
ATOM     18  C   UNL d   1      33.039  20.134 -21.846  0.00  0.00     0.007 A 
ATOM     19  C   UNL d   1      33.198  20.770 -22.338  0.00  0.00     0.001 A 
ATOM     20  C   UNL d   1      33.241  21.542 -22.042  0.00  0.00     0.007 A 
ATOM     21  C   UNL d   1      33.121  21.669 -21.233  0.00  0.00     0.035 A 
ATOM     22  C   UNL d   1      32.958  21.020 -20.721  0.00  0.00     0.007 A 
ATOM     23 BR   UNL d   1      33.162  22.504 -20.876  0.00  0.00    -0.049 Br
ATOM     24  C   UNL d   1      32.923  20.257 -21.056  0.00  0.00     0.001 A 
ENDBRANCH  17  18
ENDBRANCH  16  17
ENDBRANCH   3  16
TORSDOF 5
ENDMDL
MODEL 5
REMARK VINA RESULT:      -1.3      1.073      1.656
REMARK  5 active torsions:
REMARK  status: ('A' for Active; 'I' for Inactive)
REMARK    1  A    between atoms: N_4  and  C_1 
REMARK       I    between atoms: C_3  and  N_4 
REMARK    2  A    between atoms: C_8  and  C_3 
REMARK    3  A    between atoms: S_9  and  C_5 
REMARK    4  A    between atoms: C_12  and  S_9 
REMARK    5  A    between atoms: C_15  and  C_12 
ROOT
ATOM      1  C   UNL d   1      33.039  20.683 -21.321  0.00  0.00     0.219 A 
ATOM      2  S   UNL d   1      33.192  20.498 -22.146  0.00  0.00    -0.019 SA
ATOM      3  C   UNL d   1      33.144  19.632 -22.209  0.00  0.00     0.165 A 
ATOM      4  N   UNL d   1      32.933  20.048 -21.014  0.00  0.00    -0.120 NA
ATOM      5  N   UNL d   1      33.001  19.398 -21.576  0.00  0.00    -0.133 NA
ENDROOT
BRANCH   1   6
ATOM      6  N   UNL d   1      33.023  21.526 -20.950  0.00  0.00    -0.181 NA
ATOM      7  C   UNL d   1      32.990  21.631 -20.102  0.00  0.00     0.282 C 
ATOM      8  O   UNL d   1      32.975  21.062 -19.706  0.00  0.00    -0.265 OA
BRANCH   7   9
ATOM      9  C   UNL d   1      32.971  22.317 -19.655  0.00  0.00     0.069 A 
ATOM     10  C   UNL d   1      32.686  23.001 -19.989  0.00  0.00     0.062 A 
ATOM     11 CL   UNL d   1      32.393  23.012 -20.836  0.00  0.00    -0.082 Cl
ATOM     12  C   UNL d   1      32.662  23.693 -19.550  0.00  0.00     0.012 A 
ATOM     13  C   UNL d   1      32.928  23.702 -18.769  0.00  0.00     0.001 A 
ATOM     14  C   UNL d   1      33.220  23.003 -18.427  0.00  0.00     0.000 A 
ATOM     15  C   UNL d   1      33.241  22.305 -18.877  0.00  0.00     0.006 A 
ENDBRANCH   7   9
ENDBRANCH   1   6
BRANCH   3  16
ATOM     16  S   UNL d   1      33.241  19.046 -22.895  0.00  0.00    -0.059 SA
BRANCH  16  17
ATOM     17  C   UNL d   1      32.587  18.898 -23.219  0.00  0.00     0.037 C 
BRANCH  17  18
ATOM     18  C   UNL d   1      32.484  18.203 -23.634  0.00  0.00     0.007 A 
ATOM     19  C   UNL d   1      33.115  17.827 -23.998  0.00  0.00     0.001 A 
ATOM     20  C   UNL d   1      33.010  17.121 -24.418  0.00  0.00     0.007 A 
ATOM     21  C   UNL d   1      32.252  16.793 -24.469  0.00  0.00     0.035 A 
ATOM     22  C   UNL d   1      31.599  17.174 -24.096  0.00  0.00     0.007 A 
ATOM     23 BR   UNL d   1      32.103  16.019 -24.922  0.00  0.00    -0.049 Br
ATOM     24  C   UNL d   1      31.744  17.883 -23.682  0.00  0.00     0.001 A 
ENDBRANCH  17  18
ENDBRANCH  16  17
ENDBRANCH   3  16
TORSDOF 5
ENDMDL
