MODEL 1
REMARK VINA RESULT:      -5.6      0.000      0.000
REMARK  4 active torsions:
REMARK  status: ('A' for Active; 'I' for Inactive)
REMARK    1  A    between atoms: C_4  and  C_3 
REMARK    2  A    between atoms: C_5  and  C_4 
REMARK    3  A    between atoms: C_9  and  C_5 
REMARK    4  A    between atoms: C_13  and  C_9 
ROOT
ATOM      1  N   UNL d   1      57.277   0.675  31.630  0.00  0.00    -0.234 NA
ATOM      2  C   UNL d   1      57.684   0.273  31.035  0.00  0.00     0.138 A 
ATOM      3  C   UNL d   1      57.568  -0.539  30.932  0.00  0.00     0.029 A 
ATOM      4  C   UNL d   1      56.754   0.268  32.122  0.00  0.00     0.082 A 
ATOM      5  C   UNL d   1      56.638  -0.543  32.019  0.00  0.00     0.018 A 
ATOM      6  C   UNL d   1      57.052  -0.893  31.431  0.00  0.00     0.004 A 
ATOM      7  C   UNL d   1      56.124  -0.897  32.517  0.00  0.00     0.002 A 
ATOM      8  C   UNL d   1      56.348   0.670  32.716  0.00  0.00     0.019 A 
ATOM      9 CL   UNL d   1      58.206   0.680  30.544  0.00  0.00    -0.061 Cl
ATOM     10  C   UNL d   1      55.710  -0.548  33.104  0.00  0.00     0.000 A 
ATOM     11  C   UNL d   1      55.826   0.263  33.207  0.00  0.00     0.002 A 
ATOM     12  C   UNL d   1      55.212  -0.902  33.582  0.00  0.00     0.000 C 
ENDROOT
BRANCH   3  13
ATOM     13  C   UNL d   1      57.981  -0.888  30.345  0.00  0.00     0.006 C 
BRANCH  13  14
ATOM     14  C   UNL d   1      58.332  -1.536  29.975  0.00  0.00     0.042 C 
BRANCH  14  15
ATOM     15  C   UNL d   1      58.584  -1.704  29.215  0.00  0.00     0.196 C 
ATOM     16  O   UNL d   1      58.373  -1.205  28.590  0.00  0.00    -0.287 OA
BRANCH  15  17
ATOM     17  C   UNL d   1      59.043  -2.360  29.061  0.00  0.00     0.039 A 
ATOM     18  C   UNL d   1      59.854  -2.351  29.198  0.00  0.00     0.003 A 
ATOM     19  C   UNL d   1      60.301  -3.025  29.036  0.00  0.00     0.000 A 
ATOM     20  C   UNL d   1      59.945  -3.711  28.738  0.00  0.00     0.000 A 
ATOM     21  C   UNL d   1      59.141  -3.723  28.601  0.00  0.00     0.000 A 
ATOM     22  C   UNL d   1      58.689  -3.043  28.764  0.00  0.00     0.003 A 
ENDBRANCH  15  17
ENDBRANCH  14  15
ENDBRANCH  13  14
ENDBRANCH   3  13
TORSDOF 4
ENDMDL
MODEL 2
REMARK VINA RESULT:      -5.1      1.901      2.306
REMARK  4 active torsions:
REMARK  status: ('A' for Active; 'I' for Inactive)
REMARK    1  A    between atoms: C_4  and  C_3 
REMARK    2  A    between atoms: C_5  and  C_4 
REMARK    3  A    between atoms: C_9  and  C_5 
REMARK    4  A    between atoms: C_13  and  C_9 
ROOT
ATOM      1  N   UNL d   1      56.553  -1.357  32.015  0.00  0.00    -0.234 NA
ATOM      2  C   UNL d   1      57.017  -1.068  31.397  0.00  0.00     0.138 A 
ATOM      3  C   UNL d   1      57.111  -0.253  31.298  0.00  0.00     0.029 A 
ATOM      4  C   UNL d   1      56.183  -0.833  32.535  0.00  0.00     0.082 A 
ATOM      5  C   UNL d   1      56.278  -0.019  32.436  0.00  0.00     0.018 A 
ATOM      6  C   UNL d   1      56.735   0.217  31.824  0.00  0.00     0.004 A 
ATOM      7  C   UNL d   1      55.902   0.451  32.962  0.00  0.00     0.002 A 
ATOM      8  C   UNL d   1      55.720  -1.123  33.152  0.00  0.00     0.019 A 
ATOM      9 CL   UNL d   1      57.386  -1.591  30.878  0.00  0.00    -0.061 Cl
ATOM     10  C   UNL d   1      55.445   0.215  33.573  0.00  0.00     0.000 A 
ATOM     11  C   UNL d   1      55.351  -0.599  33.671  0.00  0.00     0.002 A 
ATOM     12  C   UNL d   1      55.085   0.681  34.078  0.00  0.00     0.000 C 
ENDROOT
BRANCH   3  13
ATOM     13  C   UNL d   1      57.568  -0.017  30.687  0.00  0.00     0.006 C 
BRANCH  13  14
ATOM     14  C   UNL d   1      58.286   0.203  30.345  0.00  0.00     0.042 C 
BRANCH  14  15
ATOM     15  C   UNL d   1      58.532   0.400  29.590  0.00  0.00     0.196 C 
ATOM     16  O   UNL d   1      57.986   0.680  29.037  0.00  0.00    -0.287 OA
BRANCH  15  17
ATOM     17  C   UNL d   1      59.314   0.325  29.372  0.00  0.00     0.039 A 
ATOM     18  C   UNL d   1      59.529  -0.099  28.701  0.00  0.00     0.003 A 
ATOM     19  C   UNL d   1      60.326  -0.163  28.498  0.00  0.00     0.000 A 
ATOM     20  C   UNL d   1      60.913   0.193  28.960  0.00  0.00     0.000 A 
ATOM     21  C   UNL d   1      60.704   0.615  29.626  0.00  0.00     0.000 A 
ATOM     22  C   UNL d   1      59.900   0.680  29.832  0.00  0.00     0.003 A 
ENDBRANCH  15  17
ENDBRANCH  14  15
ENDBRANCH  13  14
ENDBRANCH   3  13
TORSDOF 4
ENDMDL
MODEL 3
REMARK VINA RESULT:      -4.8      1.304      1.818
REMARK  4 active torsions:
REMARK  status: ('A' for Active; 'I' for Inactive)
REMARK    1  A    between atoms: C_4  and  C_3 
REMARK    2  A    between atoms: C_5  and  C_4 
REMARK    3  A    between atoms: C_9  and  C_5 
REMARK    4  A    between atoms: C_13  and  C_9 
ROOT
ATOM      1  N   UNL d   1      57.516   0.682  33.365  0.00  0.00    -0.234 NA
ATOM      2  C   UNL d   1      57.805   0.605  32.596  0.00  0.00     0.138 A 
ATOM      3  C   UNL d   1      57.284   0.451  31.974  0.00  0.00     0.029 A 
ATOM      4  C   UNL d   1      56.708   0.605  33.514  0.00  0.00     0.082 A 
ATOM      5  C   UNL d   1      56.187   0.451  32.891  0.00  0.00     0.018 A 
ATOM      6  C   UNL d   1      56.510   0.384  32.163  0.00  0.00     0.004 A 
ATOM      7  C   UNL d   1      55.414   0.384  33.079  0.00  0.00     0.002 A 
ATOM      8  C   UNL d   1      56.420   0.682  34.282  0.00  0.00     0.019 A 
ATOM      9 CL   UNL d   1      58.612   0.681  32.449  0.00  0.00    -0.061 Cl
ATOM     10  C   UNL d   1      55.092   0.451  33.807  0.00  0.00     0.000 A 
ATOM     11  C   UNL d   1      55.612   0.605  34.430  0.00  0.00     0.002 A 
ATOM     12  C   UNL d   1      54.338   0.384  33.979  0.00  0.00     0.000 C 
ENDROOT
BRANCH   3  13
ATOM     13  C   UNL d   1      57.606   0.384  31.246  0.00  0.00     0.006 C 
BRANCH  13  14
ATOM     14  C   UNL d   1      58.006  -0.025  30.651  0.00  0.00     0.042 C 
BRANCH  14  15
ATOM     15  C   UNL d   1      58.040   0.025  29.835  0.00  0.00     0.196 C 
ATOM     16  O   UNL d   1      57.527   0.532  29.430  0.00  0.00    -0.287 OA
BRANCH  15  17
ATOM     17  C   UNL d   1      58.575  -0.419  29.411  0.00  0.00     0.039 A 
ATOM     18  C   UNL d   1      59.196  -0.062  29.005  0.00  0.00     0.003 A 
ATOM     19  C   UNL d   1      59.727  -0.531  28.581  0.00  0.00     0.000 A 
ATOM     20  C   UNL d   1      59.645  -1.354  28.558  0.00  0.00     0.000 A 
ATOM     21  C   UNL d   1      59.030  -1.711  28.960  0.00  0.00     0.000 A 
ATOM     22  C   UNL d   1      58.494  -1.240  29.387  0.00  0.00     0.003 A 
ENDBRANCH  15  17
ENDBRANCH  14  15
ENDBRANCH  13  14
ENDBRANCH   3  13
TORSDOF 4
ENDMDL
MODEL 4
REMARK VINA RESULT:      -4.6      1.252      4.858
REMARK  4 active torsions:
REMARK  status: ('A' for Active; 'I' for Inactive)
REMARK    1  A    between atoms: C_4  and  C_3 
REMARK    2  A    between atoms: C_5  and  C_4 
REMARK    3  A    between atoms: C_9  and  C_5 
REMARK    4  A    between atoms: C_13  and  C_9 
ROOT
ATOM      1  N   UNL d   1      58.818  -0.375  29.232  0.00  0.00    -0.234 NA
ATOM      2  C   UNL d   1      58.294  -0.123  29.817  0.00  0.00     0.138 A 
ATOM      3  C   UNL d   1      57.927  -0.677  30.308  0.00  0.00     0.029 A 
ATOM      4  C   UNL d   1      58.977  -1.179  29.137  0.00  0.00     0.082 A 
ATOM      5  C   UNL d   1      58.611  -1.733  29.628  0.00  0.00     0.018 A 
ATOM      6  C   UNL d   1      58.110  -1.445  30.180  0.00  0.00     0.004 A 
ATOM      7  C   UNL d   1      58.793  -2.500  29.501  0.00  0.00     0.002 A 
ATOM      8  C   UNL d   1      59.502  -1.430  28.552  0.00  0.00     0.019 A 
ATOM      9 CL   UNL d   1      58.135   0.680  29.912  0.00  0.00    -0.061 Cl
ATOM     10  C   UNL d   1      59.294  -2.787  28.948  0.00  0.00     0.000 A 
ATOM     11  C   UNL d   1      59.660  -2.233  28.457  0.00  0.00     0.002 A 
ATOM     12  C   UNL d   1      59.464  -3.535  28.834  0.00  0.00     0.000 C 
ENDROOT
BRANCH   3  13
ATOM     13  C   UNL d   1      57.427  -0.390  30.860  0.00  0.00     0.006 C 
BRANCH  13  14
ATOM     14  C   UNL d   1      57.186  -0.253  31.637  0.00  0.00     0.042 C 
BRANCH  14  15
ATOM     15  C   UNL d   1      56.697  -0.636  32.169  0.00  0.00     0.196 C 
ATOM     16  O   UNL d   1      56.523  -1.438  32.068  0.00  0.00    -0.287 OA
BRANCH  15  17
ATOM     17  C   UNL d   1      56.374  -0.237  32.803  0.00  0.00     0.039 A 
ATOM     18  C   UNL d   1      56.854   0.103  33.379  0.00  0.00     0.003 A 
ATOM     19  C   UNL d   1      56.507   0.503  34.012  0.00  0.00     0.000 A 
ATOM     20  C   UNL d   1      55.684   0.567  34.077  0.00  0.00     0.000 A 
ATOM     21  C   UNL d   1      55.206   0.230  33.507  0.00  0.00     0.000 A 
ATOM     22  C   UNL d   1      55.554  -0.173  32.868  0.00  0.00     0.003 A 
ENDBRANCH  15  17
ENDBRANCH  14  15
ENDBRANCH  13  14
ENDBRANCH   3  13
TORSDOF 4
ENDMDL
