MODEL 1
REMARK VINA RESULT:      -5.3      0.000      0.000
REMARK  2 active torsions:
REMARK  status: ('A' for Active; 'I' for Inactive)
REMARK    1  A    between atoms: C_2  and  S_1 
REMARK    2  A    between atoms: N_3  and  S_1 
ROOT
ATOM      1  S   UNL d   1     -41.775-122.957 -50.391  0.00  0.00     0.272 S 
ATOM      2  O   UNL d   1     -41.200-123.135 -49.829  0.00  0.00    -0.200 OA
ATOM      3  O   UNL d   1     -42.563-122.861 -50.156  0.00  0.00    -0.200 OA
ENDROOT
BRANCH   1   4
ATOM      4  C   UNL d   1     -41.986-123.039 -49.599  0.00  0.00     0.115 A 
ATOM      5  C   UNL d   1     -42.715-122.773 -49.346  0.00  0.00     0.071 A 
ATOM      6  C   UNL d   1     -42.932-122.851 -48.559  0.00  0.00     0.024 A 
ATOM      7 CL   UNL d   1     -43.250-122.422 -49.868  0.00  0.00    -0.082 Cl
ATOM      8  C   UNL d   1     -42.409-123.200 -48.019  0.00  0.00     0.059 A 
ATOM      9  C   UNL d   1     -41.674-123.466 -48.283  0.00  0.00     0.011 A 
ATOM     10 CL   UNL d   1     -42.624-123.279 -47.227  0.00  0.00    -0.082 Cl
ATOM     11  C   UNL d   1     -41.460-123.387 -49.070  0.00  0.00     0.015 A 
ATOM     12  C   UNL d   1     -41.155-123.813 -47.742  0.00  0.00     0.001 C 
ENDBRANCH   1   4
BRANCH   1  13
ATOM     13  N   UNL d   1     -41.569-122.874 -51.185  0.00  0.00    -0.229 N 
ATOM     14  C   UNL d   1     -41.472-123.622 -51.584  0.00  0.00     0.092 A 
ATOM     15  C   UNL d   1     -41.299-123.814 -52.256  0.00  0.00     0.020 A 
ATOM     16  C   UNL d   1     -41.130-123.299 -52.889  0.00  0.00     0.002 A 
ATOM     17  C   UNL d   1     -41.130-122.424 -52.859  0.00  0.00     0.002 A 
ATOM     18  C   UNL d   1     -41.305-121.899 -52.168  0.00  0.00     0.020 A 
ATOM     19  C   UNL d   1     -41.509-122.161 -51.391  0.00  0.00     0.092 A 
ENDBRANCH   1  13
TORSDOF 2
ENDMDL
MODEL 2
REMARK VINA RESULT:      -5.0      2.045      2.845
REMARK  2 active torsions:
REMARK  status: ('A' for Active; 'I' for Inactive)
REMARK    1  A    between atoms: C_2  and  S_1 
REMARK    2  A    between atoms: N_3  and  S_1 
ROOT
ATOM      1  S   UNL d   1     -41.605-122.402 -52.969  0.00  0.00     0.272 S 
ATOM      2  O   UNL d   1     -41.853-123.053 -52.528  0.00  0.00    -0.200 OA
ATOM      3  O   UNL d   1     -41.240-121.765 -52.588  0.00  0.00    -0.200 OA
ENDROOT
BRANCH   1   4
ATOM      4  C   UNL d   1     -41.489-122.416 -52.153  0.00  0.00     0.115 A 
ATOM      5  C   UNL d   1     -41.255-121.735 -51.768  0.00  0.00     0.071 A 
ATOM      6  C   UNL d   1     -41.137-121.741 -50.956  0.00  0.00     0.024 A 
ATOM      7 CL   UNL d   1     -41.132-121.029 -52.178  0.00  0.00    -0.082 Cl
ATOM      8  C   UNL d   1     -41.255-122.439 -50.526  0.00  0.00     0.059 A 
ATOM      9  C   UNL d   1     -41.491-123.123 -50.923  0.00  0.00     0.011 A 
ATOM     10 CL   UNL d   1     -41.137-122.448 -49.710  0.00  0.00    -0.082 Cl
ATOM     11  C   UNL d   1     -41.608-123.114 -51.735  0.00  0.00     0.015 A 
ATOM     12  C   UNL d   1     -41.608-123.817 -50.492  0.00  0.00     0.001 C 
ENDBRANCH   1   4
BRANCH   1  13
ATOM     13  N   UNL d   1     -41.720-122.385 -53.784  0.00  0.00    -0.229 N 
ATOM     14  C   UNL d   1     -41.288-122.996 -54.195  0.00  0.00     0.092 A 
ATOM     15  C   UNL d   1     -41.223-123.186 -54.886  0.00  0.00     0.020 A 
ATOM     16  C   UNL d   1     -41.593-122.820 -55.537  0.00  0.00     0.002 A 
ATOM     17  C   UNL d   1     -42.134-122.132 -55.505  0.00  0.00     0.002 A 
ATOM     18  C   UNL d   1     -42.404-121.679 -54.795  0.00  0.00     0.020 A 
ATOM     19  C   UNL d   1     -42.179-121.838 -53.996  0.00  0.00     0.092 A 
ENDBRANCH   1  13
TORSDOF 2
ENDMDL
MODEL 3
REMARK VINA RESULT:      -4.1      2.544      4.680
REMARK  2 active torsions:
REMARK  status: ('A' for Active; 'I' for Inactive)
REMARK    1  A    between atoms: C_2  and  S_1 
REMARK    2  A    between atoms: N_3  and  S_1 
ROOT
ATOM      1  S   UNL d   1     -41.604-122.605 -52.681  0.00  0.00     0.272 S 
ATOM      2  O   UNL d   1     -41.490-121.878 -53.053  0.00  0.00    -0.200 OA
ATOM      3  O   UNL d   1     -41.856-123.257 -53.124  0.00  0.00    -0.200 OA
ENDROOT
BRANCH   1   4
ATOM      4  C   UNL d   1     -41.741-122.531 -53.491  0.00  0.00     0.115 A 
ATOM      5  C   UNL d   1     -41.501-123.126 -53.996  0.00  0.00     0.071 A 
ATOM      6  C   UNL d   1     -41.633-123.059 -54.803  0.00  0.00     0.024 A 
ATOM      7 CL   UNL d   1     -41.123-123.803 -53.714  0.00  0.00    -0.082 Cl
ATOM      8  C   UNL d   1     -42.011-122.386 -55.106  0.00  0.00     0.059 A 
ATOM      9  C   UNL d   1     -42.250-121.790 -54.588  0.00  0.00     0.011 A 
ATOM     10 CL   UNL d   1     -42.145-122.316 -55.916  0.00  0.00    -0.082 Cl
ATOM     11  C   UNL d   1     -42.117-121.860 -53.782  0.00  0.00     0.015 A 
ATOM     12  C   UNL d   1     -42.626-121.121 -54.892  0.00  0.00     0.001 C 
ENDBRANCH   1   4
BRANCH   1  13
ATOM     13  N   UNL d   1     -41.469-122.683 -51.872  0.00  0.00    -0.229 N 
ATOM     14  C   UNL d   1     -41.328-121.937 -51.484  0.00  0.00     0.092 A 
ATOM     15  C   UNL d   1     -41.189-121.742 -50.805  0.00  0.00     0.020 A 
ATOM     16  C   UNL d   1     -41.123-122.252 -50.149  0.00  0.00     0.002 A 
ATOM     17  C   UNL d   1     -41.210-123.123 -50.159  0.00  0.00     0.002 A 
ATOM     18  C   UNL d   1     -41.383-123.649 -50.849  0.00  0.00     0.020 A 
ATOM     19  C   UNL d   1     -41.499-123.392 -51.646  0.00  0.00     0.092 A 
ENDBRANCH   1  13
TORSDOF 2
ENDMDL
