MODEL 1
REMARK VINA RESULT:      -5.1      0.000      0.000
REMARK  4 active torsions:
REMARK  status: ('A' for Active; 'I' for Inactive)
REMARK    1  A    between atoms: C_6  and  C_1 
REMARK       I    between atoms: N_11  and  C_6 
REMARK    2  A    between atoms: O_14  and  C_9 
REMARK    3  A    between atoms: C_16  and  N_11 
REMARK    4  A    between atoms: C_12  and  C_16 
ROOT
ATOM      1  C   UNL d   1     -41.651-122.669 -51.809  0.00  0.00     0.121 A 
ATOM      2  C   UNL d   1     -41.959-121.975 -52.152  0.00  0.00     0.305 A 
ATOM      3  O   UNL d   1     -41.985-121.903 -52.983  0.00  0.00    -0.271 OA
ATOM      4  C   UNL d   1     -41.367-123.294 -52.294  0.00  0.00     0.012 A 
ATOM      5  C   UNL d   1     -41.707-122.514 -53.465  0.00  0.00     0.125 A 
ATOM      6  C   UNL d   1     -41.400-123.206 -53.118  0.00  0.00     0.025 A 
ATOM      7  O   UNL d   1     -42.237-121.362 -51.675  0.00  0.00    -0.259 OA
ATOM      8  C   UNL d   1     -41.732-122.443 -54.281  0.00  0.00     0.117 A 
ATOM      9  C   UNL d   1     -41.123-123.817 -53.601  0.00  0.00     0.002 A 
ATOM     10  C   UNL d   1     -41.151-123.740 -54.421  0.00  0.00     0.002 A 
ATOM     11  C   UNL d   1     -41.456-123.053 -54.761  0.00  0.00     0.026 A 
ENDROOT
BRANCH   1  12
ATOM     12  C   UNL d   1     -41.623-122.746 -50.989  0.00  0.00     0.284 C 
ATOM     13  O   UNL d   1     -41.130-122.257 -50.544  0.00  0.00    -0.265 OA
ATOM     14  N   UNL d   1     -42.088-123.314 -50.615  0.00  0.00    -0.206 NA
BRANCH  14  15
ATOM     15  C   UNL d   1     -42.062-123.395 -49.789  0.00  0.00     0.102 C 
BRANCH  15  16
ATOM     16  C   UNL d   1     -42.688-123.758 -49.393  0.00  0.00     0.021 C 
ATOM     17  C   UNL d   1     -42.837-123.576 -48.603  0.00  0.00     0.002 C 
ENDBRANCH  15  16
ENDBRANCH  14  15
ENDBRANCH   1  12
BRANCH   8  18
ATOM     18  O   UNL d   1     -42.037-121.757 -54.621  0.00  0.00    -0.326 OA
ATOM     19  C   UNL d   1     -42.261-121.752 -55.414  0.00  0.00     0.181 C 
ENDBRANCH   8  18
TORSDOF 4
ENDMDL
MODEL 2
REMARK VINA RESULT:      -4.0      1.161      4.199
REMARK  4 active torsions:
REMARK  status: ('A' for Active; 'I' for Inactive)
REMARK    1  A    between atoms: C_6  and  C_1 
REMARK       I    between atoms: N_11  and  C_6 
REMARK    2  A    between atoms: O_14  and  C_9 
REMARK    3  A    between atoms: C_16  and  N_11 
REMARK    4  A    between atoms: C_12  and  C_16 
ROOT
ATOM      1  C   UNL d   1     -41.762-122.386 -51.332  0.00  0.00     0.121 A 
ATOM      2  C   UNL d   1     -42.453-122.037 -51.026  0.00  0.00     0.305 A 
ATOM      3  O   UNL d   1     -42.701-122.225 -50.252  0.00  0.00    -0.271 OA
ATOM      4  C   UNL d   1     -41.315-122.925 -50.867  0.00  0.00     0.012 A 
ATOM      5  C   UNL d   1     -42.267-122.753 -49.789  0.00  0.00     0.125 A 
ATOM      6  C   UNL d   1     -41.576-123.100 -50.099  0.00  0.00     0.025 A 
ATOM      7  O   UNL d   1     -42.892-121.508 -51.484  0.00  0.00    -0.259 OA
ATOM      8  C   UNL d   1     -42.510-122.938 -49.029  0.00  0.00     0.117 A 
ATOM      9  C   UNL d   1     -41.140-123.630 -49.636  0.00  0.00     0.002 A 
ATOM     10  C   UNL d   1     -41.391-123.811 -48.872  0.00  0.00     0.002 A 
ATOM     11  C   UNL d   1     -42.076-123.465 -48.569  0.00  0.00     0.026 A 
ENDROOT
BRANCH   1  12
ATOM     12  C   UNL d   1     -41.511-122.205 -52.096  0.00  0.00     0.284 C 
ATOM     13  O   UNL d   1     -41.124-121.492 -52.246  0.00  0.00    -0.265 OA
ATOM     14  N   UNL d   1     -41.648-122.737 -52.709  0.00  0.00    -0.206 NA
BRANCH  14  15
ATOM     15  C   UNL d   1     -41.397-122.558 -53.480  0.00  0.00     0.102 C 
BRANCH  15  16
ATOM     16  C   UNL d   1     -41.690-122.992 -54.118  0.00  0.00     0.021 C 
ATOM     17  C   UNL d   1     -41.409-122.846 -54.879  0.00  0.00     0.002 C 
ENDBRANCH  15  16
ENDBRANCH  14  15
ENDBRANCH   1  12
BRANCH   8  18
ATOM     18  O   UNL d   1     -43.195-122.592 -48.726  0.00  0.00    -0.326 OA
ATOM     19  C   UNL d   1     -43.362-122.645 -47.921  0.00  0.00     0.181 C 
ENDBRANCH   8  18
TORSDOF 4
ENDMDL
