MODEL 1
REMARK VINA RESULT:      69.9      0.000      0.000
REMARK  10 active torsions:
REMARK  status: ('A' for Active; 'I' for Inactive)
REMARK    1  A    between atoms: C_11  and  S_1 
REMARK    2  A    between atoms: N_12  and  S_1 
REMARK    3  A    between atoms: C_2  and  O_7 
REMARK    4  A    between atoms: C_3  and  S_18 
REMARK    5  A    between atoms: C_6  and  C_17 
REMARK    6  A    between atoms: O_7  and  C_6 
REMARK    7  A    between atoms: C_29  and  N_12 
REMARK    8  A    between atoms: C_30  and  N_12 
REMARK    9  A    between atoms: C_28  and  C_14 
REMARK   10  A    between atoms: S_18  and  C_28 
ROOT
ATOM      1  C   UNL d   1     -49.084  27.723  35.058  0.00  0.00     0.167 A 
ATOM      2  C   UNL d   1     -49.850  27.440  35.215  0.00  0.00     0.222 A 
ATOM      3  C   UNL d   1     -50.235  26.998  34.627  0.00  0.00     0.069 A 
ATOM      4  C   UNL d   1     -48.716  27.570  34.335  0.00  0.00     0.151 A 
ATOM      5  O   UNL d   1     -49.110  27.131  33.761  0.00  0.00    -0.302 OA
ATOM      6  C   UNL d   1     -49.867  26.844  33.903  0.00  0.00     0.110 A 
ATOM      7  O   UNL d   1     -50.214  27.592  35.932  0.00  0.00    -0.284 OA
ENDROOT
BRANCH   1   8
ATOM      8  O   UNL d   1     -48.535  28.171  35.490  0.00  0.00    -0.268 OA
BRANCH   8   9
ATOM      9  C   UNL d   1     -47.847  28.445  35.127  0.00  0.00     0.300 C 
ATOM     10  O   UNL d   1     -47.283  27.904  34.878  0.00  0.00    -0.259 OA
BRANCH   9  11
ATOM     11  C   UNL d   1     -47.735  29.251  35.018  0.00  0.00     0.064 A 
ATOM     12  C   UNL d   1     -47.097  29.645  35.374  0.00  0.00     0.006 A 
ATOM     13  C   UNL d   1     -46.994  30.433  35.262  0.00  0.00     0.013 A 
ATOM     14  C   UNL d   1     -47.507  30.859  34.803  0.00  0.00     0.104 A 
ATOM     15  C   UNL d   1     -48.139  30.480  34.448  0.00  0.00     0.013 A 
ATOM     16  C   UNL d   1     -48.259  29.682  34.550  0.00  0.00     0.006 A 
BRANCH  14  17
ATOM     17  S   UNL d   1     -47.400  31.676  34.688  0.00  0.00     0.271 S 
ATOM     18  O   UNL d   1     -46.736  31.421  35.124  0.00  0.00    -0.200 OA
ATOM     19  O   UNL d   1     -47.095  32.443  34.697  0.00  0.00    -0.200 OA
BRANCH  17  20
ATOM     20  N   UNL d   1     -47.952  32.115  34.276  0.00  0.00    -0.229 N 
BRANCH  20  21
ATOM     21  C   UNL d   1     -48.742  31.920  34.320  0.00  0.00     0.092 C 
ATOM     22  C   UNL d   1     -49.311  32.503  34.462  0.00  0.00     0.021 C 
ENDBRANCH  20  21
BRANCH  20  23
ATOM     23  C   UNL d   1     -47.711  32.757  33.817  0.00  0.00     0.092 C 
ATOM     24  C   UNL d   1     -48.240  33.347  33.620  0.00  0.00     0.021 C 
ENDBRANCH  20  23
ENDBRANCH  17  20
ENDBRANCH  14  17
ENDBRANCH   9  11
ENDBRANCH   8   9
ENDBRANCH   1   8
BRANCH   6  25
ATOM     25  C   UNL d   1     -50.259  26.405  33.326  0.00  0.00     0.063 C 
BRANCH  25  26
ATOM     26  S   UNL d   1     -50.343  25.649  33.656  0.00  0.00    -0.046 SA
BRANCH  26  27
ATOM     27  C   UNL d   1     -51.045  25.236  33.563  0.00  0.00     0.194 A 
ATOM     28  N   UNL d   1     -51.760  25.642  33.552  0.00  0.00    -0.221 NA
ATOM     29  C   UNL d   1     -52.459  25.233  33.459  0.00  0.00     0.085 A 
ATOM     30  C   UNL d   1     -53.173  25.641  33.448  0.00  0.00     0.021 C 
ATOM     31  C   UNL d   1     -52.452  24.409  33.377  0.00  0.00     0.038 A 
ATOM     32  C   UNL d   1     -51.727  24.012  33.390  0.00  0.00     0.085 A 
ATOM     33  N   UNL d   1     -51.031  24.430  33.483  0.00  0.00    -0.221 NA
ATOM     34  C   UNL d   1     -51.721  23.188  33.307  0.00  0.00     0.021 C 
ENDBRANCH  26  27
ENDBRANCH  25  26
ENDBRANCH   6  25
TORSDOF 10
ENDMDL
