MODEL 1
REMARK VINA RESULT:      -7.3      0.000      0.000
REMARK  4 active torsions:
REMARK  status: ('A' for Active; 'I' for Inactive)
REMARK    1  A    between atoms: C_6  and  C_4 
REMARK    2  A    between atoms: C_9  and  C_6 
REMARK    3  A    between atoms: O_15  and  C_8 
REMARK    4  A    between atoms: O_16  and  C_12 
ROOT
ATOM      1  C   UNL d   1     -50.035  12.495  22.677  0.00  0.00     0.116 A 
ATOM      2  C   UNL d   1     -48.655  12.230  22.428  0.00  0.00     0.003 A 
ATOM      3  C   UNL d   1     -49.333  12.129  22.886  0.00  0.00     0.026 A 
ATOM      4  C   UNL d   1     -50.073  12.975  21.999  0.00  0.00     0.116 A 
ATOM      5  C   UNL d   1     -49.388  13.075  21.539  0.00  0.00     0.026 A 
ATOM      6  C   UNL d   1     -48.686  12.709  21.748  0.00  0.00     0.002 A 
ENDROOT
BRANCH   2   7
ATOM      7  C   UNL d   1     -47.949  11.862  22.638  0.00  0.00     0.009 C 
BRANCH   7   8
ATOM      8  C   UNL d   1     -47.337  12.301  22.960  0.00  0.00     0.062 A 
ATOM      9  C   UNL d   1     -46.736  12.010  23.452  0.00  0.00     0.145 A 
ATOM     10  N   UNL d   1     -46.238  12.638  23.647  0.00  0.00    -0.191 NA
ATOM     11  S   UNL d   1     -46.657  11.229  23.698  0.00  0.00    -0.057 SA
ATOM     12  C   UNL d   1     -46.530  13.319  23.277  0.00  0.00     0.311 A 
ATOM     13  S   UNL d   1     -47.203  13.108  22.857  0.00  0.00    -0.023 SA
ATOM     14  O   UNL d   1     -46.196  14.073  23.327  0.00  0.00    -0.258 OA
ENDBRANCH   7   8
ENDBRANCH   2   7
BRANCH   1  15
ATOM     15  O   UNL d   1     -50.710  12.389  23.142  0.00  0.00    -0.326 OA
ATOM     16  C   UNL d   1     -50.737  11.767  23.695  0.00  0.00     0.181 C 
ENDBRANCH   1  15
BRANCH   4  17
ATOM     17  O   UNL d   1     -50.769  13.344  21.784  0.00  0.00    -0.326 OA
ATOM     18  C   UNL d   1     -50.757  14.003  21.286  0.00  0.00     0.181 C 
ENDBRANCH   4  17
TORSDOF 4
ENDMDL
MODEL 2
REMARK VINA RESULT:      -6.6      2.126      3.536
REMARK  4 active torsions:
REMARK  status: ('A' for Active; 'I' for Inactive)
REMARK    1  A    between atoms: C_6  and  C_4 
REMARK    2  A    between atoms: C_9  and  C_6 
REMARK    3  A    between atoms: O_15  and  C_8 
REMARK    4  A    between atoms: O_16  and  C_12 
ROOT
ATOM      1  C   UNL d   1     -46.922  12.587  23.194  0.00  0.00     0.116 A 
ATOM      2  C   UNL d   1     -48.133  13.082  22.623  0.00  0.00     0.003 A 
ATOM      3  C   UNL d   1     -47.738  12.560  23.124  0.00  0.00     0.026 A 
ATOM      4  C   UNL d   1     -46.482  13.144  22.759  0.00  0.00     0.116 A 
ATOM      5  C   UNL d   1     -46.884  13.669  22.256  0.00  0.00     0.026 A 
ATOM      6  C   UNL d   1     -47.699  13.641  22.186  0.00  0.00     0.002 A 
ENDROOT
BRANCH   2   7
ATOM      7  C   UNL d   1     -48.954  13.054  22.554  0.00  0.00     0.009 C 
BRANCH   7   8
ATOM      8  C   UNL d   1     -49.416  13.621  22.923  0.00  0.00     0.062 A 
ATOM      9  C   UNL d   1     -50.172  13.500  23.241  0.00  0.00     0.145 A 
ATOM     10  N   UNL d   1     -50.435  14.215  23.558  0.00  0.00    -0.191 NA
ATOM     11  S   UNL d   1     -50.582  12.787  23.238  0.00  0.00    -0.057 SA
ATOM     12  C   UNL d   1     -49.843  14.781  23.436  0.00  0.00     0.311 A 
ATOM     13  S   UNL d   1     -49.220  14.412  23.047  0.00  0.00    -0.023 SA
ATOM     14  O   UNL d   1     -49.880  15.572  23.668  0.00  0.00    -0.258 OA
ENDBRANCH   7   8
ENDBRANCH   2   7
BRANCH   1  15
ATOM     15  O   UNL d   1     -46.533  12.060  23.698  0.00  0.00    -0.326 OA
ATOM     16  C   UNL d   1     -46.747  11.256  23.698  0.00  0.00     0.181 C 
ENDBRANCH   1  15
BRANCH   4  17
ATOM     17  O   UNL d   1     -45.669  13.177  22.823  0.00  0.00    -0.326 OA
ATOM     18  C   UNL d   1     -45.220  13.563  22.247  0.00  0.00     0.181 C 
ENDBRANCH   4  17
TORSDOF 4
ENDMDL
MODEL 3
REMARK VINA RESULT:      -5.3      9.052     10.117
REMARK  4 active torsions:
REMARK  status: ('A' for Active; 'I' for Inactive)
REMARK    1  A    between atoms: C_6  and  C_4 
REMARK    2  A    between atoms: C_9  and  C_6 
REMARK    3  A    between atoms: O_15  and  C_8 
REMARK    4  A    between atoms: O_16  and  C_12 
ROOT
ATOM      1  C   UNL d   1     -40.164  14.921  17.217  0.00  0.00     0.116 A 
ATOM      2  C   UNL d   1     -40.149  14.326  18.514  0.00  0.00     0.003 A 
ATOM      3  C   UNL d   1     -40.477  14.852  17.970  0.00  0.00     0.026 A 
ATOM      4  C   UNL d   1     -39.509  14.461  16.991  0.00  0.00     0.116 A 
ATOM      5  C   UNL d   1     -39.181  13.932  17.541  0.00  0.00     0.026 A 
ATOM      6  C   UNL d   1     -39.494  13.862  18.294  0.00  0.00     0.002 A 
ENDROOT
BRANCH   2   7
ATOM      7  C   UNL d   1     -40.465  14.256  19.272  0.00  0.00     0.009 C 
BRANCH   7   8
ATOM      8  C   UNL d   1     -40.151  14.695  19.888  0.00  0.00     0.062 A 
ATOM      9  C   UNL d   1     -40.506  14.817  20.628  0.00  0.00     0.145 A 
ATOM     10  N   UNL d   1     -40.003  15.290  21.079  0.00  0.00    -0.191 NA
ATOM     11  S   UNL d   1     -41.234  14.516  20.863  0.00  0.00    -0.057 SA
ATOM     12  C   UNL d   1     -39.335  15.462  20.620  0.00  0.00     0.311 A 
ATOM     13  S   UNL d   1     -39.431  15.096  19.892  0.00  0.00    -0.023 SA
ATOM     14  O   UNL d   1     -38.693  15.922  20.861  0.00  0.00    -0.258 OA
ENDBRANCH   7   8
ENDBRANCH   2   7
BRANCH   1  15
ATOM     15  O   UNL d   1     -40.499  15.451  16.678  0.00  0.00    -0.326 OA
ATOM     16  C   UNL d   1     -41.280  15.714  16.789  0.00  0.00     0.181 C 
ENDBRANCH   1  15
BRANCH   4  17
ATOM     17  O   UNL d   1     -39.190  14.525  16.241  0.00  0.00    -0.326 OA
ATOM     18  C   UNL d   1     -38.512  14.100  16.038  0.00  0.00     0.181 C 
ENDBRANCH   4  17
TORSDOF 4
ENDMDL
MODEL 4
REMARK VINA RESULT:      -5.2      8.507     10.074
REMARK  4 active torsions:
REMARK  status: ('A' for Active; 'I' for Inactive)
REMARK    1  A    between atoms: C_6  and  C_4 
REMARK    2  A    between atoms: C_9  and  C_6 
REMARK    3  A    between atoms: O_15  and  C_8 
REMARK    4  A    between atoms: O_16  and  C_12 
ROOT
ATOM      1  C   UNL d   1     -40.286  15.856  20.769  0.00  0.00     0.116 A 
ATOM      2  C   UNL d   1     -39.855  15.897  19.410  0.00  0.00     0.003 A 
ATOM      3  C   UNL d   1     -40.459  15.874  19.969  0.00  0.00     0.026 A 
ATOM      4  C   UNL d   1     -39.495  15.859  21.027  0.00  0.00     0.116 A 
ATOM      5  C   UNL d   1     -38.888  15.882  20.461  0.00  0.00     0.026 A 
ATOM      6  C   UNL d   1     -39.061  15.901  19.661  0.00  0.00     0.002 A 
ENDROOT
BRANCH   2   7
ATOM      7  C   UNL d   1     -40.030  15.916  18.605  0.00  0.00     0.009 C 
BRANCH   7   8
ATOM      8  C   UNL d   1     -40.095  15.217  18.183  0.00  0.00     0.062 A 
ATOM      9  C   UNL d   1     -40.594  15.086  17.534  0.00  0.00     0.145 A 
ATOM     10  N   UNL d   1     -40.484  14.309  17.279  0.00  0.00    -0.191 NA
ATOM     11  S   UNL d   1     -41.107  15.639  17.206  0.00  0.00    -0.057 SA
ATOM     12  C   UNL d   1     -39.917  13.957  17.769  0.00  0.00     0.311 A 
ATOM     13  S   UNL d   1     -39.682  14.517  18.322  0.00  0.00    -0.023 SA
ATOM     14  O   UNL d   1     -39.644  13.181  17.707  0.00  0.00    -0.258 OA
ENDBRANCH   7   8
ENDBRANCH   2   7
BRANCH   1  15
ATOM     15  O   UNL d   1     -40.898  15.833  21.324  0.00  0.00    -0.326 OA
ATOM     16  C   UNL d   1     -41.686  15.921  21.073  0.00  0.00     0.181 C 
ENDBRANCH   1  15
BRANCH   4  17
ATOM     17  O   UNL d   1     -39.313  15.841  21.824  0.00  0.00    -0.326 OA
ATOM     18  C   UNL d   1     -38.532  15.921  22.076  0.00  0.00     0.181 C 
ENDBRANCH   4  17
TORSDOF 4
ENDMDL
MODEL 5
REMARK VINA RESULT:      -5.0      9.354     10.223
REMARK  4 active torsions:
REMARK  status: ('A' for Active; 'I' for Inactive)
REMARK    1  A    between atoms: C_6  and  C_4 
REMARK    2  A    between atoms: C_9  and  C_6 
REMARK    3  A    between atoms: O_15  and  C_8 
REMARK    4  A    between atoms: O_16  and  C_12 
ROOT
ATOM      1  C   UNL d   1     -39.634  15.427  17.268  0.00  0.00     0.116 A 
ATOM      2  C   UNL d   1     -39.754  14.497  18.344  0.00  0.00     0.003 A 
ATOM      3  C   UNL d   1     -39.293  14.993  17.873  0.00  0.00     0.026 A 
ATOM      4  C   UNL d   1     -40.451  15.373  17.121  0.00  0.00     0.116 A 
ATOM      5  C   UNL d   1     -40.912  14.872  17.597  0.00  0.00     0.026 A 
ATOM      6  C   UNL d   1     -40.572  14.438  18.202  0.00  0.00     0.002 A 
ENDROOT
BRANCH   2   7
ATOM      7  C   UNL d   1     -39.411  14.061  18.953  0.00  0.00     0.009 C 
BRANCH   7   8
ATOM      8  C   UNL d   1     -39.415  14.351  19.718  0.00  0.00     0.062 A 
ATOM      9  C   UNL d   1     -38.826  14.228  20.289  0.00  0.00     0.145 A 
ATOM     10  N   UNL d   1     -39.052  14.617  20.980  0.00  0.00    -0.191 NA
ATOM     11  S   UNL d   1     -38.138  13.792  20.177  0.00  0.00    -0.057 SA
ATOM     12  C   UNL d   1     -39.782  14.982  20.840  0.00  0.00     0.311 A 
ATOM     13  S   UNL d   1     -40.000  14.817  20.065  0.00  0.00    -0.023 SA
ATOM     14  O   UNL d   1     -40.207  15.432  21.387  0.00  0.00    -0.258 OA
ENDBRANCH   7   8
ENDBRANCH   2   7
BRANCH   1  15
ATOM     15  O   UNL d   1     -39.164  15.922  16.801  0.00  0.00    -0.326 OA
ATOM     16  C   UNL d   1     -38.337  15.846  16.822  0.00  0.00     0.181 C 
ENDBRANCH   1  15
BRANCH   4  17
ATOM     17  O   UNL d   1     -40.798  15.803  16.519  0.00  0.00    -0.326 OA
ATOM     18  C   UNL d   1     -41.615  15.922  16.509  0.00  0.00     0.181 C 
ENDBRANCH   4  17
TORSDOF 4
ENDMDL
MODEL 6
REMARK VINA RESULT:      -4.8      9.964     11.587
REMARK  4 active torsions:
REMARK  status: ('A' for Active; 'I' for Inactive)
REMARK    1  A    between atoms: C_6  and  C_4 
REMARK    2  A    between atoms: C_9  and  C_6 
REMARK    3  A    between atoms: O_15  and  C_8 
REMARK    4  A    between atoms: O_16  and  C_12 
ROOT
ATOM      1  C   UNL d   1     -38.365  13.543  16.563  0.00  0.00     0.116 A 
ATOM      2  C   UNL d   1     -38.784  14.843  16.978  0.00  0.00     0.003 A 
ATOM      3  C   UNL d   1     -38.644  14.048  17.145  0.00  0.00     0.026 A 
ATOM      4  C   UNL d   1     -38.221  13.828  15.795  0.00  0.00     0.116 A 
ATOM      5  C   UNL d   1     -38.363  14.629  15.630  0.00  0.00     0.026 A 
ATOM      6  C   UNL d   1     -38.642  15.134  16.211  0.00  0.00     0.002 A 
ENDROOT
BRANCH   2   7
ATOM      7  C   UNL d   1     -39.065  15.350  17.563  0.00  0.00     0.009 C 
BRANCH   7   8
ATOM      8  C   UNL d   1     -39.862  15.536  17.598  0.00  0.00     0.062 A 
ATOM      9  C   UNL d   1     -40.270  15.801  18.269  0.00  0.00     0.145 A 
ATOM     10  N   UNL d   1     -41.059  15.921  18.058  0.00  0.00    -0.191 NA
ATOM     11  S   UNL d   1     -39.940  15.921  19.012  0.00  0.00    -0.057 SA
ATOM     12  C   UNL d   1     -41.141  15.730  17.256  0.00  0.00     0.311 A 
ATOM     13  S   UNL d   1     -40.404  15.495  16.979  0.00  0.00    -0.023 SA
ATOM     14  O   UNL d   1     -41.841  15.773  16.822  0.00  0.00    -0.258 OA
ENDBRANCH   7   8
ENDBRANCH   2   7
BRANCH   1  15
ATOM     15  O   UNL d   1     -38.227  12.747  16.739  0.00  0.00    -0.326 OA
ATOM     16  C   UNL d   1     -38.391  12.459  17.502  0.00  0.00     0.181 C 
ENDBRANCH   1  15
BRANCH   4  17
ATOM     17  O   UNL d   1     -37.943  13.331  15.209  0.00  0.00    -0.326 OA
ATOM     18  C   UNL d   1     -37.993  13.551  14.415  0.00  0.00     0.181 C 
ENDBRANCH   4  17
TORSDOF 4
ENDMDL
MODEL 7
REMARK VINA RESULT:      -4.5      9.585     10.653
REMARK  4 active torsions:
REMARK  status: ('A' for Active; 'I' for Inactive)
REMARK    1  A    between atoms: C_6  and  C_4 
REMARK    2  A    between atoms: C_9  and  C_6 
REMARK    3  A    between atoms: O_15  and  C_8 
REMARK    4  A    between atoms: O_16  and  C_12 
ROOT
ATOM      1  C   UNL d   1     -38.950  14.530  19.989  0.00  0.00     0.116 A 
ATOM      2  C   UNL d   1     -39.256  15.545  19.034  0.00  0.00     0.003 A 
ATOM      3  C   UNL d   1     -38.862  14.851  19.241  0.00  0.00     0.026 A 
ATOM      4  C   UNL d   1     -39.438  14.901  20.550  0.00  0.00     0.116 A 
ATOM      5  C   UNL d   1     -39.834  15.601  20.339  0.00  0.00     0.026 A 
ATOM      6  C   UNL d   1     -39.746  15.922  19.591  0.00  0.00     0.002 A 
ENDROOT
BRANCH   2   7
ATOM      7  C   UNL d   1     -39.167  15.868  18.281  0.00  0.00     0.009 C 
BRANCH   7   8
ATOM      8  C   UNL d   1     -39.695  15.671  17.686  0.00  0.00     0.062 A 
ATOM      9  C   UNL d   1     -39.509  15.573  16.884  0.00  0.00     0.145 A 
ATOM     10  N   UNL d   1     -40.202  15.377  16.482  0.00  0.00    -0.191 NA
ATOM     11  S   UNL d   1     -38.760  15.658  16.554  0.00  0.00    -0.057 SA
ATOM     12  C   UNL d   1     -40.819  15.354  17.033  0.00  0.00     0.311 A 
ATOM     13  S   UNL d   1     -40.503  15.534  17.770  0.00  0.00    -0.023 SA
ATOM     14  O   UNL d   1     -41.608  15.179  16.864  0.00  0.00    -0.258 OA
ENDBRANCH   7   8
ENDBRANCH   2   7
BRANCH   1  15
ATOM     15  O   UNL d   1     -38.551  13.834  20.188  0.00  0.00    -0.326 OA
ATOM     16  C   UNL d   1     -37.940  13.554  19.699  0.00  0.00     0.181 C 
ENDBRANCH   1  15
BRANCH   4  17
ATOM     17  O   UNL d   1     -39.531  14.587  21.299  0.00  0.00    -0.326 OA
ATOM     18  C   UNL d   1     -39.773  15.066  21.926  0.00  0.00     0.181 C 
ENDBRANCH   4  17
TORSDOF 4
ENDMDL
MODEL 8
REMARK VINA RESULT:      -4.5      8.850     10.599
REMARK  4 active torsions:
REMARK  status: ('A' for Active; 'I' for Inactive)
REMARK    1  A    between atoms: C_6  and  C_4 
REMARK    2  A    between atoms: C_9  and  C_6 
REMARK    3  A    between atoms: O_15  and  C_8 
REMARK    4  A    between atoms: O_16  and  C_12 
ROOT
ATOM      1  C   UNL d   1     -39.642  15.417  19.589  0.00  0.00     0.116 A 
ATOM      2  C   UNL d   1     -39.818  14.811  18.308  0.00  0.00     0.003 A 
ATOM      3  C   UNL d   1     -39.402  15.313  18.813  0.00  0.00     0.026 A 
ATOM      4  C   UNL d   1     -40.311  15.015  19.877  0.00  0.00     0.116 A 
ATOM      5  C   UNL d   1     -40.728  14.510  19.366  0.00  0.00     0.026 A 
ATOM      6  C   UNL d   1     -40.488  14.407  18.590  0.00  0.00     0.002 A 
ENDROOT
BRANCH   2   7
ATOM      7  C   UNL d   1     -39.575  14.708  17.528  0.00  0.00     0.009 C 
BRANCH   7   8
ATOM      8  C   UNL d   1     -39.093  14.077  17.328  0.00  0.00     0.062 A 
ATOM      9  C   UNL d   1     -38.547  14.060  16.704  0.00  0.00     0.145 A 
ATOM     10  N   UNL d   1     -38.181  13.321  16.703  0.00  0.00    -0.191 NA
ATOM     11  S   UNL d   1     -38.401  14.678  16.181  0.00  0.00    -0.057 SA
ATOM     12  C   UNL d   1     -38.499  12.878  17.326  0.00  0.00     0.311 A 
ATOM     13  S   UNL d   1     -39.057  13.345  17.706  0.00  0.00    -0.023 SA
ATOM     14  O   UNL d   1     -38.287  12.104  17.522  0.00  0.00    -0.258 OA
ENDBRANCH   7   8
ENDBRANCH   2   7
BRANCH   1  15
ATOM     15  O   UNL d   1     -39.220  15.922  20.088  0.00  0.00    -0.326 OA
ATOM     16  C   UNL d   1     -38.388  15.922  20.067  0.00  0.00     0.181 C 
ENDBRANCH   1  15
BRANCH   4  17
ATOM     17  O   UNL d   1     -40.558  15.112  20.650  0.00  0.00    -0.326 OA
ATOM     18  C   UNL d   1     -41.299  14.839  20.890  0.00  0.00     0.181 C 
ENDBRANCH   4  17
TORSDOF 4
ENDMDL
