MODEL 1
REMARK VINA RESULT:      71.2      0.000      0.000
REMARK  4 active torsions:
REMARK  status: ('A' for Active; 'I' for Inactive)
REMARK    1  A    between atoms: N_5  and  S_1 
REMARK    2  A    between atoms: C_8  and  S_1 
REMARK    3  A    between atoms: C_2  and  C_11 
REMARK       I    between atoms: C_12  and  N_13 
REMARK    4  A    between atoms: N_13  and  C_21 
ROOT
ATOM      1  N   UNL d   1      14.007  16.797  -5.127  0.00  0.00    -0.229 N 
ATOM      2  C   UNL d   1      13.651  15.058  -4.718  0.00  0.00     0.039 A 
ATOM      3  C   UNL d   1      13.593  16.256  -5.740  0.00  0.00     0.092 A 
ATOM      4  C   UNL d   1      14.241  16.466  -4.310  0.00  0.00     0.092 A 
ATOM      5  C   UNL d   1      14.063  15.590  -4.102  0.00  0.00     0.023 A 
ATOM      6  C   UNL d   1      13.417  15.388  -5.534  0.00  0.00     0.023 A 
ENDROOT
BRANCH   1   7
ATOM      7  S   UNL d   1      14.167  17.587  -5.316  0.00  0.00     0.271 S 
ATOM      8  O   UNL d   1      13.558  17.580  -5.878  0.00  0.00    -0.200 OA
ATOM      9  O   UNL d   1      14.775  17.590  -4.754  0.00  0.00    -0.200 OA
BRANCH   7  10
ATOM     10  C   UNL d   1      14.338  18.375  -5.494  0.00  0.00     0.104 A 
ATOM     11  C   UNL d   1      13.855  18.811  -5.981  0.00  0.00     0.015 A 
ATOM     12  C   UNL d   1      14.026  19.594  -6.158  0.00  0.00     0.033 A 
ATOM     13  C   UNL d   1      14.710  19.945  -5.829  0.00  0.00     0.135 A 
ATOM     14  C   UNL d   1      15.209  19.507  -5.331  0.00  0.00     0.033 A 
ATOM     15  C   UNL d   1      15.020  18.718  -5.164  0.00  0.00     0.015 A 
BRANCH  13  16
ATOM     16  N   UNL d   1      14.891  20.731  -6.000  0.00  0.00    -0.365 NA
ATOM     17  C   UNL d   1      15.076  21.522  -6.165  0.00  0.00     0.328 C 
ATOM     18  O   UNL d   1      15.444  21.600  -5.435  0.00  0.00    -0.251 OA
ATOM     19  C   UNL d   1      15.253  22.304  -6.342  0.00  0.00     0.082 C 
ENDBRANCH  13  16
ENDBRANCH   7  10
ENDBRANCH   1   7
BRANCH   2  20
ATOM     20  C   UNL d   1      13.473  14.183  -4.510  0.00  0.00     0.163 A 
ATOM     21  N   UNL d   1      13.691  13.836  -3.873  0.00  0.00    -0.225 NA
ATOM     22  C   UNL d   1      13.441  13.122  -3.903  0.00  0.00     0.101 A 
ATOM     23  C   UNL d   1      13.514  12.549  -3.403  0.00  0.00     0.021 A 
ATOM     24  C   UNL d   1      13.071  13.027  -4.554  0.00  0.00     0.101 A 
ATOM     25  C   UNL d   1      13.204  11.879  -3.578  0.00  0.00     0.002 A 
ATOM     26  C   UNL d   1      12.831  11.779  -4.232  0.00  0.00     0.002 A 
ATOM     27  C   UNL d   1      12.769  12.350  -4.711  0.00  0.00     0.021 A 
ATOM     28  N   UNL d   1      13.090  13.683  -4.932  0.00  0.00    -0.225 NA
ENDBRANCH   2  20
TORSDOF 4
ENDMDL
MODEL 2
REMARK VINA RESULT:      72.4      2.222      2.774
REMARK  4 active torsions:
REMARK  status: ('A' for Active; 'I' for Inactive)
REMARK    1  A    between atoms: N_5  and  S_1 
REMARK    2  A    between atoms: C_8  and  S_1 
REMARK    3  A    between atoms: C_2  and  C_11 
REMARK       I    between atoms: C_12  and  N_13 
REMARK    4  A    between atoms: N_13  and  C_21 
ROOT
ATOM      1  N   UNL d   1      14.658  15.984  -3.098  0.00  0.00    -0.229 N 
ATOM      2  C   UNL d   1      14.609  14.514  -2.024  0.00  0.00     0.039 A 
ATOM      3  C   UNL d   1      14.331  15.191  -3.420  0.00  0.00     0.092 A 
ATOM      4  C   UNL d   1      14.959  16.040  -2.240  0.00  0.00     0.092 A 
ATOM      5  C   UNL d   1      14.936  15.300  -1.697  0.00  0.00     0.023 A 
ATOM      6  C   UNL d   1      14.308  14.458  -2.882  0.00  0.00     0.023 A 
ENDROOT
BRANCH   1   7
ATOM      7  S   UNL d   1      14.678  16.651  -3.589  0.00  0.00     0.271 S 
ATOM      8  O   UNL d   1      14.614  16.165  -4.257  0.00  0.00    -0.200 OA
ATOM      9  O   UNL d   1      14.742  17.133  -2.919  0.00  0.00    -0.200 OA
BRANCH   7  10
ATOM     10  C   UNL d   1      14.700  17.325  -4.066  0.00  0.00     0.104 A 
ATOM     11  C   UNL d   1      14.724  17.266  -4.877  0.00  0.00     0.015 A 
ATOM     12  C   UNL d   1      14.746  17.936  -5.350  0.00  0.00     0.033 A 
ATOM     13  C   UNL d   1      14.742  18.690  -4.988  0.00  0.00     0.135 A 
ATOM     14  C   UNL d   1      14.718  18.759  -4.161  0.00  0.00     0.033 A 
ATOM     15  C   UNL d   1      14.696  18.072  -3.700  0.00  0.00     0.015 A 
BRANCH  13  16
ATOM     16  N   UNL d   1      14.764  19.370  -5.454  0.00  0.00    -0.365 NA
ATOM     17  C   UNL d   1      14.779  20.052  -5.925  0.00  0.00     0.328 C 
ATOM     18  O   UNL d   1      14.033  19.877  -6.220  0.00  0.00    -0.251 OA
ATOM     19  C   UNL d   1      14.807  20.730  -6.387  0.00  0.00     0.082 C 
ENDBRANCH  13  16
ENDBRANCH   7  10
ENDBRANCH   1   7
BRANCH   2  20
ATOM     20  C   UNL d   1      14.586  13.775  -1.482  0.00  0.00     0.163 A 
ATOM     21  N   UNL d   1      15.195  13.411  -1.219  0.00  0.00    -0.225 NA
ATOM     22  C   UNL d   1      14.953  12.834  -0.794  0.00  0.00     0.101 A 
ATOM     23  C   UNL d   1      15.344  12.303  -0.408  0.00  0.00     0.021 A 
ATOM     24  C   UNL d   1      14.198  12.840  -0.793  0.00  0.00     0.101 A 
ATOM     25  C   UNL d   1      14.952  11.780  -0.021  0.00  0.00     0.002 A 
ATOM     26  C   UNL d   1      14.193  11.783  -0.017  0.00  0.00     0.002 A 
ATOM     27  C   UNL d   1      13.826  12.309  -0.401  0.00  0.00     0.021 A 
ATOM     28  N   UNL d   1      13.968  13.422  -1.218  0.00  0.00    -0.225 NA
ENDBRANCH   2  20
TORSDOF 4
ENDMDL
