MODEL 1
REMARK VINA RESULT:      -4.3      0.000      0.000
REMARK  5 active torsions:
REMARK  status: ('A' for Active; 'I' for Inactive)
REMARK    1  A    between atoms: C_2  and  C_1 
REMARK       I    between atoms: N_4  and  C_2 
REMARK    2  A    between atoms: C_7  and  N_4 
REMARK    3  A    between atoms: C_12  and  C_6 
REMARK    4  A    between atoms: S_11  and  C_12 
REMARK    5  A    between atoms: C_14  and  S_11 
ROOT
ATOM      1  C   UNL d   1      59.474   0.085  29.451  0.00  0.00     0.158 A 
ATOM      2  O   UNL d   1      59.310   0.039  30.258  0.00  0.00    -0.302 OA
ATOM      3  C   UNL d   1      58.754   0.214  29.059  0.00  0.00     0.032 A 
ATOM      4  C   UNL d   1      58.506   0.137  30.367  0.00  0.00     0.107 A 
ATOM      5  C   UNL d   1      58.155   0.246  29.626  0.00  0.00     0.027 A 
ENDROOT
BRANCH   1   6
ATOM      6  C   UNL d   1      60.214   0.017  29.090  0.00  0.00     0.302 C 
ATOM      7  N   UNL d   1      60.472  -0.709  28.801  0.00  0.00    -0.204 NA
ATOM      8  O   UNL d   1      60.691   0.682  29.024  0.00  0.00    -0.263 OA
BRANCH   7   9
ATOM      9  C   UNL d   1      59.977  -1.376  28.875  0.00  0.00     0.112 A 
ATOM     10  C   UNL d   1      60.210  -1.988  29.379  0.00  0.00     0.158 A 
ATOM     11  F   UNL d   1      60.915  -1.934  29.797  0.00  0.00    -0.203 F 
ATOM     12  C   UNL d   1      59.726  -2.648  29.456  0.00  0.00     0.031 A 
ATOM     13  C   UNL d   1      59.014  -2.699  29.033  0.00  0.00     0.002 A 
ATOM     14  C   UNL d   1      58.789  -2.085  28.532  0.00  0.00     0.002 A 
ATOM     15  C   UNL d   1      59.276  -1.421  28.455  0.00  0.00     0.021 A 
ENDBRANCH   7   9
ENDBRANCH   1   6
BRANCH   4  16
ATOM     16  C   UNL d   1      58.103   0.130  31.088  0.00  0.00     0.060 C 
BRANCH  16  17
ATOM     17  S   UNL d   1      57.283   0.065  31.099  0.00  0.00    -0.084 SA
BRANCH  17  18
ATOM     18  C   UNL d   1      56.884  -0.068  31.804  0.00  0.00     0.029 A 
ATOM     19  C   UNL d   1      56.761   0.547  32.334  0.00  0.00     0.006 A 
ATOM     20  C   UNL d   1      56.362   0.415  33.039  0.00  0.00     0.001 A 
ATOM     21  C   UNL d   1      56.083  -0.347  33.211  0.00  0.00     0.000 A 
ATOM     22  C   UNL d   1      56.208  -0.961  32.677  0.00  0.00     0.001 A 
ATOM     23  C   UNL d   1      56.608  -0.828  31.972  0.00  0.00     0.006 A 
ENDBRANCH  17  18
ENDBRANCH  16  17
ENDBRANCH   4  16
TORSDOF 5
ENDMDL
MODEL 2
REMARK VINA RESULT:      -1.9      1.311      2.061
REMARK  5 active torsions:
REMARK  status: ('A' for Active; 'I' for Inactive)
REMARK    1  A    between atoms: C_2  and  C_1 
REMARK       I    between atoms: N_4  and  C_2 
REMARK    2  A    between atoms: C_7  and  N_4 
REMARK    3  A    between atoms: C_12  and  C_6 
REMARK    4  A    between atoms: S_11  and  C_12 
REMARK    5  A    between atoms: C_14  and  S_11 
ROOT
ATOM      1  C   UNL d   1      58.378  -0.730  29.948  0.00  0.00     0.158 A 
ATOM      2  O   UNL d   1      58.104  -0.761  30.725  0.00  0.00    -0.302 OA
ATOM      3  C   UNL d   1      58.160   0.007  29.637  0.00  0.00     0.032 A 
ATOM      4  C   UNL d   1      57.723  -0.058  30.895  0.00  0.00     0.107 A 
ATOM      5  C   UNL d   1      57.754   0.423  30.223  0.00  0.00     0.027 A 
ENDROOT
BRANCH   1   6
ATOM      6  C   UNL d   1      58.795  -1.320  29.546  0.00  0.00     0.302 C 
ATOM      7  N   UNL d   1      59.612  -1.273  29.466  0.00  0.00    -0.204 NA
ATOM      8  O   UNL d   1      58.384  -1.954  29.225  0.00  0.00    -0.263 OA
BRANCH   7   9
ATOM      9  C   UNL d   1      60.017  -0.623  29.797  0.00  0.00     0.112 A 
ATOM     10  C   UNL d   1      60.291  -0.028  29.292  0.00  0.00     0.158 A 
ATOM     11  F   UNL d   1      60.164  -0.081  28.482  0.00  0.00    -0.203 F 
ATOM     12  C   UNL d   1      60.691   0.615  29.613  0.00  0.00     0.031 A 
ATOM     13  C   UNL d   1      60.817   0.665  30.431  0.00  0.00     0.002 A 
ATOM     14  C   UNL d   1      60.542   0.068  30.927  0.00  0.00     0.002 A 
ATOM     15  C   UNL d   1      60.140  -0.578  30.604  0.00  0.00     0.021 A 
ENDBRANCH   7   9
ENDBRANCH   1   6
BRANCH   4  16
ATOM     16  C   UNL d   1      57.364   0.147  31.611  0.00  0.00     0.060 C 
BRANCH  16  17
ATOM     17  S   UNL d   1      56.831  -0.370  31.965  0.00  0.00    -0.084 SA
BRANCH  17  18
ATOM     18  C   UNL d   1      56.407  -0.143  32.629  0.00  0.00     0.029 A 
ATOM     19  C   UNL d   1      55.609  -0.329  32.696  0.00  0.00     0.006 A 
ATOM     20  C   UNL d   1      55.183  -0.102  33.361  0.00  0.00     0.001 A 
ATOM     21  C   UNL d   1      55.567   0.319  33.964  0.00  0.00     0.000 A 
ATOM     22  C   UNL d   1      56.367   0.504  33.893  0.00  0.00     0.001 A 
ATOM     23  C   UNL d   1      56.791   0.276  33.228  0.00  0.00     0.006 A 
ENDBRANCH  17  18
ENDBRANCH  16  17
ENDBRANCH   4  16
TORSDOF 5
ENDMDL
