MODEL 1
REMARK VINA RESULT:      -7.2      0.000      0.000
REMARK  6 active torsions:
REMARK  status: ('A' for Active; 'I' for Inactive)
REMARK    1  A    between atoms: O_9  and  S_1 
REMARK    2  A    between atoms: C_10  and  C_4 
REMARK    3  A    between atoms: C_14  and  O_9 
REMARK    4  A    between atoms: C_13  and  C_10 
REMARK    5  A    between atoms: C_16  and  C_13 
REMARK    6  A    between atoms: C_19  and  C_16 
ROOT
ATOM      1  C   UNL d   1     -45.838  12.884  22.731  0.00  0.00     0.064 A 
ATOM      2  C   UNL d   1     -46.342  12.565  23.303  0.00  0.00     0.105 A 
ATOM      3  C   UNL d   1     -46.819  13.766  22.951  0.00  0.00     0.139 A 
ATOM      4  C   UNL d   1     -46.134  13.624  22.516  0.00  0.00     0.220 A 
ATOM      5  O   UNL d   1     -46.953  13.110  23.443  0.00  0.00    -0.304 OA
ATOM      6  C   UNL d   1     -46.181  11.824  23.622  0.00  0.00     0.050 A 
ATOM      7  C   UNL d   1     -45.176  12.461  22.480  0.00  0.00     0.007 A 
ATOM      8  C   UNL d   1     -45.524  11.406  23.371  0.00  0.00     0.115 A 
ATOM      9  O   UNL d   1     -45.799  14.137  21.957  0.00  0.00    -0.284 OA
ATOM     10  C   UNL d   1     -45.018  11.717  22.803  0.00  0.00     0.026 A 
ENDROOT
BRANCH   3  11
ATOM     11  C   UNL d   1     -47.294  14.442  22.910  0.00  0.00     0.028 C 
BRANCH  11  12
ATOM     12  C   UNL d   1     -48.117  14.379  22.968  0.00  0.00     0.002 C 
BRANCH  12  13
ATOM     13  C   UNL d   1     -48.597  15.019  22.781  0.00  0.00     0.000 C 
BRANCH  13  14
ATOM     14  C   UNL d   1     -49.407  14.983  22.900  0.00  0.00     0.000 A 
ATOM     15  C   UNL d   1     -49.776  15.512  23.417  0.00  0.00     0.000 A 
ATOM     16  C   UNL d   1     -50.596  15.475  23.537  0.00  0.00     0.000 A 
ATOM     17  C   UNL d   1     -51.044  14.906  23.138  0.00  0.00     0.000 A 
ATOM     18  C   UNL d   1     -50.669  14.377  22.620  0.00  0.00     0.000 A 
ATOM     19  C   UNL d   1     -49.853  14.419  22.505  0.00  0.00     0.000 A 
ENDBRANCH  13  14
ENDBRANCH  12  13
ENDBRANCH  11  12
ENDBRANCH   3  11
BRANCH   8  20
ATOM     20  O   UNL d   1     -45.361  10.657  23.693  0.00  0.00    -0.230 OA
BRANCH  20  21
ATOM     21  S   UNL d   1     -44.587  10.366  23.686  0.00  0.00     0.285 S 
ATOM     22  O   UNL d   1     -45.212   9.826  23.673  0.00  0.00    -0.197 OA
ATOM     23  O   UNL d   1     -43.963  10.886  23.698  0.00  0.00    -0.197 OA
ATOM     24  C   UNL d   1     -44.050   9.728  23.671  0.00  0.00     0.172 C 
ENDBRANCH  20  21
ENDBRANCH   8  20
TORSDOF 6
ENDMDL
MODEL 2
REMARK VINA RESULT:      -6.6      2.992      5.888
REMARK  6 active torsions:
REMARK  status: ('A' for Active; 'I' for Inactive)
REMARK    1  A    between atoms: O_9  and  S_1 
REMARK    2  A    between atoms: C_10  and  C_4 
REMARK    3  A    between atoms: C_14  and  O_9 
REMARK    4  A    between atoms: C_13  and  C_10 
REMARK    5  A    between atoms: C_16  and  C_13 
REMARK    6  A    between atoms: C_19  and  C_16 
ROOT
ATOM      1  C   UNL d   1     -45.086  12.577  22.552  0.00  0.00     0.064 A 
ATOM      2  C   UNL d   1     -45.207  13.313  22.197  0.00  0.00     0.105 A 
ATOM      3  C   UNL d   1     -44.019  12.846  21.792  0.00  0.00     0.139 A 
ATOM      4  C   UNL d   1     -44.353  12.291  22.301  0.00  0.00     0.220 A 
ATOM      5  O   UNL d   1     -44.547  13.484  21.723  0.00  0.00    -0.304 OA
ATOM      6  C   UNL d   1     -45.900  13.730  22.348  0.00  0.00     0.050 A 
ATOM      7  C   UNL d   1     -45.657  12.262  23.057  0.00  0.00     0.007 A 
ATOM      8  C   UNL d   1     -46.464  13.415  22.850  0.00  0.00     0.115 A 
ATOM      9  O   UNL d   1     -44.011  11.569  22.524  0.00  0.00    -0.284 OA
ATOM     10  C   UNL d   1     -46.350  12.684  23.207  0.00  0.00     0.026 A 
ENDROOT
BRANCH   3  11
ATOM     11  C   UNL d   1     -43.287  12.784  21.412  0.00  0.00     0.028 C 
BRANCH  11  12
ATOM     12  C   UNL d   1     -42.786  13.441  21.360  0.00  0.00     0.002 C 
BRANCH  12  13
ATOM     13  C   UNL d   1     -42.108  13.410  20.897  0.00  0.00     0.000 C 
BRANCH  13  14
ATOM     14  C   UNL d   1     -41.532  13.990  20.960  0.00  0.00     0.000 A 
ATOM     15  C   UNL d   1     -41.702  14.772  20.757  0.00  0.00     0.000 A 
ATOM     16  C   UNL d   1     -41.118  15.358  20.822  0.00  0.00     0.000 A 
ATOM     17  C   UNL d   1     -40.363  15.156  21.091  0.00  0.00     0.000 A 
ATOM     18  C   UNL d   1     -40.196  14.368  21.294  0.00  0.00     0.000 A 
ATOM     19  C   UNL d   1     -40.781  13.791  21.227  0.00  0.00     0.000 A 
ENDBRANCH  13  14
ENDBRANCH  12  13
ENDBRANCH  11  12
ENDBRANCH   3  11
BRANCH   8  20
ATOM     20  O   UNL d   1     -47.164  13.837  23.003  0.00  0.00    -0.230 OA
BRANCH  20  21
ATOM     21  S   UNL d   1     -47.826  13.724  22.521  0.00  0.00     0.285 S 
ATOM     22  O   UNL d   1     -47.817  14.372  23.034  0.00  0.00    -0.197 OA
ATOM     23  O   UNL d   1     -47.848  13.091  22.013  0.00  0.00    -0.197 OA
ATOM     24  C   UNL d   1     -48.581  13.959  22.255  0.00  0.00     0.172 C 
ENDBRANCH  20  21
ENDBRANCH   8  20
TORSDOF 6
ENDMDL
MODEL 3
REMARK VINA RESULT:      -6.6      1.445      2.207
REMARK  6 active torsions:
REMARK  status: ('A' for Active; 'I' for Inactive)
REMARK    1  A    between atoms: O_9  and  S_1 
REMARK    2  A    between atoms: C_10  and  C_4 
REMARK    3  A    between atoms: C_14  and  O_9 
REMARK    4  A    between atoms: C_13  and  C_10 
REMARK    5  A    between atoms: C_16  and  C_13 
REMARK    6  A    between atoms: C_19  and  C_16 
ROOT
ATOM      1  C   UNL d   1     -46.879  11.539  23.336  0.00  0.00     0.064 A 
ATOM      2  C   UNL d   1     -46.759  12.335  23.149  0.00  0.00     0.105 A 
ATOM      3  C   UNL d   1     -48.067  12.151  23.373  0.00  0.00     0.139 A 
ATOM      4  C   UNL d   1     -47.685  11.428  23.474  0.00  0.00     0.220 A 
ATOM      5  O   UNL d   1     -47.495  12.719  23.170  0.00  0.00    -0.304 OA
ATOM      6  C   UNL d   1     -46.000  12.606  22.983  0.00  0.00     0.050 A 
ATOM      7  C   UNL d   1     -46.239  11.018  23.357  0.00  0.00     0.007 A 
ATOM      8  C   UNL d   1     -45.368  12.088  23.005  0.00  0.00     0.115 A 
ATOM      9  O   UNL d   1     -48.049  10.711  23.679  0.00  0.00    -0.284 OA
ATOM     10  C   UNL d   1     -45.479  11.295  23.191  0.00  0.00     0.026 A 
ENDROOT
BRANCH   3  11
ATOM     11  C   UNL d   1     -48.877  12.292  23.457  0.00  0.00     0.028 C 
BRANCH  11  12
ATOM     12  C   UNL d   1     -49.195  13.032  23.267  0.00  0.00     0.002 C 
BRANCH  12  13
ATOM     13  C   UNL d   1     -49.995  13.182  23.377  0.00  0.00     0.000 C 
BRANCH  13  14
ATOM     14  C   UNL d   1     -50.329  13.884  23.117  0.00  0.00     0.000 A 
ATOM     15  C   UNL d   1     -50.726  13.915  22.394  0.00  0.00     0.000 A 
ATOM     16  C   UNL d   1     -51.064  14.626  22.132  0.00  0.00     0.000 A 
ATOM     17  C   UNL d   1     -51.001  15.306  22.598  0.00  0.00     0.000 A 
ATOM     18  C   UNL d   1     -50.601  15.270  23.325  0.00  0.00     0.000 A 
ATOM     19  C   UNL d   1     -50.268  14.560  23.579  0.00  0.00     0.000 A 
ENDBRANCH  13  14
ENDBRANCH  12  13
ENDBRANCH  11  12
ENDBRANCH   3  11
BRANCH   8  20
ATOM     20  O   UNL d   1     -44.601  12.362  22.838  0.00  0.00    -0.230 OA
BRANCH  20  21
ATOM     21  S   UNL d   1     -44.444  12.727  22.113  0.00  0.00     0.285 S 
ATOM     22  O   UNL d   1     -43.950  12.113  22.362  0.00  0.00    -0.197 OA
ATOM     23  O   UNL d   1     -44.922  13.332  21.857  0.00  0.00    -0.197 OA
ATOM     24  C   UNL d   1     -43.986  12.800  21.420  0.00  0.00     0.172 C 
ENDBRANCH  20  21
ENDBRANCH   8  20
TORSDOF 6
ENDMDL
MODEL 4
REMARK VINA RESULT:      -6.4      2.527      5.432
REMARK  6 active torsions:
REMARK  status: ('A' for Active; 'I' for Inactive)
REMARK    1  A    between atoms: O_9  and  S_1 
REMARK    2  A    between atoms: C_10  and  C_4 
REMARK    3  A    between atoms: C_14  and  O_9 
REMARK    4  A    between atoms: C_13  and  C_10 
REMARK    5  A    between atoms: C_16  and  C_13 
REMARK    6  A    between atoms: C_19  and  C_16 
ROOT
ATOM      1  C   UNL d   1     -48.880  12.016  23.464  0.00  0.00     0.064 A 
ATOM      2  C   UNL d   1     -48.652  12.798  23.327  0.00  0.00     0.105 A 
ATOM      3  C   UNL d   1     -47.544  12.059  23.471  0.00  0.00     0.139 A 
ATOM      4  C   UNL d   1     -48.196  11.562  23.552  0.00  0.00     0.220 A 
ATOM      5  O   UNL d   1     -47.822  12.830  23.331  0.00  0.00    -0.304 OA
ATOM      6  C   UNL d   1     -49.225  13.378  23.218  0.00  0.00     0.050 A 
ATOM      7  C   UNL d   1     -49.680  11.816  23.490  0.00  0.00     0.007 A 
ATOM      8  C   UNL d   1     -50.018  13.177  23.244  0.00  0.00     0.115 A 
ATOM      9  O   UNL d   1     -48.169  10.746  23.698  0.00  0.00    -0.284 OA
ATOM     10  C   UNL d   1     -50.252  12.401  23.380  0.00  0.00     0.026 A 
ENDROOT
BRANCH   3  11
ATOM     11  C   UNL d   1     -46.749  11.836  23.520  0.00  0.00     0.028 C 
BRANCH  11  12
ATOM     12  C   UNL d   1     -46.178  12.221  23.061  0.00  0.00     0.002 C 
BRANCH  12  13
ATOM     13  C   UNL d   1     -45.423  11.903  22.985  0.00  0.00     0.000 C 
BRANCH  13  14
ATOM     14  C   UNL d   1     -44.868  12.258  22.499  0.00  0.00     0.000 A 
ATOM     15  C   UNL d   1     -45.060  12.938  22.072  0.00  0.00     0.000 A 
ATOM     16  C   UNL d   1     -44.497  13.297  21.579  0.00  0.00     0.000 A 
ATOM     17  C   UNL d   1     -43.740  12.970  21.517  0.00  0.00     0.000 A 
ATOM     18  C   UNL d   1     -43.550  12.286  21.948  0.00  0.00     0.000 A 
ATOM     19  C   UNL d   1     -44.115  11.935  22.436  0.00  0.00     0.000 A 
ENDBRANCH  13  14
ENDBRANCH  12  13
ENDBRANCH  11  12
ENDBRANCH   3  11
BRANCH   8  20
ATOM     20  O   UNL d   1     -50.598  13.763  23.134  0.00  0.00    -0.230 OA
BRANCH  20  21
ATOM     21  S   UNL d   1     -50.800  14.001  22.368  0.00  0.00     0.285 S 
ATOM     22  O   UNL d   1     -50.857  14.552  22.982  0.00  0.00    -0.197 OA
ATOM     23  O   UNL d   1     -50.748  13.470  21.756  0.00  0.00    -0.197 OA
ATOM     24  C   UNL d   1     -51.064  14.585  21.834  0.00  0.00     0.172 C 
ENDBRANCH  20  21
ENDBRANCH   8  20
TORSDOF 6
ENDMDL
MODEL 5
REMARK VINA RESULT:      -5.9      8.514      9.761
REMARK  6 active torsions:
REMARK  status: ('A' for Active; 'I' for Inactive)
REMARK    1  A    between atoms: O_9  and  S_1 
REMARK    2  A    between atoms: C_10  and  C_4 
REMARK    3  A    between atoms: C_14  and  O_9 
REMARK    4  A    between atoms: C_13  and  C_10 
REMARK    5  A    between atoms: C_16  and  C_13 
REMARK    6  A    between atoms: C_19  and  C_16 
ROOT
ATOM      1  C   UNL d   1     -40.047  15.084  18.292  0.00  0.00     0.064 A 
ATOM      2  C   UNL d   1     -39.286  14.843  18.503  0.00  0.00     0.105 A 
ATOM      3  C   UNL d   1     -39.870  15.375  19.585  0.00  0.00     0.139 A 
ATOM      4  C   UNL d   1     -40.405  15.412  18.959  0.00  0.00     0.220 A 
ATOM      5  O   UNL d   1     -39.171  15.021  19.306  0.00  0.00    -0.304 OA
ATOM      6  C   UNL d   1     -38.797  14.493  17.941  0.00  0.00     0.050 A 
ATOM      7  C   UNL d   1     -40.316  14.976  17.519  0.00  0.00     0.007 A 
ATOM      8  C   UNL d   1     -39.067  14.386  17.176  0.00  0.00     0.115 A 
ATOM      9  O   UNL d   1     -41.172  15.725  18.995  0.00  0.00    -0.284 OA
ATOM     10  C   UNL d   1     -39.823  14.624  16.958  0.00  0.00     0.026 A 
ENDROOT
BRANCH   3  11
ATOM     11  C   UNL d   1     -39.999  15.641  20.357  0.00  0.00     0.028 C 
BRANCH  11  12
ATOM     12  C   UNL d   1     -39.548  15.344  20.983  0.00  0.00     0.002 C 
BRANCH  12  13
ATOM     13  C   UNL d   1     -39.650  15.636  21.744  0.00  0.00     0.000 C 
BRANCH  13  14
ATOM     14  C   UNL d   1     -39.185  15.365  22.362  0.00  0.00     0.000 A 
ATOM     15  C   UNL d   1     -39.139  14.556  22.526  0.00  0.00     0.000 A 
ATOM     16  C   UNL d   1     -38.669  14.282  23.152  0.00  0.00     0.000 A 
ATOM     17  C   UNL d   1     -38.245  14.822  23.613  0.00  0.00     0.000 A 
ATOM     18  C   UNL d   1     -38.294  15.634  23.445  0.00  0.00     0.000 A 
ATOM     19  C   UNL d   1     -38.764  15.899  22.821  0.00  0.00     0.000 A 
ENDBRANCH  13  14
ENDBRANCH  12  13
ENDBRANCH  11  12
ENDBRANCH   3  11
BRANCH   8  20
ATOM     20  O   UNL d   1     -38.573  14.033  16.608  0.00  0.00    -0.230 OA
BRANCH  20  21
ATOM     21  S   UNL d   1     -38.263  14.489  15.992  0.00  0.00     0.285 S 
ATOM     22  O   UNL d   1     -38.320  13.671  15.888  0.00  0.00    -0.197 OA
ATOM     23  O   UNL d   1     -38.202  15.294  16.080  0.00  0.00    -0.197 OA
ATOM     24  C   UNL d   1     -37.940  14.553  15.225  0.00  0.00     0.172 C 
ENDBRANCH  20  21
ENDBRANCH   8  20
TORSDOF 6
ENDMDL
MODEL 6
REMARK VINA RESULT:      -5.6      2.019      2.732
REMARK  6 active torsions:
REMARK  status: ('A' for Active; 'I' for Inactive)
REMARK    1  A    between atoms: O_9  and  S_1 
REMARK    2  A    between atoms: C_10  and  C_4 
REMARK    3  A    between atoms: C_14  and  O_9 
REMARK    4  A    between atoms: C_13  and  C_10 
REMARK    5  A    between atoms: C_16  and  C_13 
REMARK    6  A    between atoms: C_19  and  C_16 
ROOT
ATOM      1  C   UNL d   1     -45.035  12.474  22.590  0.00  0.00     0.064 A 
ATOM      2  C   UNL d   1     -45.071  13.034  21.984  0.00  0.00     0.105 A 
ATOM      3  C   UNL d   1     -46.195  13.128  22.708  0.00  0.00     0.139 A 
ATOM      4  C   UNL d   1     -45.728  12.533  23.035  0.00  0.00     0.220 A 
ATOM      5  O   UNL d   1     -45.791  13.443  22.053  0.00  0.00    -0.304 OA
ATOM      6  C   UNL d   1     -44.449  13.100  21.450  0.00  0.00     0.050 A 
ATOM      7  C   UNL d   1     -44.375  11.982  22.660  0.00  0.00     0.007 A 
ATOM      8  C   UNL d   1     -43.797  12.611  21.522  0.00  0.00     0.115 A 
ATOM      9  O   UNL d   1     -45.921  12.073  23.697  0.00  0.00    -0.284 OA
ATOM     10  C   UNL d   1     -43.753  12.051  22.122  0.00  0.00     0.026 A 
ENDROOT
BRANCH   3  11
ATOM     11  C   UNL d   1     -46.937  13.372  22.979  0.00  0.00     0.028 C 
BRANCH  11  12
ATOM     12  C   UNL d   1     -47.600  13.319  22.487  0.00  0.00     0.002 C 
BRANCH  12  13
ATOM     13  C   UNL d   1     -48.331  13.595  22.743  0.00  0.00     0.000 C 
BRANCH  13  14
ATOM     14  C   UNL d   1     -49.020  13.369  22.363  0.00  0.00     0.000 A 
ATOM     15  C   UNL d   1     -49.321  12.606  22.462  0.00  0.00     0.000 A 
ATOM     16  C   UNL d   1     -50.019  12.378  22.077  0.00  0.00     0.000 A 
ATOM     17  C   UNL d   1     -50.414  12.917  21.592  0.00  0.00     0.000 A 
ATOM     18  C   UNL d   1     -50.109  13.683  21.494  0.00  0.00     0.000 A 
ATOM     19  C   UNL d   1     -49.414  13.903  21.880  0.00  0.00     0.000 A 
ENDBRANCH  13  14
ENDBRANCH  12  13
ENDBRANCH  11  12
ENDBRANCH   3  11
BRANCH   8  20
ATOM     20  O   UNL d   1     -43.168  12.678  20.982  0.00  0.00    -0.230 OA
BRANCH  20  21
ATOM     21  S   UNL d   1     -42.550  13.206  21.134  0.00  0.00     0.285 S 
ATOM     22  O   UNL d   1     -42.584  12.840  20.394  0.00  0.00    -0.197 OA
ATOM     23  O   UNL d   1     -42.505  13.573  21.858  0.00  0.00    -0.197 OA
ATOM     24  C   UNL d   1     -41.860  13.607  20.892  0.00  0.00     0.172 C 
ENDBRANCH  20  21
ENDBRANCH   8  20
TORSDOF 6
ENDMDL
MODEL 7
REMARK VINA RESULT:      -5.1      8.689     10.109
REMARK  6 active torsions:
REMARK  status: ('A' for Active; 'I' for Inactive)
REMARK    1  A    between atoms: O_9  and  S_1 
REMARK    2  A    between atoms: C_10  and  C_4 
REMARK    3  A    between atoms: C_14  and  O_9 
REMARK    4  A    between atoms: C_13  and  C_10 
REMARK    5  A    between atoms: C_16  and  C_13 
REMARK    6  A    between atoms: C_19  and  C_16 
ROOT
ATOM      1  C   UNL d   1     -38.947  14.390  17.699  0.00  0.00     0.064 A 
ATOM      2  C   UNL d   1     -39.212  15.075  18.077  0.00  0.00     0.105 A 
ATOM      3  C   UNL d   1     -38.391  14.427  18.914  0.00  0.00     0.139 A 
ATOM      4  C   UNL d   1     -38.442  13.992  18.216  0.00  0.00     0.220 A 
ATOM      5  O   UNL d   1     -38.869  15.103  18.833  0.00  0.00    -0.304 OA
ATOM      6  C   UNL d   1     -39.728  15.583  17.688  0.00  0.00     0.050 A 
ATOM      7  C   UNL d   1     -39.200  14.216  16.933  0.00  0.00     0.007 A 
ATOM      8  C   UNL d   1     -39.978  15.408  16.929  0.00  0.00     0.115 A 
ATOM      9  O   UNL d   1     -38.051  13.277  18.061  0.00  0.00    -0.284 OA
ATOM     10  C   UNL d   1     -39.719  14.728  16.546  0.00  0.00     0.026 A 
ENDROOT
BRANCH   3  11
ATOM     11  C   UNL d   1     -37.944  14.231  19.582  0.00  0.00     0.028 C 
BRANCH  11  12
ATOM     12  C   UNL d   1     -38.274  14.291  20.338  0.00  0.00     0.002 C 
BRANCH  12  13
ATOM     13  C   UNL d   1     -37.940  13.887  20.971  0.00  0.00     0.000 C 
BRANCH  13  14
ATOM     14  C   UNL d   1     -38.210  14.009  21.735  0.00  0.00     0.000 A 
ATOM     15  C   UNL d   1     -38.601  13.405  22.141  0.00  0.00     0.000 A 
ATOM     16  C   UNL d   1     -38.874  13.529  22.915  0.00  0.00     0.000 A 
ATOM     17  C   UNL d   1     -38.754  14.261  23.279  0.00  0.00     0.000 A 
ATOM     18  C   UNL d   1     -38.360  14.866  22.867  0.00  0.00     0.000 A 
ATOM     19  C   UNL d   1     -38.092  14.735  22.098  0.00  0.00     0.000 A 
ENDBRANCH  13  14
ENDBRANCH  12  13
ENDBRANCH  11  12
ENDBRANCH   3  11
BRANCH   8  20
ATOM     20  O   UNL d   1     -40.500  15.922  16.535  0.00  0.00    -0.230 OA
BRANCH  20  21
ATOM     21  S   UNL d   1     -41.316  15.807  16.600  0.00  0.00     0.285 S 
ATOM     22  O   UNL d   1     -40.992  15.922  15.848  0.00  0.00    -0.197 OA
ATOM     23  O   UNL d   1     -41.647  15.693  17.333  0.00  0.00    -0.197 OA
ATOM     24  C   UNL d   1     -42.071  15.740  16.252  0.00  0.00     0.172 C 
ENDBRANCH  20  21
ENDBRANCH   8  20
TORSDOF 6
ENDMDL
