MODEL 1
REMARK VINA RESULT:      -5.9      0.000      0.000
REMARK  8 active torsions:
REMARK  status: ('A' for Active; 'I' for Inactive)
REMARK    1  A    between atoms: C_2  and  S_1 
REMARK    2  A    between atoms: N_13  and  S_1 
REMARK    3  A    between atoms: C_16  and  C_4 
REMARK    4  A    between atoms: O_17  and  C_5 
REMARK    5  A    between atoms: N_8  and  C_18 
REMARK    6  A    between atoms: C_21  and  N_13 
REMARK    7  A    between atoms: C_18  and  C_19 
REMARK    8  A    between atoms: C_19  and  C_21 
ROOT
ATOM      1  C   UNL d   1     -48.687  13.250  23.077  0.00  0.00     0.128 A 
ATOM      2  C   UNL d   1     -48.827  14.060  22.959  0.00  0.00     0.015 A 
ATOM      3  C   UNL d   1     -49.570  14.376  23.128  0.00  0.00     0.001 A 
ATOM      4  C   UNL d   1     -49.288  12.760  23.362  0.00  0.00     0.106 A 
ATOM      5  C   UNL d   1     -50.174  13.881  23.415  0.00  0.00     0.002 A 
ATOM      6  C   UNL d   1     -50.031  13.076  23.531  0.00  0.00     0.025 A 
ATOM      7  C   UNL d   1     -50.917  14.197  23.584  0.00  0.00     0.000 C 
ENDROOT
BRANCH   1   8
ATOM      8  S   UNL d   1     -47.944  12.935  22.908  0.00  0.00     0.287 S 
ATOM      9  O   UNL d   1     -48.182  12.790  22.131  0.00  0.00    -0.198 OA
ATOM     10  O   UNL d   1     -47.706  13.079  23.685  0.00  0.00    -0.198 OA
BRANCH   8  11
ATOM     11  N   UNL d   1     -47.196  12.617  22.738  0.00  0.00    -0.157 NA
BRANCH  11  12
ATOM     12  C   UNL d   1     -46.551  13.125  22.617  0.00  0.00     0.114 C 
BRANCH  12  13
ATOM     13  C   UNL d   1     -45.801  12.809  22.481  0.00  0.00     0.041 C 
BRANCH  13  14
ATOM     14  C   UNL d   1     -45.209  13.267  22.127  0.00  0.00     0.083 C 
BRANCH  14  15
ATOM     15  N   UNL d   1     -44.480  12.932  21.932  0.00  0.00    -0.285 N 
ATOM     16  C   UNL d   1     -44.186  12.220  22.225  0.00  0.00     0.183 A 
ATOM     17  N   UNL d   1     -43.442  12.100  21.884  0.00  0.00    -0.222 NA
ATOM     18  C   UNL d   1     -43.282  12.737  21.385  0.00  0.00     0.120 A 
ATOM     19  C   UNL d   1     -43.928  13.253  21.416  0.00  0.00     0.102 A 
ENDBRANCH  14  15
ENDBRANCH  13  14
ENDBRANCH  12  13
ENDBRANCH  11  12
ENDBRANCH   8  11
ENDBRANCH   1   8
BRANCH   4  20
ATOM     20  O   UNL d   1     -49.145  11.957  23.477  0.00  0.00    -0.327 OA
ATOM     21  C   UNL d   1     -49.761  11.458  23.698  0.00  0.00     0.181 C 
ENDBRANCH   4  20
BRANCH   3  22
ATOM     22  C   UNL d   1     -49.714  15.179  23.013  0.00  0.00     0.000 C 
ATOM     23  C   UNL d   1     -49.679  15.501  22.254  0.00  0.00     0.000 C 
ATOM     24  C   UNL d   1     -49.893  15.659  23.657  0.00  0.00     0.000 C 
ENDBRANCH   3  22
TORSDOF 8
ENDMDL
MODEL 2
REMARK VINA RESULT:      -5.5      0.875      1.945
REMARK  8 active torsions:
REMARK  status: ('A' for Active; 'I' for Inactive)
REMARK    1  A    between atoms: C_2  and  S_1 
REMARK    2  A    between atoms: N_13  and  S_1 
REMARK    3  A    between atoms: C_16  and  C_4 
REMARK    4  A    between atoms: O_17  and  C_5 
REMARK    5  A    between atoms: N_8  and  C_18 
REMARK    6  A    between atoms: C_21  and  N_13 
REMARK    7  A    between atoms: C_18  and  C_19 
REMARK    8  A    between atoms: C_19  and  C_21 
ROOT
ATOM      1  C   UNL d   1     -48.379  13.730  22.761  0.00  0.00     0.128 A 
ATOM      2  C   UNL d   1     -48.721  12.976  22.830  0.00  0.00     0.015 A 
ATOM      3  C   UNL d   1     -49.539  12.904  22.915  0.00  0.00     0.001 A 
ATOM      4  C   UNL d   1     -48.853  14.406  22.777  0.00  0.00     0.106 A 
ATOM      5  C   UNL d   1     -50.014  13.585  22.931  0.00  0.00     0.002 A 
ATOM      6  C   UNL d   1     -49.670  14.334  22.862  0.00  0.00     0.025 A 
ATOM      7  C   UNL d   1     -50.831  13.513  23.015  0.00  0.00     0.000 C 
ENDROOT
BRANCH   1   8
ATOM      8  S   UNL d   1     -47.562  13.802  22.677  0.00  0.00     0.287 S 
ATOM      9  O   UNL d   1     -47.649  13.825  21.857  0.00  0.00    -0.198 OA
ATOM     10  O   UNL d   1     -47.475  13.779  23.498  0.00  0.00    -0.198 OA
BRANCH   8  11
ATOM     11  N   UNL d   1     -46.739  13.875  22.592  0.00  0.00    -0.157 NA
BRANCH  11  12
ATOM     12  C   UNL d   1     -46.274  13.195  22.491  0.00  0.00     0.114 C 
BRANCH  12  13
ATOM     13  C   UNL d   1     -45.492  13.267  22.236  0.00  0.00     0.041 C 
BRANCH  13  14
ATOM     14  C   UNL d   1     -45.093  12.618  21.913  0.00  0.00     0.083 C 
BRANCH  14  15
ATOM     15  N   UNL d   1     -44.279  12.651  21.779  0.00  0.00    -0.285 N 
ATOM     16  C   UNL d   1     -43.721  12.131  22.092  0.00  0.00     0.183 A 
ATOM     17  N   UNL d   1     -42.978  12.369  21.813  0.00  0.00    -0.222 NA
ATOM     18  C   UNL d   1     -43.084  13.031  21.332  0.00  0.00     0.120 A 
ATOM     19  C   UNL d   1     -43.893  13.205  21.312  0.00  0.00     0.102 A 
ENDBRANCH  14  15
ENDBRANCH  13  14
ENDBRANCH  12  13
ENDBRANCH  11  12
ENDBRANCH   8  11
ENDBRANCH   1   8
BRANCH   4  20
ATOM     20  O   UNL d   1     -48.510  15.152  22.709  0.00  0.00    -0.327 OA
ATOM     21  C   UNL d   1     -48.971  15.826  22.806  0.00  0.00     0.181 C 
ENDBRANCH   4  20
BRANCH   3  22
ATOM     22  C   UNL d   1     -49.883  12.159  22.983  0.00  0.00     0.000 C 
ATOM     23  C   UNL d   1     -50.223  11.924  23.697  0.00  0.00     0.000 C 
ATOM     24  C   UNL d   1     -49.885  11.648  22.338  0.00  0.00     0.000 C 
ENDBRANCH   3  22
TORSDOF 8
ENDMDL
MODEL 3
REMARK VINA RESULT:      -4.1      9.455     10.578
REMARK  8 active torsions:
REMARK  status: ('A' for Active; 'I' for Inactive)
REMARK    1  A    between atoms: C_2  and  S_1 
REMARK    2  A    between atoms: N_13  and  S_1 
REMARK    3  A    between atoms: C_16  and  C_4 
REMARK    4  A    between atoms: O_17  and  C_5 
REMARK    5  A    between atoms: N_8  and  C_18 
REMARK    6  A    between atoms: C_21  and  N_13 
REMARK    7  A    between atoms: C_18  and  C_19 
REMARK    8  A    between atoms: C_19  and  C_21 
ROOT
ATOM      1  C   UNL d   1     -38.696  14.042  18.143  0.00  0.00     0.128 A 
ATOM      2  C   UNL d   1     -38.835  14.750  17.732  0.00  0.00     0.015 A 
ATOM      3  C   UNL d   1     -38.756  14.770  16.911  0.00  0.00     0.001 A 
ATOM      4  C   UNL d   1     -38.479  13.358  17.733  0.00  0.00     0.106 A 
ATOM      5  C   UNL d   1     -38.538  14.081  16.501  0.00  0.00     0.002 A 
ATOM      6  C   UNL d   1     -38.400  13.377  16.912  0.00  0.00     0.025 A 
ATOM      7  C   UNL d   1     -38.459  14.100  15.680  0.00  0.00     0.000 C 
ENDROOT
BRANCH   1   8
ATOM      8  S   UNL d   1     -38.775  14.023  18.963  0.00  0.00     0.287 S 
ATOM      9  O   UNL d   1     -39.578  13.853  18.882  0.00  0.00    -0.198 OA
ATOM     10  O   UNL d   1     -37.971  14.192  19.045  0.00  0.00    -0.198 OA
BRANCH   8  11
ATOM     11  N   UNL d   1     -38.854  14.003  19.789  0.00  0.00    -0.157 NA
BRANCH  11  12
ATOM     12  C   UNL d   1     -38.615  14.657  20.242  0.00  0.00     0.114 C 
BRANCH  12  13
ATOM     13  C   UNL d   1     -38.690  14.636  21.063  0.00  0.00     0.041 C 
BRANCH  13  14
ATOM     14  C   UNL d   1     -38.652  15.333  21.508  0.00  0.00     0.083 C 
BRANCH  14  15
ATOM     15  N   UNL d   1     -38.633  15.305  22.332  0.00  0.00    -0.285 N 
ATOM     16  C   UNL d   1     -38.893  15.902  22.838  0.00  0.00     0.183 A 
ATOM     17  N   UNL d   1     -38.771  15.639  23.614  0.00  0.00    -0.222 NA
ATOM     18  C   UNL d   1     -38.438  14.885  23.580  0.00  0.00     0.120 A 
ATOM     19  C   UNL d   1     -38.353  14.679  22.784  0.00  0.00     0.102 A 
ENDBRANCH  14  15
ENDBRANCH  13  14
ENDBRANCH  12  13
ENDBRANCH  11  12
ENDBRANCH   8  11
ENDBRANCH   1   8
BRANCH   4  20
ATOM     20  O   UNL d   1     -38.342  12.657  18.144  0.00  0.00    -0.327 OA
ATOM     21  C   UNL d   1     -38.064  11.995  17.744  0.00  0.00     0.181 C 
ENDBRANCH   4  20
BRANCH   3  22
ATOM     22  C   UNL d   1     -38.893  15.470  16.499  0.00  0.00     0.000 C 
ATOM     23  C   UNL d   1     -38.258  15.922  16.229  0.00  0.00     0.000 C 
ATOM     24  C   UNL d   1     -39.665  15.718  16.359  0.00  0.00     0.000 C 
ENDBRANCH   3  22
TORSDOF 8
ENDMDL
MODEL 4
REMARK VINA RESULT:      -3.9      4.836      8.463
REMARK  8 active torsions:
REMARK  status: ('A' for Active; 'I' for Inactive)
REMARK    1  A    between atoms: C_2  and  S_1 
REMARK    2  A    between atoms: N_13  and  S_1 
REMARK    3  A    between atoms: C_16  and  C_4 
REMARK    4  A    between atoms: O_17  and  C_5 
REMARK    5  A    between atoms: N_8  and  C_18 
REMARK    6  A    between atoms: C_21  and  N_13 
REMARK    7  A    between atoms: C_18  and  C_19 
REMARK    8  A    between atoms: C_19  and  C_21 
ROOT
ATOM      1  C   UNL d   1     -40.393  14.884  19.950  0.00  0.00     0.128 A 
ATOM      2  C   UNL d   1     -40.548  14.774  19.141  0.00  0.00     0.015 A 
ATOM      3  C   UNL d   1     -40.053  15.120  18.579  0.00  0.00     0.001 A 
ATOM      4  C   UNL d   1     -39.747  15.338  20.193  0.00  0.00     0.106 A 
ATOM      5  C   UNL d   1     -39.404  15.576  18.825  0.00  0.00     0.002 A 
ATOM      6  C   UNL d   1     -39.252  15.683  19.631  0.00  0.00     0.025 A 
ATOM      7  C   UNL d   1     -38.909  15.922  18.263  0.00  0.00     0.000 C 
ENDROOT
BRANCH   1   8
ATOM      8  S   UNL d   1     -40.888  14.538  20.512  0.00  0.00     0.287 S 
ATOM      9  O   UNL d   1     -41.350  15.222  20.526  0.00  0.00    -0.198 OA
ATOM     10  O   UNL d   1     -40.426  13.854  20.498  0.00  0.00    -0.198 OA
BRANCH   8  11
ATOM     11  N   UNL d   1     -41.386  14.190  21.077  0.00  0.00    -0.157 NA
BRANCH  11  12
ATOM     12  C   UNL d   1     -41.970  13.651  20.836  0.00  0.00     0.114 C 
BRANCH  12  13
ATOM     13  C   UNL d   1     -42.576  13.445  21.356  0.00  0.00     0.041 C 
BRANCH  13  14
ATOM     14  C   UNL d   1     -43.075  12.805  21.189  0.00  0.00     0.083 C 
BRANCH  14  15
ATOM     15  N   UNL d   1     -43.748  12.667  21.646  0.00  0.00    -0.285 N 
ATOM     16  C   UNL d   1     -43.822  12.089  22.229  0.00  0.00     0.183 A 
ATOM     17  N   UNL d   1     -44.586  12.149  22.542  0.00  0.00    -0.222 NA
ATOM     18  C   UNL d   1     -44.976  12.762  22.151  0.00  0.00     0.120 A 
ATOM     19  C   UNL d   1     -44.455  13.083  21.595  0.00  0.00     0.102 A 
ENDBRANCH  14  15
ENDBRANCH  13  14
ENDBRANCH  12  13
ENDBRANCH  11  12
ENDBRANCH   8  11
ENDBRANCH   1   8
BRANCH   4  20
ATOM     20  O   UNL d   1     -39.597  15.444  20.996  0.00  0.00    -0.327 OA
ATOM     21  C   UNL d   1     -38.943  15.882  21.236  0.00  0.00     0.181 C 
ENDBRANCH   4  20
BRANCH   3  22
ATOM     22  C   UNL d   1     -40.203  15.014  17.776  0.00  0.00     0.000 C 
ATOM     23  C   UNL d   1     -40.719  15.522  17.381  0.00  0.00     0.000 C 
ATOM     24  C   UNL d   1     -39.836  14.400  17.369  0.00  0.00     0.000 C 
ENDBRANCH   3  22
TORSDOF 8
ENDMDL
MODEL 5
REMARK VINA RESULT:      -3.5      2.896      4.267
REMARK  8 active torsions:
REMARK  status: ('A' for Active; 'I' for Inactive)
REMARK    1  A    between atoms: C_2  and  S_1 
REMARK    2  A    between atoms: N_13  and  S_1 
REMARK    3  A    between atoms: C_16  and  C_4 
REMARK    4  A    between atoms: O_17  and  C_5 
REMARK    5  A    between atoms: N_8  and  C_18 
REMARK    6  A    between atoms: C_21  and  N_13 
REMARK    7  A    between atoms: C_18  and  C_19 
REMARK    8  A    between atoms: C_19  and  C_21 
ROOT
ATOM      1  C   UNL d   1     -44.651  12.563  22.210  0.00  0.00     0.128 A 
ATOM      2  C   UNL d   1     -45.245  13.139  22.144  0.00  0.00     0.015 A 
ATOM      3  C   UNL d   1     -45.942  13.060  22.580  0.00  0.00     0.001 A 
ATOM      4  C   UNL d   1     -44.753  11.912  22.708  0.00  0.00     0.106 A 
ATOM      5  C   UNL d   1     -46.043  12.404  23.080  0.00  0.00     0.002 A 
ATOM      6  C   UNL d   1     -45.450  11.833  23.143  0.00  0.00     0.025 A 
ATOM      7  C   UNL d   1     -46.740  12.325  23.516  0.00  0.00     0.000 C 
ENDROOT
BRANCH   1   8
ATOM      8  S   UNL d   1     -43.954  12.642  21.775  0.00  0.00     0.287 S 
ATOM      9  O   UNL d   1     -43.545  12.834  22.465  0.00  0.00    -0.198 OA
ATOM     10  O   UNL d   1     -44.365  12.451  21.084  0.00  0.00    -0.198 OA
BRANCH   8  11
ATOM     11  N   UNL d   1     -43.254  12.722  21.337  0.00  0.00    -0.157 NA
BRANCH  11  12
ATOM     12  C   UNL d   1     -42.880  13.462  21.288  0.00  0.00     0.114 C 
BRANCH  12  13
ATOM     13  C   UNL d   1     -42.125  13.519  20.960  0.00  0.00     0.041 C 
BRANCH  13  14
ATOM     14  C   UNL d   1     -41.770  14.258  20.847  0.00  0.00     0.083 C 
BRANCH  14  15
ATOM     15  N   UNL d   1     -40.981  14.313  20.615  0.00  0.00    -0.285 N 
ATOM     16  C   UNL d   1     -40.331  14.319  21.123  0.00  0.00     0.183 A 
ATOM     17  N   UNL d   1     -39.651  14.381  20.654  0.00  0.00    -0.222 NA
ATOM     18  C   UNL d   1     -39.886  14.413  19.864  0.00  0.00     0.120 A 
ATOM     19  C   UNL d   1     -40.712  14.371  19.841  0.00  0.00     0.102 A 
ENDBRANCH  14  15
ENDBRANCH  13  14
ENDBRANCH  12  13
ENDBRANCH  11  12
ENDBRANCH   8  11
ENDBRANCH   1   8
BRANCH   4  20
ATOM     20  O   UNL d   1     -44.161  11.343  22.770  0.00  0.00    -0.327 OA
ATOM     21  C   UNL d   1     -44.267  10.694  23.265  0.00  0.00     0.181 C 
ENDBRANCH   4  20
BRANCH   3  22
ATOM     22  C   UNL d   1     -46.535  13.629  22.518  0.00  0.00     0.000 C 
ATOM     23  C   UNL d   1     -46.459  14.349  22.913  0.00  0.00     0.000 C 
ATOM     24  C   UNL d   1     -47.202  13.476  22.061  0.00  0.00     0.000 C 
ENDBRANCH   3  22
TORSDOF 8
ENDMDL
MODEL 6
REMARK VINA RESULT:      -3.2      7.535      9.768
REMARK  8 active torsions:
REMARK  status: ('A' for Active; 'I' for Inactive)
REMARK    1  A    between atoms: C_2  and  S_1 
REMARK    2  A    between atoms: N_13  and  S_1 
REMARK    3  A    between atoms: C_16  and  C_4 
REMARK    4  A    between atoms: O_17  and  C_5 
REMARK    5  A    between atoms: N_8  and  C_18 
REMARK    6  A    between atoms: C_21  and  N_13 
REMARK    7  A    between atoms: C_18  and  C_19 
REMARK    8  A    between atoms: C_19  and  C_21 
ROOT
ATOM      1  C   UNL d   1     -39.725  14.792  20.251  0.00  0.00     0.128 A 
ATOM      2  C   UNL d   1     -39.072  14.359  20.527  0.00  0.00     0.015 A 
ATOM      3  C   UNL d   1     -39.051  14.105  21.311  0.00  0.00     0.001 A 
ATOM      4  C   UNL d   1     -40.352  14.969  20.759  0.00  0.00     0.106 A 
ATOM      5  C   UNL d   1     -39.683  14.283  21.820  0.00  0.00     0.002 A 
ATOM      6  C   UNL d   1     -40.331  14.714  21.543  0.00  0.00     0.025 A 
ATOM      7  C   UNL d   1     -39.662  14.028  22.605  0.00  0.00     0.000 C 
ENDROOT
BRANCH   1   8
ATOM      8  S   UNL d   1     -39.746  15.047  19.467  0.00  0.00     0.287 S 
ATOM      9  O   UNL d   1     -39.984  14.294  19.229  0.00  0.00    -0.198 OA
ATOM     10  O   UNL d   1     -39.507  15.801  19.706  0.00  0.00    -0.198 OA
BRANCH   8  11
ATOM     11  N   UNL d   1     -39.767  15.304  18.678  0.00  0.00    -0.157 NA
BRANCH  11  12
ATOM     12  C   UNL d   1     -39.063  15.341  18.238  0.00  0.00     0.114 C 
BRANCH  12  13
ATOM     13  C   UNL d   1     -39.087  15.580  17.449  0.00  0.00     0.041 C 
BRANCH  13  14
ATOM     14  C   UNL d   1     -38.391  15.788  17.051  0.00  0.00     0.083 C 
BRANCH  14  15
ATOM     15  N   UNL d   1     -38.221  15.472  16.308  0.00  0.00    -0.285 N 
ATOM     16  C   UNL d   1     -38.119  14.672  16.140  0.00  0.00     0.183 A 
ATOM     17  N   UNL d   1     -37.959  14.608  15.330  0.00  0.00    -0.222 NA
ATOM     18  C   UNL d   1     -37.965  15.366  15.006  0.00  0.00     0.120 A 
ATOM     19  C   UNL d   1     -38.128  15.902  15.615  0.00  0.00     0.102 A 
ENDBRANCH  14  15
ENDBRANCH  13  14
ENDBRANCH  12  13
ENDBRANCH  11  12
ENDBRANCH   8  11
ENDBRANCH   1   8
BRANCH   4  20
ATOM     20  O   UNL d   1     -40.998  15.398  20.482  0.00  0.00    -0.327 OA
ATOM     21  C   UNL d   1     -41.704  15.394  20.904  0.00  0.00     0.181 C 
ENDBRANCH   4  20
BRANCH   3  22
ATOM     22  C   UNL d   1     -38.405  13.675  21.588  0.00  0.00     0.000 C 
ATOM     23  C   UNL d   1     -37.971  13.950  22.234  0.00  0.00     0.000 C 
ATOM     24  C   UNL d   1     -38.194  12.970  21.220  0.00  0.00     0.000 C 
ENDBRANCH   3  22
TORSDOF 8
ENDMDL
MODEL 7
REMARK VINA RESULT:      -3.0      4.473      8.321
REMARK  8 active torsions:
REMARK  status: ('A' for Active; 'I' for Inactive)
REMARK    1  A    between atoms: C_2  and  S_1 
REMARK    2  A    between atoms: N_13  and  S_1 
REMARK    3  A    between atoms: C_16  and  C_4 
REMARK    4  A    between atoms: O_17  and  C_5 
REMARK    5  A    between atoms: N_8  and  C_18 
REMARK    6  A    between atoms: C_21  and  N_13 
REMARK    7  A    between atoms: C_18  and  C_19 
REMARK    8  A    between atoms: C_19  and  C_21 
ROOT
ATOM      1  C   UNL d   1     -40.434  14.426  20.737  0.00  0.00     0.128 A 
ATOM      2  C   UNL d   1     -39.955  14.094  21.328  0.00  0.00     0.015 A 
ATOM      3  C   UNL d   1     -39.147  14.262  21.344  0.00  0.00     0.001 A 
ATOM      4  C   UNL d   1     -40.106  14.924  20.165  0.00  0.00     0.106 A 
ATOM      5  C   UNL d   1     -38.819  14.763  20.768  0.00  0.00     0.002 A 
ATOM      6  C   UNL d   1     -39.299  15.092  20.180  0.00  0.00     0.025 A 
ATOM      7  C   UNL d   1     -38.012  14.932  20.783  0.00  0.00     0.000 C 
ENDROOT
BRANCH   1   8
ATOM      8  S   UNL d   1     -41.241  14.257  20.722  0.00  0.00     0.287 S 
ATOM      9  O   UNL d   1     -41.094  13.594  20.254  0.00  0.00    -0.198 OA
ATOM     10  O   UNL d   1     -41.389  14.922  21.190  0.00  0.00    -0.198 OA
BRANCH   8  11
ATOM     11  N   UNL d   1     -42.054  14.088  20.706  0.00  0.00    -0.157 NA
BRANCH  11  12
ATOM     12  C   UNL d   1     -42.340  13.408  21.088  0.00  0.00     0.114 C 
BRANCH  12  13
ATOM     13  C   UNL d   1     -43.130  13.373  21.324  0.00  0.00     0.041 C 
BRANCH  13  14
ATOM     14  C   UNL d   1     -43.495  12.644  21.466  0.00  0.00     0.083 C 
BRANCH  14  15
ATOM     15  N   UNL d   1     -44.180  12.600  21.923  0.00  0.00    -0.285 N 
ATOM     16  C   UNL d   1     -44.310  12.069  22.541  0.00  0.00     0.183 A 
ATOM     17  N   UNL d   1     -45.067  12.221  22.842  0.00  0.00    -0.222 NA
ATOM     18  C   UNL d   1     -45.396  12.842  22.410  0.00  0.00     0.120 A 
ATOM     19  C   UNL d   1     -44.844  13.076  21.840  0.00  0.00     0.102 A 
ENDBRANCH  14  15
ENDBRANCH  13  14
ENDBRANCH  12  13
ENDBRANCH  11  12
ENDBRANCH   8  11
ENDBRANCH   1   8
BRANCH   4  20
ATOM     20  O   UNL d   1     -40.584  15.251  19.580  0.00  0.00    -0.327 OA
ATOM     21  C   UNL d   1     -40.251  15.721  18.993  0.00  0.00     0.181 C 
ENDBRANCH   4  20
BRANCH   3  22
ATOM     22  C   UNL d   1     -38.668  13.935  21.929  0.00  0.00     0.000 C 
ATOM     23  C   UNL d   1     -38.282  13.219  21.794  0.00  0.00     0.000 C 
ATOM     24  C   UNL d   1     -38.577  14.325  22.648  0.00  0.00     0.000 C 
ENDBRANCH   3  22
TORSDOF 8
ENDMDL
