MODEL 1
REMARK VINA RESULT:      43.4      0.000      0.000
REMARK  3 active torsions:
REMARK  status: ('A' for Active; 'I' for Inactive)
REMARK    1  A    between atoms: C_2  and  C_1 
REMARK       I    between atoms: N_7  and  C_2 
REMARK    2  A    between atoms: C_9  and  N_7 
REMARK    3  A    between atoms: O_16  and  C_10 
ROOT
ATOM      1  C   UNL d   1     -55.133 -99.310 -44.938  0.00  0.00     0.280 C 
ATOM      2  N   UNL d   1     -54.713-100.019 -44.938  0.00  0.00    -0.208 NA
ATOM      3  O   UNL d   1     -55.002 -98.757 -45.542  0.00  0.00    -0.265 OA
ENDROOT
BRANCH   1   4
ATOM      4  C   UNL d   1     -55.681 -99.149 -44.342  0.00  0.00     0.065 A 
ATOM      5  C   UNL d   1     -56.489 -99.036 -44.443  0.00  0.00     0.011 A 
ATOM      6  C   UNL d   1     -56.813 -98.892 -43.702  0.00  0.00     0.030 A 
ATOM      7  C   UNL d   1     -56.975 -99.046 -45.114  0.00  0.00     0.001 A 
ATOM      8  C   UNL d   1     -57.628 -98.755 -43.624  0.00  0.00     0.006 A 
ATOM      9  S   UNL d   1     -56.210 -98.915 -43.146  0.00  0.00    -0.086 SA
ATOM     10  C   UNL d   1     -58.106 -98.765 -44.283  0.00  0.00     0.001 A 
ATOM     11  C   UNL d   1     -57.782 -98.910 -45.031  0.00  0.00     0.000 A 
ATOM     12  C   UNL d   1     -55.509 -99.076 -43.554  0.00  0.00     0.040 A 
ENDBRANCH   1   4
BRANCH   2  13
ATOM     13  C   UNL d   1     -54.845-100.570 -44.335  0.00  0.00     0.085 A 
ATOM     14  C   UNL d   1     -54.805-100.331 -43.550  0.00  0.00     0.021 A 
ATOM     15  C   UNL d   1     -54.938-100.884 -42.940  0.00  0.00     0.026 A 
ATOM     16  C   UNL d   1     -55.108-101.670 -43.123  0.00  0.00     0.094 A 
ATOM     17  C   UNL d   1     -55.146-101.904 -43.916  0.00  0.00     0.026 A 
ATOM     18  C   UNL d   1     -55.015-101.357 -44.518  0.00  0.00     0.021 A 
BRANCH  16  19
ATOM     19  O   UNL d   1     -55.237-102.212 -42.502  0.00  0.00    -0.328 OA
ATOM     20  C   UNL d   1     -54.717-102.250 -41.863  0.00  0.00     0.181 C 
ENDBRANCH  16  19
ENDBRANCH   2  13
TORSDOF 3
ENDMDL
