MODEL 1
REMARK VINA RESULT:      25.1      0.000      0.000
REMARK  3 active torsions:
REMARK  status: ('A' for Active; 'I' for Inactive)
REMARK       I    between atoms: C_2  and  N_1 
REMARK    1  A    between atoms: C_3  and  C_2 
REMARK    2  A    between atoms: S_5  and  C_3 
REMARK    3  A    between atoms: C_7  and  S_5 
ROOT
ATOM      1  C   UNL d   1     -55.824 -99.375 -44.051  0.00  0.00     0.125 C 
ENDROOT
BRANCH   1   2
ATOM      2  C   UNL d   1     -55.465 -99.856 -44.616  0.00  0.00     0.259 C 
ATOM      3  N   UNL d   1     -55.265-100.642 -44.430  0.00  0.00    -0.268 N 
ATOM      4  C   UNL d   1     -55.432-100.931 -43.674  0.00  0.00     0.110 A 
ATOM      5  C   UNL d   1     -54.906-101.130 -44.988  0.00  0.00     0.110 A 
ATOM      6  C   UNL d   1     -55.238-101.709 -43.480  0.00  0.00     0.142 A 
ATOM      7  O   UNL d   1     -54.879-102.197 -44.038  0.00  0.00    -0.300 OA
ATOM      8  C   UNL d   1     -54.712-101.908 -44.793  0.00  0.00     0.142 A 
ATOM      9  O   UNL d   1     -55.299 -99.563 -45.374  0.00  0.00    -0.267 OA
ENDBRANCH   1   2
BRANCH   1  10
ATOM     10  S   UNL d   1     -56.300 -98.756 -44.298  0.00  0.00    -0.095 SA
BRANCH  10  11
ATOM     11  C   UNL d   1     -57.105 -98.762 -44.121  0.00  0.00     0.029 A 
ATOM     12  C   UNL d   1     -57.355 -98.756 -43.335  0.00  0.00     0.007 A 
ATOM     13  C   UNL d   1     -58.161 -98.762 -43.158  0.00  0.00     0.012 A 
ATOM     14  C   UNL d   1     -58.716 -98.774 -43.768  0.00  0.00     0.058 A 
ATOM     15  C   UNL d   1     -58.467 -98.780 -44.554  0.00  0.00     0.012 A 
ATOM     16 CL   UNL d   1     -59.525 -98.780 -43.604  0.00  0.00    -0.082 Cl
ATOM     17  C   UNL d   1     -57.661 -98.774 -44.731  0.00  0.00     0.007 A 
ENDBRANCH  10  11
ENDBRANCH   1  10
TORSDOF 3
ENDMDL
