MODEL 1
REMARK VINA RESULT:      -7.6      0.000      0.000
REMARK  5 active torsions:
REMARK  status: ('A' for Active; 'I' for Inactive)
REMARK    1  A    between atoms: S_2  and  C_1 
REMARK    2  A    between atoms: N_11  and  S_2 
REMARK    3  A    between atoms: C_14  and  N_11 
REMARK    4  A    between atoms: C_16  and  C_14 
REMARK    5  A    between atoms: C_15  and  C_16 
ROOT
ATOM      1  S   UNL d   1      53.362  33.129  53.765  0.00  0.00     0.287 S 
ATOM      2  O   UNL d   1      53.811  33.309  53.058  0.00  0.00    -0.198 OA
ATOM      3  O   UNL d   1      52.936  32.942  54.450  0.00  0.00    -0.198 OA
ENDROOT
BRANCH   1   4
ATOM      4  C   UNL d   1      52.931  33.834  53.671  0.00  0.00     0.125 A 
ATOM      5  C   UNL d   1      53.111  34.506  54.141  0.00  0.00     0.121 A 
ATOM      6  N   UNL d   1      53.681  34.634  54.739  0.00  0.00    -0.190 NA
ATOM      7  C   UNL d   1      52.674  35.197  54.035  0.00  0.00     0.110 A 
ATOM      8  S   UNL d   1      53.576  35.413  54.988  0.00  0.00     0.117 SA
ATOM      9  N   UNL d   1      52.959  35.760  54.557  0.00  0.00    -0.190 NA
ATOM     10  C   UNL d   1      52.057  35.221  53.460  0.00  0.00     0.021 A 
ATOM     11  C   UNL d   1      51.893  34.553  53.007  0.00  0.00     0.002 A 
ATOM     12  C   UNL d   1      52.322  33.858  53.103  0.00  0.00     0.015 A 
ENDBRANCH   1   4
BRANCH   1  13
ATOM     13  N   UNL d   1      53.803  32.419  53.851  0.00  0.00    -0.157 NA
BRANCH  13  14
ATOM     14  C   UNL d   1      53.450  31.672  53.715  0.00  0.00     0.112 C 
BRANCH  14  15
ATOM     15  C   UNL d   1      53.909  30.985  53.692  0.00  0.00     0.021 C 
BRANCH  15  16
ATOM     16  C   UNL d   1      53.518  30.238  53.727  0.00  0.00     0.002 A 
ATOM     17  C   UNL d   1      53.651  29.737  54.375  0.00  0.00     0.000 A 
ATOM     18  C   UNL d   1      53.271  29.016  54.404  0.00  0.00     0.000 A 
ATOM     19  C   UNL d   1      52.766  28.796  53.799  0.00  0.00     0.000 A 
ATOM     20  C   UNL d   1      52.635  29.281  53.169  0.00  0.00     0.000 A 
ATOM     21  C   UNL d   1      53.014  30.008  53.133  0.00  0.00     0.000 A 
ENDBRANCH  15  16
ENDBRANCH  14  15
ENDBRANCH  13  14
ENDBRANCH   1  13
TORSDOF 5
ENDMDL
MODEL 2
REMARK VINA RESULT:      -7.4      2.745      5.224
REMARK  5 active torsions:
REMARK  status: ('A' for Active; 'I' for Inactive)
REMARK    1  A    between atoms: S_2  and  C_1 
REMARK    2  A    between atoms: N_11  and  S_2 
REMARK    3  A    between atoms: C_14  and  N_11 
REMARK    4  A    between atoms: C_16  and  C_14 
REMARK    5  A    between atoms: C_15  and  C_16 
ROOT
ATOM      1  S   UNL d   1      51.154  34.057  52.788  0.00  0.00     0.287 S 
ATOM      2  O   UNL d   1      51.487  34.434  52.094  0.00  0.00    -0.198 OA
ATOM      3  O   UNL d   1      50.819  33.694  53.452  0.00  0.00    -0.198 OA
ENDROOT
BRANCH   1   4
ATOM      4  C   UNL d   1      51.907  34.040  53.140  0.00  0.00     0.125 A 
ATOM      5  C   UNL d   1      52.367  33.339  53.121  0.00  0.00     0.121 A 
ATOM      6  N   UNL d   1      52.221  32.582  52.796  0.00  0.00    -0.190 NA
ATOM      7  C   UNL d   1      53.112  33.338  53.475  0.00  0.00     0.110 A 
ATOM      8  S   UNL d   1      52.891  32.132  52.962  0.00  0.00     0.117 SA
ATOM      9  N   UNL d   1      53.439  32.594  53.379  0.00  0.00    -0.190 NA
ATOM     10  C   UNL d   1      53.401  34.038  53.849  0.00  0.00     0.021 A 
ATOM     11  C   UNL d   1      52.936  34.719  53.858  0.00  0.00     0.002 A 
ATOM     12  C   UNL d   1      52.192  34.731  53.508  0.00  0.00     0.015 A 
ENDBRANCH   1   4
BRANCH   1  13
ATOM     13  N   UNL d   1      50.397  34.080  52.423  0.00  0.00    -0.157 NA
BRANCH  13  14
ATOM     14  C   UNL d   1      49.836  34.665  52.630  0.00  0.00     0.112 C 
BRANCH  14  15
ATOM     15  C   UNL d   1      49.070  34.646  52.317  0.00  0.00     0.021 C 
BRANCH  15  16
ATOM     16  C   UNL d   1      48.552  35.292  52.482  0.00  0.00     0.002 A 
ATOM     17  C   UNL d   1      48.052  35.575  51.883  0.00  0.00     0.000 A 
ATOM     18  C   UNL d   1      47.552  36.199  52.047  0.00  0.00     0.000 A 
ATOM     19  C   UNL d   1      47.550  36.536  52.792  0.00  0.00     0.000 A 
ATOM     20  C   UNL d   1      48.035  36.262  53.375  0.00  0.00     0.000 A 
ATOM     21  C   UNL d   1      48.540  35.635  53.217  0.00  0.00     0.000 A 
ENDBRANCH  15  16
ENDBRANCH  14  15
ENDBRANCH  13  14
ENDBRANCH   1  13
TORSDOF 5
ENDMDL
MODEL 3
REMARK VINA RESULT:      -7.2      2.135      4.518
REMARK  5 active torsions:
REMARK  status: ('A' for Active; 'I' for Inactive)
REMARK    1  A    between atoms: S_2  and  C_1 
REMARK    2  A    between atoms: N_11  and  S_2 
REMARK    3  A    between atoms: C_14  and  N_11 
REMARK    4  A    between atoms: C_16  and  C_14 
REMARK    5  A    between atoms: C_15  and  C_16 
ROOT
ATOM      1  S   UNL d   1      52.004  33.358  53.070  0.00  0.00     0.287 S 
ATOM      2  O   UNL d   1      52.392  33.518  52.323  0.00  0.00    -0.198 OA
ATOM      3  O   UNL d   1      51.620  33.217  53.790  0.00  0.00    -0.198 OA
ENDROOT
BRANCH   1   4
ATOM      4  C   UNL d   1      52.463  32.671  53.162  0.00  0.00     0.125 A 
ATOM      5  C   UNL d   1      53.193  32.702  53.574  0.00  0.00     0.121 A 
ATOM      6  N   UNL d   1      53.600  33.330  53.947  0.00  0.00    -0.190 NA
ATOM      7  C   UNL d   1      53.636  32.011  53.656  0.00  0.00     0.110 A 
ATOM      8  S   UNL d   1      54.291  33.002  54.253  0.00  0.00     0.117 SA
ATOM      9  N   UNL d   1      54.315  32.193  54.075  0.00  0.00    -0.190 NA
ATOM     10  C   UNL d   1      53.352  31.287  53.328  0.00  0.00     0.021 A 
ATOM     11  C   UNL d   1      52.632  31.274  52.926  0.00  0.00     0.002 A 
ATOM     12  C   UNL d   1      52.182  31.957  52.838  0.00  0.00     0.015 A 
ENDBRANCH   1   4
BRANCH   1  13
ATOM     13  N   UNL d   1      51.545  34.055  52.967  0.00  0.00    -0.157 NA
BRANCH  13  14
ATOM     14  C   UNL d   1      50.812  34.033  52.564  0.00  0.00     0.112 C 
BRANCH  14  15
ATOM     15  C   UNL d   1      50.328  34.703  52.531  0.00  0.00     0.021 C 
BRANCH  15  16
ATOM     16  C   UNL d   1      49.654  34.687  52.022  0.00  0.00     0.002 A 
ATOM     17  C   UNL d   1      48.921  34.949  52.309  0.00  0.00     0.000 A 
ATOM     18  C   UNL d   1      48.273  34.933  51.815  0.00  0.00     0.000 A 
ATOM     19  C   UNL d   1      48.350  34.661  51.048  0.00  0.00     0.000 A 
ATOM     20  C   UNL d   1      49.062  34.406  50.767  0.00  0.00     0.000 A 
ATOM     21  C   UNL d   1      49.719  34.419  51.259  0.00  0.00     0.000 A 
ENDBRANCH  15  16
ENDBRANCH  14  15
ENDBRANCH  13  14
ENDBRANCH   1  13
TORSDOF 5
ENDMDL
MODEL 4
REMARK VINA RESULT:      -5.3     10.304     11.073
REMARK  5 active torsions:
REMARK  status: ('A' for Active; 'I' for Inactive)
REMARK    1  A    between atoms: S_2  and  C_1 
REMARK    2  A    between atoms: N_11  and  S_2 
REMARK    3  A    between atoms: C_14  and  N_11 
REMARK    4  A    between atoms: C_16  and  C_14 
REMARK    5  A    between atoms: C_15  and  C_16 
ROOT
ATOM      1  S   UNL d   1      45.145  29.807  58.970  0.00  0.00     0.287 S 
ATOM      2  O   UNL d   1      44.314  29.681  59.139  0.00  0.00    -0.198 OA
ATOM      3  O   UNL d   1      45.948  29.938  58.819  0.00  0.00    -0.198 OA
ENDROOT
BRANCH   1   4
ATOM      4  C   UNL d   1      45.097  29.273  58.334  0.00  0.00     0.125 A 
ATOM      5  C   UNL d   1      44.928  29.551  57.560  0.00  0.00     0.121 A 
ATOM      6  N   UNL d   1      44.784  30.318  57.260  0.00  0.00    -0.190 NA
ATOM      7  C   UNL d   1      44.883  29.008  56.941  0.00  0.00     0.110 A 
ATOM      8  S   UNL d   1      44.653  30.223  56.452  0.00  0.00     0.117 SA
ATOM      9  N   UNL d   1      44.714  29.420  56.254  0.00  0.00    -0.190 NA
ATOM     10  C   UNL d   1      45.007  28.187  57.092  0.00  0.00     0.021 A 
ATOM     11  C   UNL d   1      45.172  27.931  57.857  0.00  0.00     0.002 A 
ATOM     12  C   UNL d   1      45.219  28.463  58.483  0.00  0.00     0.015 A 
ENDBRANCH   1   4
BRANCH   1  13
ATOM     13  N   UNL d   1      45.183  30.345  59.615  0.00  0.00    -0.157 NA
BRANCH  13  14
ATOM     14  C   UNL d   1      44.841  30.155  60.355  0.00  0.00     0.112 C 
BRANCH  14  15
ATOM     15  C   UNL d   1      44.819  30.713  60.965  0.00  0.00     0.021 C 
BRANCH  15  16
ATOM     16  C   UNL d   1      44.683  30.442  61.754  0.00  0.00     0.002 A 
ATOM     17  C   UNL d   1      44.456  30.986  62.338  0.00  0.00     0.000 A 
ATOM     18  C   UNL d   1      44.326  30.720  63.098  0.00  0.00     0.000 A 
ATOM     19  C   UNL d   1      44.419  29.927  63.275  0.00  0.00     0.000 A 
ATOM     20  C   UNL d   1      44.640  29.397  62.708  0.00  0.00     0.000 A 
ATOM     21  C   UNL d   1      44.772  29.658  61.942  0.00  0.00     0.000 A 
ENDBRANCH  15  16
ENDBRANCH  14  15
ENDBRANCH  13  14
ENDBRANCH   1  13
TORSDOF 5
ENDMDL
MODEL 5
REMARK VINA RESULT:      -4.9     10.079     11.390
REMARK  5 active torsions:
REMARK  status: ('A' for Active; 'I' for Inactive)
REMARK    1  A    between atoms: S_2  and  C_1 
REMARK    2  A    between atoms: N_11  and  S_2 
REMARK    3  A    between atoms: C_14  and  N_11 
REMARK    4  A    between atoms: C_16  and  C_14 
REMARK    5  A    between atoms: C_15  and  C_16 
ROOT
ATOM      1  S   UNL d   1      45.067  27.228  57.784  0.00  0.00     0.287 S 
ATOM      2  O   UNL d   1      45.810  27.250  57.357  0.00  0.00    -0.198 OA
ATOM      3  O   UNL d   1      44.355  27.218  58.205  0.00  0.00    -0.198 OA
ENDROOT
BRANCH   1   4
ATOM      4  C   UNL d   1      44.819  26.584  57.319  0.00  0.00     0.125 A 
ATOM      5  C   UNL d   1      44.699  25.831  57.669  0.00  0.00     0.121 A 
ATOM      6  N   UNL d   1      44.782  25.559  58.455  0.00  0.00    -0.190 NA
ATOM      7  C   UNL d   1      44.453  25.203  57.193  0.00  0.00     0.110 A 
ATOM      8  S   UNL d   1      44.582  24.760  58.440  0.00  0.00     0.117 SA
ATOM      9  N   UNL d   1      44.379  24.540  57.667  0.00  0.00    -0.190 NA
ATOM     10  C   UNL d   1      44.325  25.326  56.368  0.00  0.00     0.021 A 
ATOM     11  C   UNL d   1      44.447  26.072  56.041  0.00  0.00     0.002 A 
ATOM     12  C   UNL d   1      44.693  26.705  56.504  0.00  0.00     0.015 A 
ENDBRANCH   1   4
BRANCH   1  13
ATOM     13  N   UNL d   1      45.328  27.878  58.248  0.00  0.00    -0.157 NA
BRANCH  13  14
ATOM     14  C   UNL d   1      45.036  28.651  58.110  0.00  0.00     0.112 C 
BRANCH  14  15
ATOM     15  C   UNL d   1      45.303  29.290  58.562  0.00  0.00     0.021 C 
BRANCH  15  16
ATOM     16  C   UNL d   1      44.977  30.054  58.411  0.00  0.00     0.002 A 
ATOM     17  C   UNL d   1      44.627  30.479  59.032  0.00  0.00     0.000 A 
ATOM     18  C   UNL d   1      44.314  31.216  58.881  0.00  0.00     0.000 A 
ATOM     19  C   UNL d   1      44.347  31.527  58.126  0.00  0.00     0.000 A 
ATOM     20  C   UNL d   1      44.686  31.116  57.520  0.00  0.00     0.000 A 
ATOM     21  C   UNL d   1      45.003  30.374  57.665  0.00  0.00     0.000 A 
ENDBRANCH  15  16
ENDBRANCH  14  15
ENDBRANCH  13  14
ENDBRANCH   1  13
TORSDOF 5
ENDMDL
