MODEL 1
REMARK VINA RESULT:      -8.3      0.000      0.000
REMARK  0 active torsions:
REMARK  status: ('A' for Active; 'I' for Inactive)
ROOT
ATOM      1  N   UNL d   1      52.761  32.482  53.334  0.00  0.00    -0.248 N 
ATOM      2  C   UNL d   1      52.341  33.172  53.446  0.00  0.00     0.208 A 
ATOM      3  C   UNL d   1      53.507  32.366  53.727  0.00  0.00     0.268 A 
ATOM      4  C   UNL d   1      53.792  32.936  54.204  0.00  0.00     0.074 A 
ATOM      5  N   UNL d   1      52.660  33.758  53.952  0.00  0.00    -0.218 NA
ATOM      6  C   UNL d   1      53.370  33.630  54.317  0.00  0.00     0.088 A 
ATOM      7  S   UNL d   1      51.606  33.304  53.069  0.00  0.00    -0.038 SA
ATOM      8  O   UNL d   1      53.935  31.664  53.613  0.00  0.00    -0.267 OA
ATOM      9  C   UNL d   1      52.471  31.864  52.828  0.00  0.00     0.104 C 
ATOM     10  C   UNL d   1      54.524  32.829  54.593  0.00  0.00     0.006 A 
ATOM     11  C   UNL d   1      53.677  34.236  54.826  0.00  0.00     0.019 A 
ATOM     12  C   UNL d   1      54.825  33.417  55.090  0.00  0.00     0.000 A 
ATOM     13  C   UNL d   1      54.400  34.115  55.203  0.00  0.00     0.002 A 
ENDROOT
TORSDOF 0
ENDMDL
MODEL 2
REMARK VINA RESULT:      -8.2      0.966      2.262
REMARK  0 active torsions:
REMARK  status: ('A' for Active; 'I' for Inactive)
ROOT
ATOM      1  N   UNL d   1      53.393  33.623  54.229  0.00  0.00    -0.248 N 
ATOM      2  C   UNL d   1      52.834  33.757  53.651  0.00  0.00     0.208 A 
ATOM      3  C   UNL d   1      53.709  32.842  54.347  0.00  0.00     0.268 A 
ATOM      4  C   UNL d   1      53.454  32.242  53.889  0.00  0.00     0.074 A 
ATOM      5  N   UNL d   1      52.580  33.112  53.182  0.00  0.00    -0.218 NA
ATOM      6  C   UNL d   1      52.892  32.377  53.308  0.00  0.00     0.088 A 
ATOM      7  S   UNL d   1      52.511  34.517  53.520  0.00  0.00    -0.038 SA
ATOM      8  O   UNL d   1      54.279  32.706  54.935  0.00  0.00    -0.267 OA
ATOM      9  C   UNL d   1      53.676  34.253  54.726  0.00  0.00     0.104 C 
ATOM     10  C   UNL d   1      53.761  31.472  54.000  0.00  0.00     0.006 A 
ATOM     11  C   UNL d   1      52.622  31.734  52.822  0.00  0.00     0.019 A 
ATOM     12  C   UNL d   1      53.501  30.846  53.529  0.00  0.00     0.000 A 
ATOM     13  C   UNL d   1      52.934  30.981  52.944  0.00  0.00     0.002 A 
ENDROOT
TORSDOF 0
ENDMDL
MODEL 3
REMARK VINA RESULT:      -8.2      1.377      2.309
REMARK  0 active torsions:
REMARK  status: ('A' for Active; 'I' for Inactive)
ROOT
ATOM      1  N   UNL d   1      53.473  32.444  53.780  0.00  0.00    -0.248 N 
ATOM      2  C   UNL d   1      53.642  33.036  54.314  0.00  0.00     0.208 A 
ATOM      3  C   UNL d   1      52.885  32.566  53.176  0.00  0.00     0.268 A 
ATOM      4  C   UNL d   1      52.501  33.262  53.138  0.00  0.00     0.074 A 
ATOM      5  N   UNL d   1      53.226  33.760  54.255  0.00  0.00    -0.218 NA
ATOM      6  C   UNL d   1      52.671  33.858  53.675  0.00  0.00     0.088 A 
ATOM      7  S   UNL d   1      54.216  32.935  54.914  0.00  0.00    -0.038 SA
ATOM      8  O   UNL d   1      52.713  31.963  52.632  0.00  0.00    -0.267 OA
ATOM      9  C   UNL d   1      53.873  31.694  53.808  0.00  0.00     0.104 C 
ATOM     10  C   UNL d   1      51.922  33.389  52.548  0.00  0.00     0.006 A 
ATOM     11  C   UNL d   1      52.260  34.600  53.631  0.00  0.00     0.019 A 
ATOM     12  C   UNL d   1      51.521  34.109  52.502  0.00  0.00     0.000 A 
ATOM     13  C   UNL d   1      51.692  34.708  53.043  0.00  0.00     0.002 A 
ENDROOT
TORSDOF 0
ENDMDL
MODEL 4
REMARK VINA RESULT:      -7.5      1.460      1.804
REMARK  0 active torsions:
REMARK  status: ('A' for Active; 'I' for Inactive)
ROOT
ATOM      1  N   UNL d   1      52.936  31.532  53.348  0.00  0.00    -0.248 N 
ATOM      2  C   UNL d   1      53.603  31.201  53.680  0.00  0.00     0.208 A 
ATOM      3  C   UNL d   1      52.752  32.352  53.480  0.00  0.00     0.268 A 
ATOM      4  C   UNL d   1      53.237  32.794  53.931  0.00  0.00     0.074 A 
ATOM      5  N   UNL d   1      54.098  31.685  54.151  0.00  0.00    -0.218 NA
ATOM      6  C   UNL d   1      53.908  32.462  54.266  0.00  0.00     0.088 A 
ATOM      7  S   UNL d   1      53.800  30.397  53.562  0.00  0.00    -0.038 SA
ATOM      8  O   UNL d   1      52.074  32.689  53.141  0.00  0.00    -0.267 OA
ATOM      9  C   UNL d   1      52.408  31.073  52.863  0.00  0.00     0.104 C 
ATOM     10  C   UNL d   1      53.063  33.601  54.065  0.00  0.00     0.006 A 
ATOM     11  C   UNL d   1      54.422  32.937  54.746  0.00  0.00     0.019 A 
ATOM     12  C   UNL d   1      53.561  34.065  54.532  0.00  0.00     0.000 A 
ATOM     13  C   UNL d   1      54.236  33.731  54.869  0.00  0.00     0.002 A 
ENDROOT
TORSDOF 0
ENDMDL
