MODEL 1
REMARK VINA RESULT:      -3.0      0.000      0.000
REMARK  3 active torsions:
REMARK  status: ('A' for Active; 'I' for Inactive)
REMARK    1  A    between atoms: N_2  and  S_1 
REMARK    2  A    between atoms: C_3  and  C_7 
REMARK       I    between atoms: N_4  and  C_3 
REMARK    3  A    between atoms: C_13  and  N_4 
ROOT
ATOM      1  N   UNL d   1      32.490  22.076 -21.004  0.00  0.00    -0.233 N 
ATOM      2  C   UNL d   1      32.752  20.634 -21.731  0.00  0.00     0.061 A 
ATOM      3  C   UNL d   1      33.104  21.991 -21.547  0.00  0.00     0.091 A 
ATOM      4  C   UNL d   1      32.015  21.443 -20.830  0.00  0.00     0.091 A 
ATOM      5  C   UNL d   1      32.138  20.719 -21.188  0.00  0.00     0.025 A 
ATOM      6  C   UNL d   1      33.241  21.273 -21.915  0.00  0.00     0.025 A 
ENDROOT
BRANCH   2   7
ATOM      7  C   UNL d   1      32.885  19.901 -22.101  0.00  0.00     0.279 C 
ATOM      8  N   UNL d   1      32.684  19.810 -22.903  0.00  0.00    -0.208 NA
ATOM      9  O   UNL d   1      33.209  19.280 -21.684  0.00  0.00    -0.265 OA
BRANCH   8  10
ATOM     10  C   UNL d   1      32.815  19.082 -23.277  0.00  0.00     0.085 A 
ATOM     11  C   UNL d   1      32.791  18.374 -22.834  0.00  0.00     0.019 A 
ATOM     12  C   UNL d   1      32.922  17.651 -23.215  0.00  0.00     0.002 A 
ATOM     13  C   UNL d   1      33.076  17.627 -24.024  0.00  0.00     0.000 A 
ATOM     14  C   UNL d   1      33.100  18.331 -24.465  0.00  0.00     0.002 A 
ATOM     15  C   UNL d   1      33.207  16.902 -24.402  0.00  0.00     0.000 C 
ATOM     16  C   UNL d   1      32.969  19.053 -24.087  0.00  0.00     0.019 A 
ENDBRANCH   8  10
ENDBRANCH   2   7
BRANCH   1  17
ATOM     17  S   UNL d   1      32.363  22.809 -20.639  0.00  0.00     0.252 S 
ATOM     18  O   UNL d   1      32.992  22.660 -20.126  0.00  0.00    -0.204 OA
ATOM     19  O   UNL d   1      31.691  22.923 -21.215  0.00  0.00    -0.204 OA
ATOM     20  C   UNL d   1      32.235  23.532 -20.281  0.00  0.00     0.164 C 
ENDBRANCH   1  17
TORSDOF 3
ENDMDL
MODEL 2
REMARK VINA RESULT:      -2.1      3.061      3.912
REMARK  3 active torsions:
REMARK  status: ('A' for Active; 'I' for Inactive)
REMARK    1  A    between atoms: N_2  and  S_1 
REMARK    2  A    between atoms: C_3  and  C_7 
REMARK       I    between atoms: N_4  and  C_3 
REMARK    3  A    between atoms: C_13  and  N_4 
ROOT
ATOM      1  N   UNL d   1      32.600  23.002 -18.460  0.00  0.00    -0.233 N 
ATOM      2  C   UNL d   1      32.561  23.035 -20.096  0.00  0.00     0.061 A 
ATOM      3  C   UNL d   1      32.124  23.548 -18.853  0.00  0.00     0.091 A 
ATOM      4  C   UNL d   1      33.051  22.480 -18.886  0.00  0.00     0.091 A 
ATOM      5  C   UNL d   1      33.038  22.489 -19.703  0.00  0.00     0.025 A 
ATOM      6  C   UNL d   1      32.099  23.570 -19.670  0.00  0.00     0.025 A 
ENDROOT
BRANCH   2   7
ATOM      7  C   UNL d   1      32.542  23.052 -20.927  0.00  0.00     0.279 C 
ATOM      8  N   UNL d   1      33.241  22.902 -21.351  0.00  0.00    -0.208 NA
ATOM      9  O   UNL d   1      31.847  23.213 -21.322  0.00  0.00    -0.265 OA
BRANCH   8  10
ATOM     10  C   UNL d   1      33.227  22.917 -22.180  0.00  0.00     0.085 A 
ATOM     11  C   UNL d   1      33.203  23.647 -22.585  0.00  0.00     0.019 A 
ATOM     12  C   UNL d   1      33.189  23.654 -23.413  0.00  0.00     0.002 A 
ATOM     13  C   UNL d   1      33.200  22.947 -23.836  0.00  0.00     0.000 A 
ATOM     14  C   UNL d   1      33.224  22.221 -23.433  0.00  0.00     0.002 A 
ATOM     15  C   UNL d   1      33.186  22.958 -24.663  0.00  0.00     0.000 C 
ATOM     16  C   UNL d   1      33.237  22.212 -22.609  0.00  0.00     0.019 A 
ENDBRANCH   8  10
ENDBRANCH   2   7
BRANCH   1  17
ATOM     17  S   UNL d   1      32.615  22.991 -17.632  0.00  0.00     0.252 S 
ATOM     18  O   UNL d   1      33.208  22.417 -17.653  0.00  0.00    -0.204 OA
ATOM     19  O   UNL d   1      31.975  23.611 -17.661  0.00  0.00    -0.204 OA
ATOM     20  C   UNL d   1      32.628  22.982 -16.815  0.00  0.00     0.164 C 
ENDBRANCH   1  17
TORSDOF 3
ENDMDL
MODEL 3
REMARK VINA RESULT:      -1.5      1.683      4.880
REMARK  3 active torsions:
REMARK  status: ('A' for Active; 'I' for Inactive)
REMARK    1  A    between atoms: N_2  and  S_1 
REMARK    2  A    between atoms: C_3  and  C_7 
REMARK       I    between atoms: N_4  and  C_3 
REMARK    3  A    between atoms: C_13  and  N_4 
ROOT
ATOM      1  N   UNL d   1      32.931  19.726 -22.981  0.00  0.00    -0.233 N 
ATOM      2  C   UNL d   1      32.950  20.909 -21.851  0.00  0.00     0.061 A 
ATOM      3  C   UNL d   1      32.640  19.581 -22.224  0.00  0.00     0.091 A 
ATOM      4  C   UNL d   1      33.227  20.457 -23.166  0.00  0.00     0.091 A 
ATOM      5  C   UNL d   1      33.241  21.054 -22.608  0.00  0.00     0.025 A 
ATOM      6  C   UNL d   1      32.647  20.168 -21.653  0.00  0.00     0.025 A 
ENDROOT
BRANCH   2   7
ATOM      7  C   UNL d   1      32.961  21.511 -21.276  0.00  0.00     0.279 C 
ATOM      8  N   UNL d   1      32.748  21.326 -20.494  0.00  0.00    -0.208 NA
ATOM      9  O   UNL d   1      33.176  22.271 -21.476  0.00  0.00    -0.265 OA
BRANCH   8  10
ATOM     10  C   UNL d   1      32.756  21.921 -19.917  0.00  0.00     0.085 A 
ATOM     11  C   UNL d   1      32.302  22.614 -20.024  0.00  0.00     0.019 A 
ATOM     12  C   UNL d   1      32.316  23.204 -19.442  0.00  0.00     0.002 A 
ATOM     13  C   UNL d   1      32.773  23.111 -18.764  0.00  0.00     0.000 A 
ATOM     14  C   UNL d   1      33.225  22.421 -18.657  0.00  0.00     0.002 A 
ATOM     15  C   UNL d   1      32.784  23.702 -18.185  0.00  0.00     0.000 C 
ATOM     16  C   UNL d   1      33.212  21.833 -19.235  0.00  0.00     0.019 A 
ENDBRANCH   8  10
ENDBRANCH   2   7
BRANCH   1  17
ATOM     17  S   UNL d   1      32.918  19.123 -23.549  0.00  0.00     0.252 S 
ATOM     18  O   UNL d   1      32.817  19.688 -24.142  0.00  0.00    -0.204 OA
ATOM     19  O   UNL d   1      33.028  18.552 -22.872  0.00  0.00    -0.204 OA
ATOM     20  C   UNL d   1      32.905  18.526 -24.107  0.00  0.00     0.164 C 
ENDBRANCH   1  17
TORSDOF 3
ENDMDL
