MODEL 1
REMARK VINA RESULT:      -6.1      0.000      0.000
REMARK  8 active torsions:
REMARK  status: ('A' for Active; 'I' for Inactive)
REMARK    1  A    between atoms: C_2  and  N_1 
REMARK    2  A    between atoms: O_17  and  C_3 
REMARK    3  A    between atoms: O_18  and  C_4 
REMARK    4  A    between atoms: O_19  and  C_5 
REMARK    5  A    between atoms: O_21  and  C_6 
REMARK    6  A    between atoms: C_9  and  C_11 
REMARK    7  A    between atoms: C_12  and  C_9 
REMARK    8  A    between atoms: C_11  and  C_15 
ROOT
ATOM      1  C   UNL d   1     -48.089  13.045  22.692  0.00  0.00     0.000 C 
ENDROOT
BRANCH   1   2
ATOM      2  C   UNL d   1     -47.449  13.215  23.184  0.00  0.00     0.000 C 
BRANCH   2   3
ATOM      3  C   UNL d   1     -46.735  12.801  23.095  0.00  0.00     0.002 A 
ATOM      4  C   UNL d   1     -46.147  13.108  22.624  0.00  0.00     0.026 A 
ATOM      5  C   UNL d   1     -45.437  12.700  22.534  0.00  0.00     0.149 A 
ATOM      6  C   UNL d   1     -45.321  11.978  22.921  0.00  0.00     0.116 A 
ATOM      7  C   UNL d   1     -45.921  11.671  23.397  0.00  0.00     0.026 A 
ATOM      8  C   UNL d   1     -46.631  12.078  23.488  0.00  0.00     0.002 A 
BRANCH   5   9
ATOM      9  N   UNL d   1     -44.840  13.011  22.056  0.00  0.00    -0.112 N 
ATOM     10  O   UNL d   1     -44.525  13.757  22.223  0.00  0.00    -0.532 OA
ATOM     11  O   UNL d   1     -44.552  12.582  21.410  0.00  0.00    -0.532 OA
ENDBRANCH   5   9
BRANCH   6  12
ATOM     12  O   UNL d   1     -44.610  11.563  22.834  0.00  0.00    -0.326 OA
ATOM     13  C   UNL d   1     -44.432  10.938  23.347  0.00  0.00     0.181 C 
ENDBRANCH   6  12
ENDBRANCH   2   3
ENDBRANCH   1   2
BRANCH   1  14
ATOM     14  C   UNL d   1     -48.794  13.470  22.776  0.00  0.00     0.004 A 
ATOM     15  C   UNL d   1     -48.833  14.256  22.531  0.00  0.00     0.026 A 
ATOM     16  C   UNL d   1     -49.542  14.680  22.616  0.00  0.00     0.118 A 
ATOM     17  C   UNL d   1     -50.204  14.317  22.944  0.00  0.00     0.138 A 
ATOM     18  C   UNL d   1     -50.165  13.531  23.189  0.00  0.00     0.118 A 
ATOM     19  C   UNL d   1     -49.464  13.106  23.106  0.00  0.00     0.026 A 
BRANCH  16  20
ATOM     20  O   UNL d   1     -49.581  15.467  22.371  0.00  0.00    -0.326 OA
ATOM     21  C   UNL d   1     -48.892  15.872  22.172  0.00  0.00     0.181 C 
ENDBRANCH  16  20
BRANCH  17  22
ATOM     22  O   UNL d   1     -50.905  14.741  23.027  0.00  0.00    -0.324 OA
ATOM     23  C   UNL d   1     -51.030  15.201  23.698  0.00  0.00     0.182 C 
ENDBRANCH  17  22
BRANCH  18  24
ATOM     24  O   UNL d   1     -50.828  13.167  23.517  0.00  0.00    -0.326 OA
ATOM     25  C   UNL d   1     -50.916  12.351  23.462  0.00  0.00     0.181 C 
ENDBRANCH  18  24
ENDBRANCH   1  14
TORSDOF 8
ENDMDL
MODEL 2
REMARK VINA RESULT:      -5.2      9.144     10.001
REMARK  8 active torsions:
REMARK  status: ('A' for Active; 'I' for Inactive)
REMARK    1  A    between atoms: C_2  and  N_1 
REMARK    2  A    between atoms: O_17  and  C_3 
REMARK    3  A    between atoms: O_18  and  C_4 
REMARK    4  A    between atoms: O_19  and  C_5 
REMARK    5  A    between atoms: O_21  and  C_6 
REMARK    6  A    between atoms: C_9  and  C_11 
REMARK    7  A    between atoms: C_12  and  C_9 
REMARK    8  A    between atoms: C_11  and  C_15 
ROOT
ATOM      1  C   UNL d   1     -39.516  14.442  19.487  0.00  0.00     0.000 C 
ENDROOT
BRANCH   1   2
ATOM      2  C   UNL d   1     -38.891  14.798  19.892  0.00  0.00     0.000 C 
BRANCH   2   3
ATOM      3  C   UNL d   1     -38.924  14.878  20.718  0.00  0.00     0.002 A 
ATOM      4  C   UNL d   1     -38.811  14.227  21.191  0.00  0.00     0.026 A 
ATOM      5  C   UNL d   1     -38.843  14.303  22.010  0.00  0.00     0.149 A 
ATOM      6  C   UNL d   1     -38.988  15.041  22.353  0.00  0.00     0.116 A 
ATOM      7  C   UNL d   1     -39.101  15.699  21.869  0.00  0.00     0.026 A 
ATOM      8  C   UNL d   1     -39.070  15.625  21.050  0.00  0.00     0.002 A 
BRANCH   5   9
ATOM      9  N   UNL d   1     -38.729  13.642  22.491  0.00  0.00    -0.112 N 
ATOM     10  O   UNL d   1     -39.382  13.237  22.798  0.00  0.00    -0.532 OA
ATOM     11  O   UNL d   1     -37.965  13.378  22.670  0.00  0.00    -0.532 OA
ENDBRANCH   5   9
BRANCH   6  12
ATOM     12  O   UNL d   1     -39.021  15.124  23.176  0.00  0.00    -0.326 OA
ATOM     13  C   UNL d   1     -39.010  15.879  23.515  0.00  0.00     0.181 C 
ENDBRANCH   6  12
ENDBRANCH   2   3
ENDBRANCH   1   2
BRANCH   1  14
ATOM     14  C   UNL d   1     -39.469  14.343  18.667  0.00  0.00     0.004 A 
ATOM     15  C   UNL d   1     -39.879  14.855  18.166  0.00  0.00     0.026 A 
ATOM     16  C   UNL d   1     -39.831  14.754  17.344  0.00  0.00     0.118 A 
ATOM     17  C   UNL d   1     -39.376  14.146  17.028  0.00  0.00     0.138 A 
ATOM     18  C   UNL d   1     -38.966  13.634  17.529  0.00  0.00     0.118 A 
ATOM     19  C   UNL d   1     -39.011  13.730  18.345  0.00  0.00     0.026 A 
BRANCH  16  20
ATOM     20  O   UNL d   1     -40.240  15.266  16.843  0.00  0.00    -0.326 OA
ATOM     21  C   UNL d   1     -40.945  15.611  17.093  0.00  0.00     0.181 C 
ENDBRANCH  16  20
BRANCH  17  22
ATOM     22  O   UNL d   1     -39.330  14.048  16.212  0.00  0.00    -0.324 OA
ATOM     23  C   UNL d   1     -38.717  14.399  15.790  0.00  0.00     0.182 C 
ENDBRANCH  17  22
BRANCH  18  24
ATOM     24  O   UNL d   1     -38.510  13.024  17.213  0.00  0.00    -0.326 OA
ATOM     25  C   UNL d   1     -38.322  12.371  17.677  0.00  0.00     0.181 C 
ENDBRANCH  18  24
ENDBRANCH   1  14
TORSDOF 8
ENDMDL
MODEL 3
REMARK VINA RESULT:      -5.1      1.345      5.083
REMARK  8 active torsions:
REMARK  status: ('A' for Active; 'I' for Inactive)
REMARK    1  A    between atoms: C_2  and  N_1 
REMARK    2  A    between atoms: O_17  and  C_3 
REMARK    3  A    between atoms: O_18  and  C_4 
REMARK    4  A    between atoms: O_19  and  C_5 
REMARK    5  A    between atoms: O_21  and  C_6 
REMARK    6  A    between atoms: C_9  and  C_11 
REMARK    7  A    between atoms: C_12  and  C_9 
REMARK    8  A    between atoms: C_11  and  C_15 
ROOT
ATOM      1  C   UNL d   1     -47.153  13.342  23.235  0.00  0.00     0.000 C 
ENDROOT
BRANCH   1   2
ATOM      2  C   UNL d   1     -47.713  13.450  22.639  0.00  0.00     0.000 C 
BRANCH   2   3
ATOM      3  C   UNL d   1     -48.467  13.744  22.825  0.00  0.00     0.002 A 
ATOM      4  C   UNL d   1     -49.111  13.249  22.798  0.00  0.00     0.026 A 
ATOM      5  C   UNL d   1     -49.860  13.538  22.983  0.00  0.00     0.149 A 
ATOM      6  C   UNL d   1     -49.959  14.331  23.195  0.00  0.00     0.116 A 
ATOM      7  C   UNL d   1     -49.302  14.829  23.221  0.00  0.00     0.026 A 
ATOM      8  C   UNL d   1     -48.552  14.542  23.037  0.00  0.00     0.002 A 
BRANCH   5   9
ATOM      9  N   UNL d   1     -50.514  13.035  22.955  0.00  0.00    -0.112 N 
ATOM     10  O   UNL d   1     -50.992  12.943  23.624  0.00  0.00    -0.532 OA
ATOM     11  O   UNL d   1     -50.698  12.621  22.262  0.00  0.00    -0.532 OA
ENDBRANCH   5   9
BRANCH   6  12
ATOM     12  O   UNL d   1     -50.709  14.627  23.381  0.00  0.00    -0.326 OA
ATOM     13  C   UNL d   1     -50.825  15.444  23.448  0.00  0.00     0.181 C 
ENDBRANCH   6  12
ENDBRANCH   2   3
ENDBRANCH   1   2
BRANCH   1  14
ATOM     14  C   UNL d   1     -46.501  12.850  23.101  0.00  0.00     0.004 A 
ATOM     15  C   UNL d   1     -45.874  13.116  22.636  0.00  0.00     0.026 A 
ATOM     16  C   UNL d   1     -45.221  12.621  22.503  0.00  0.00     0.118 A 
ATOM     17  C   UNL d   1     -45.199  11.867  22.832  0.00  0.00     0.138 A 
ATOM     18  C   UNL d   1     -45.826  11.601  23.297  0.00  0.00     0.118 A 
ATOM     19  C   UNL d   1     -46.476  12.089  23.433  0.00  0.00     0.026 A 
BRANCH  16  20
ATOM     20  O   UNL d   1     -44.593  12.886  22.038  0.00  0.00    -0.326 OA
ATOM     21  C   UNL d   1     -44.553  13.678  21.812  0.00  0.00     0.181 C 
ENDBRANCH  16  20
BRANCH  17  22
ATOM     22  O   UNL d   1     -44.550  11.379  22.698  0.00  0.00    -0.324 OA
ATOM     23  C   UNL d   1     -44.092  11.122  23.331  0.00  0.00     0.182 C 
ENDBRANCH  17  22
BRANCH  18  24
ATOM     24  O   UNL d   1     -45.805  10.847  23.628  0.00  0.00    -0.326 OA
ATOM     25  C   UNL d   1     -46.499  10.411  23.698  0.00  0.00     0.181 C 
ENDBRANCH  18  24
ENDBRANCH   1  14
TORSDOF 8
ENDMDL
MODEL 4
REMARK VINA RESULT:      -5.0      9.119      9.992
REMARK  8 active torsions:
REMARK  status: ('A' for Active; 'I' for Inactive)
REMARK    1  A    between atoms: C_2  and  N_1 
REMARK    2  A    between atoms: O_17  and  C_3 
REMARK    3  A    between atoms: O_18  and  C_4 
REMARK    4  A    between atoms: O_19  and  C_5 
REMARK    5  A    between atoms: O_21  and  C_6 
REMARK    6  A    between atoms: C_9  and  C_11 
REMARK    7  A    between atoms: C_12  and  C_9 
REMARK    8  A    between atoms: C_11  and  C_15 
ROOT
ATOM      1  C   UNL d   1     -39.605  14.581  19.519  0.00  0.00     0.000 C 
ENDROOT
BRANCH   1   2
ATOM      2  C   UNL d   1     -39.104  15.108  19.909  0.00  0.00     0.000 C 
BRANCH   2   3
ATOM      3  C   UNL d   1     -39.086  15.128  20.739  0.00  0.00     0.002 A 
ATOM      4  C   UNL d   1     -38.917  14.450  21.155  0.00  0.00     0.026 A 
ATOM      5  C   UNL d   1     -38.898  14.466  21.978  0.00  0.00     0.149 A 
ATOM      6  C   UNL d   1     -39.052  15.171  22.383  0.00  0.00     0.116 A 
ATOM      7  C   UNL d   1     -39.223  15.856  21.956  0.00  0.00     0.026 A 
ATOM      8  C   UNL d   1     -39.242  15.841  21.134  0.00  0.00     0.002 A 
BRANCH   5   9
ATOM      9  N   UNL d   1     -38.727  13.778  22.401  0.00  0.00    -0.112 N 
ATOM     10  O   UNL d   1     -37.940  13.573  22.553  0.00  0.00    -0.532 OA
ATOM     11  O   UNL d   1     -39.336  13.290  22.675  0.00  0.00    -0.532 OA
ENDBRANCH   5   9
BRANCH   6  12
ATOM     12  O   UNL d   1     -39.035  15.193  23.210  0.00  0.00    -0.326 OA
ATOM     13  C   UNL d   1     -39.045  15.922  23.603  0.00  0.00     0.181 C 
ENDBRANCH   6  12
ENDBRANCH   2   3
ENDBRANCH   1   2
BRANCH   1  14
ATOM     14  C   UNL d   1     -39.549  14.494  18.698  0.00  0.00     0.004 A 
ATOM     15  C   UNL d   1     -39.099  13.881  18.378  0.00  0.00     0.026 A 
ATOM     16  C   UNL d   1     -39.045  13.797  17.554  0.00  0.00     0.118 A 
ATOM     17  C   UNL d   1     -39.438  14.321  17.058  0.00  0.00     0.138 A 
ATOM     18  C   UNL d   1     -39.889  14.934  17.378  0.00  0.00     0.118 A 
ATOM     19  C   UNL d   1     -39.946  15.022  18.194  0.00  0.00     0.026 A 
BRANCH  16  20
ATOM     20  O   UNL d   1     -38.594  13.184  17.234  0.00  0.00    -0.326 OA
ATOM     21  C   UNL d   1     -38.396  12.531  17.697  0.00  0.00     0.181 C 
ENDBRANCH  16  20
BRANCH  17  22
ATOM     22  O   UNL d   1     -39.383  14.234  16.241  0.00  0.00    -0.324 OA
ATOM     23  C   UNL d   1     -38.739  14.550  15.837  0.00  0.00     0.182 C 
ENDBRANCH  17  22
BRANCH  18  24
ATOM     24  O   UNL d   1     -40.284  15.459  16.880  0.00  0.00    -0.326 OA
ATOM     25  C   UNL d   1     -41.066  15.662  17.038  0.00  0.00     0.181 C 
ENDBRANCH  18  24
ENDBRANCH   1  14
TORSDOF 8
ENDMDL
MODEL 5
REMARK VINA RESULT:      -3.8      1.281      5.279
REMARK  8 active torsions:
REMARK  status: ('A' for Active; 'I' for Inactive)
REMARK    1  A    between atoms: C_2  and  N_1 
REMARK    2  A    between atoms: O_17  and  C_3 
REMARK    3  A    between atoms: O_18  and  C_4 
REMARK    4  A    between atoms: O_19  and  C_5 
REMARK    5  A    between atoms: O_21  and  C_6 
REMARK    6  A    between atoms: C_9  and  C_11 
REMARK    7  A    between atoms: C_12  and  C_9 
REMARK    8  A    between atoms: C_11  and  C_15 
ROOT
ATOM      1  C   UNL d   1     -47.075  12.480  23.030  0.00  0.00     0.000 C 
ENDROOT
BRANCH   1   2
ATOM      2  C   UNL d   1     -47.281  13.274  23.116  0.00  0.00     0.000 C 
BRANCH   2   3
ATOM      3  C   UNL d   1     -48.081  13.499  23.110  0.00  0.00     0.002 A 
ATOM      4  C   UNL d   1     -48.282  14.273  22.962  0.00  0.00     0.026 A 
ATOM      5  C   UNL d   1     -49.073  14.499  22.955  0.00  0.00     0.149 A 
ATOM      6  C   UNL d   1     -49.666  13.940  23.099  0.00  0.00     0.116 A 
ATOM      7  C   UNL d   1     -49.457  13.156  23.249  0.00  0.00     0.026 A 
ATOM      8  C   UNL d   1     -48.666  12.928  23.256  0.00  0.00     0.002 A 
BRANCH   5   9
ATOM      9  N   UNL d   1     -49.277  15.284  22.805  0.00  0.00    -0.112 N 
ATOM     10  O   UNL d   1     -49.348  15.550  22.025  0.00  0.00    -0.532 OA
ATOM     11  O   UNL d   1     -49.412  15.811  23.429  0.00  0.00    -0.532 OA
ENDBRANCH   5   9
BRANCH   6  12
ATOM     12  O   UNL d   1     -50.463  14.161  23.094  0.00  0.00    -0.326 OA
ATOM     13  C   UNL d   1     -51.052  13.581  23.142  0.00  0.00     0.181 C 
ENDBRANCH   6  12
ENDBRANCH   2   3
ENDBRANCH   1   2
BRANCH   1  14
ATOM     14  C   UNL d   1     -46.278  12.270  22.952  0.00  0.00     0.004 A 
ATOM     15  C   UNL d   1     -45.989  11.603  23.342  0.00  0.00     0.026 A 
ATOM     16  C   UNL d   1     -45.189  11.395  23.262  0.00  0.00     0.118 A 
ATOM     17  C   UNL d   1     -44.686  11.851  22.797  0.00  0.00     0.138 A 
ATOM     18  C   UNL d   1     -44.976  12.518  22.408  0.00  0.00     0.118 A 
ATOM     19  C   UNL d   1     -45.768  12.729  22.483  0.00  0.00     0.026 A 
BRANCH  16  20
ATOM     20  O   UNL d   1     -44.899  10.728  23.652  0.00  0.00    -0.326 OA
ATOM     21  C   UNL d   1     -45.354  10.042  23.692  0.00  0.00     0.181 C 
ENDBRANCH  16  20
BRANCH  17  22
ATOM     22  O   UNL d   1     -43.894  11.641  22.721  0.00  0.00    -0.324 OA
ATOM     23  C   UNL d   1     -43.587  11.027  23.173  0.00  0.00     0.182 C 
ENDBRANCH  17  22
BRANCH  18  24
ATOM     24  O   UNL d   1     -44.473  12.976  21.942  0.00  0.00    -0.326 OA
ATOM     25  C   UNL d   1     -44.757  13.661  21.585  0.00  0.00     0.181 C 
ENDBRANCH  18  24
ENDBRANCH   1  14
TORSDOF 8
ENDMDL
