MODEL 1
REMARK VINA RESULT:      54.0      0.000      0.000
REMARK  3 active torsions:
REMARK  status: ('A' for Active; 'I' for Inactive)
REMARK    1  A    between atoms: C_12  and  N_3 
REMARK    2  A    between atoms: C_11  and  C_6 
REMARK    3  A    between atoms: C_22  and  C_12 
ROOT
ATOM      1  C   UNL d   1      14.224  14.125  -2.639  0.00  0.00     0.130 A 
ATOM      2  C   UNL d   1      14.277  13.304  -2.580  0.00  0.00     0.157 A 
ATOM      3  N   UNL d   1      13.608  13.993  -3.926  0.00  0.00    -0.256 N 
ATOM      4  C   UNL d   1      13.890  14.464  -3.312  0.00  0.00     0.272 A 
ATOM      5  N   UNL d   1      13.997  12.822  -3.191  0.00  0.00    -0.208 NA
ATOM      6  C   UNL d   1      13.663  13.159  -3.864  0.00  0.00     0.175 A 
ATOM      7  C   UNL d   1      14.502  14.601  -2.033  0.00  0.00     0.204 A 
ATOM      8  N   UNL d   1      14.611  12.954  -1.907  0.00  0.00    -0.289 N 
ATOM      9  C   UNL d   1      14.836  14.258  -1.359  0.00  0.00     0.055 A 
ATOM     10  C   UNL d   1      14.893  13.438  -1.293  0.00  0.00     0.069 A 
ATOM     11  O   UNL d   1      13.834  15.284  -3.378  0.00  0.00    -0.266 OA
ATOM     12  O   UNL d   1      14.447  15.420  -2.095  0.00  0.00    -0.286 OA
ATOM     13  C   UNL d   1      14.668  12.134  -1.841  0.00  0.00     0.101 C 
ATOM     14  C   UNL d   1      15.114  14.741  -0.753  0.00  0.00     0.005 A 
ATOM     15  C   UNL d   1      15.226  13.100  -0.621  0.00  0.00     0.018 A 
ATOM     16  C   UNL d   1      15.448  14.403  -0.080  0.00  0.00     0.000 A 
ATOM     17  C   UNL d   1      15.504  13.583  -0.014  0.00  0.00     0.002 A 
ENDROOT
BRANCH   6  18
ATOM     18  C   UNL d   1      13.380  12.679  -4.482  0.00  0.00     0.135 A 
ATOM     19  O   UNL d   1      13.623  12.832  -5.256  0.00  0.00    -0.302 OA
ATOM     20  C   UNL d   1      13.258  12.276  -5.746  0.00  0.00     0.123 A 
ATOM     21  C   UNL d   1      12.792  11.781  -5.274  0.00  0.00     0.029 A 
ATOM     22  C   UNL d   1      12.869  12.033  -4.494  0.00  0.00     0.030 A 
ENDBRANCH   6  18
BRANCH   3  23
ATOM     23  C   UNL d   1      13.272  14.334  -4.603  0.00  0.00     0.085 C 
BRANCH  23  24
ATOM     24  C   UNL d   1      13.418  15.135  -4.780  0.00  0.00     0.018 C 
ATOM     25  C   UNL d   1      12.776  15.678  -4.810  0.00  0.00     0.002 C 
ATOM     26  C   UNL d   1      14.194  15.400  -4.927  0.00  0.00     0.002 C 
ENDBRANCH  23  24
ENDBRANCH   3  23
TORSDOF 3
ENDMDL
MODEL 2
REMARK VINA RESULT:      56.5      1.526      3.408
REMARK  3 active torsions:
REMARK  status: ('A' for Active; 'I' for Inactive)
REMARK    1  A    between atoms: C_12  and  N_3 
REMARK    2  A    between atoms: C_11  and  C_6 
REMARK    3  A    between atoms: C_22  and  C_12 
ROOT
ATOM      1  C   UNL d   1      14.288  14.345  -2.866  0.00  0.00     0.130 A 
ATOM      2  C   UNL d   1      14.578  14.558  -2.124  0.00  0.00     0.157 A 
ATOM      3  N   UNL d   1      14.074  13.008  -2.400  0.00  0.00    -0.256 N 
ATOM      4  C   UNL d   1      14.038  13.572  -2.999  0.00  0.00     0.272 A 
ATOM      5  N   UNL d   1      14.618  14.000  -1.515  0.00  0.00    -0.208 NA
ATOM      6  C   UNL d   1      14.369  13.226  -1.646  0.00  0.00     0.175 A 
ATOM      7  C   UNL d   1      14.250  14.901  -3.467  0.00  0.00     0.204 A 
ATOM      8  N   UNL d   1      14.832  15.334  -1.980  0.00  0.00    -0.289 N 
ATOM      9  C   UNL d   1      14.501  15.676  -3.332  0.00  0.00     0.055 A 
ATOM     10  C   UNL d   1      14.792  15.895  -2.591  0.00  0.00     0.069 A 
ATOM     11  O   UNL d   1      13.747  13.352  -3.739  0.00  0.00    -0.266 OA
ATOM     12  O   UNL d   1      13.959  14.685  -4.208  0.00  0.00    -0.286 OA
ATOM     13  C   UNL d   1      15.123  15.553  -1.240  0.00  0.00     0.101 C 
ATOM     14  C   UNL d   1      14.460  16.229  -3.939  0.00  0.00     0.005 A 
ATOM     15  C   UNL d   1      15.042  16.668  -2.459  0.00  0.00     0.018 A 
ATOM     16  C   UNL d   1      14.709  17.002  -3.807  0.00  0.00     0.000 A 
ATOM     17  C   UNL d   1      15.001  17.222  -3.067  0.00  0.00     0.002 A 
ENDROOT
BRANCH   6  18
ATOM     18  C   UNL d   1      14.407  12.660  -1.038  0.00  0.00     0.135 A 
ATOM     19  O   UNL d   1      15.140  12.359  -0.810  0.00  0.00    -0.302 OA
ATOM     20  C   UNL d   1      15.010  11.814  -0.203  0.00  0.00     0.123 A 
ATOM     21  C   UNL d   1      14.196  11.780  -0.058  0.00  0.00     0.029 A 
ATOM     22  C   UNL d   1      13.826  12.302  -0.574  0.00  0.00     0.030 A 
ENDBRANCH   6  18
BRANCH   3  23
ATOM     23  C   UNL d   1      13.822  12.229  -2.534  0.00  0.00     0.085 C 
BRANCH  23  24
ATOM     24  C   UNL d   1      13.580  11.997  -3.297  0.00  0.00     0.018 C 
ATOM     25  C   UNL d   1      14.158  11.812  -3.878  0.00  0.00     0.002 C 
ATOM     26  C   UNL d   1      12.769  11.947  -3.485  0.00  0.00     0.002 C 
ENDBRANCH  23  24
ENDBRANCH   3  23
TORSDOF 3
ENDMDL
