MODEL 1
REMARK VINA RESULT:      -2.6      0.000      0.000
REMARK  5 active torsions:
REMARK  status: ('A' for Active; 'I' for Inactive)
REMARK    1  A    between atoms: C_2  and  C_1 
REMARK       I    between atoms: N_3  and  C_1 
REMARK    2  A    between atoms: C_8  and  N_3 
REMARK    3  A    between atoms: C_5  and  C_4 
REMARK    4  A    between atoms: O_15  and  C_12 
REMARK    5  A    between atoms: O_16  and  C_13 
ROOT
ATOM      1  C   UNL d   1      32.644  20.708 -21.844  0.00  0.00     0.279 C 
ATOM      2  N   UNL d   1      33.241  20.393 -22.359  0.00  0.00    -0.208 NA
ATOM      3  O   UNL d   1      32.004  20.258 -21.638  0.00  0.00    -0.265 OA
ENDROOT
BRANCH   1   4
ATOM      4  C   UNL d   1      32.740  21.478 -21.565  0.00  0.00     0.062 A 
ATOM      5  C   UNL d   1      32.792  21.593 -20.742  0.00  0.00     0.029 A 
ATOM      6  C   UNL d   1      32.888  22.357 -20.445  0.00  0.00     0.096 A 
ATOM      7  C   UNL d   1      32.932  23.013 -20.986  0.00  0.00     0.048 A 
ATOM      8  C   UNL d   1      32.878  22.875 -21.797  0.00  0.00     0.096 A 
ATOM      9  C   UNL d   1      32.783  22.115 -22.090  0.00  0.00     0.029 A 
BRANCH   6  10
ATOM     10  O   UNL d   1      32.937  22.444 -19.614  0.00  0.00    -0.328 OA
ATOM     11  C   UNL d   1      33.086  23.195 -19.275  0.00  0.00     0.181 C 
ENDBRANCH   6  10
BRANCH   8  12
ATOM     12  O   UNL d   1      32.922  23.531 -22.333  0.00  0.00    -0.328 OA
ATOM     13  C   UNL d   1      32.325  23.648 -22.890  0.00  0.00     0.181 C 
ENDBRANCH   8  12
ENDBRANCH   1   4
BRANCH   2  14
ATOM     14  C   UNL d   1      33.133  19.620 -22.631  0.00  0.00     0.085 A 
ATOM     15  C   UNL d   1      32.910  19.504 -23.418  0.00  0.00     0.022 A 
ATOM     16  C   UNL d   1      32.796  18.789 -23.720  0.00  0.00     0.041 A 
ATOM     17  C   UNL d   1      32.906  18.103 -23.218  0.00  0.00     0.003 A 
ATOM     18  C   UNL d   1      33.128  18.207 -22.432  0.00  0.00     0.002 A 
ATOM     19  C   UNL d   1      33.240  18.973 -22.147  0.00  0.00     0.019 A 
BRANCH  16  20
ATOM     20  C   UNL d   1      32.569  18.695 -24.525  0.00  0.00     0.196 C 
ATOM     21  O   UNL d   1      31.987  18.142 -24.735  0.00  0.00    -0.287 OA
ATOM     22  C   UNL d   1      32.938  19.162 -25.097  0.00  0.00     0.045 C 
ENDBRANCH  16  20
ENDBRANCH   2  14
TORSDOF 5
ENDMDL
MODEL 2
REMARK VINA RESULT:      -2.2      1.799      5.294
REMARK  5 active torsions:
REMARK  status: ('A' for Active; 'I' for Inactive)
REMARK    1  A    between atoms: C_2  and  C_1 
REMARK       I    between atoms: N_3  and  C_1 
REMARK    2  A    between atoms: C_8  and  N_3 
REMARK    3  A    between atoms: C_5  and  C_4 
REMARK    4  A    between atoms: O_15  and  C_12 
REMARK    5  A    between atoms: O_16  and  C_13 
ROOT
ATOM      1  C   UNL d   1      32.302  18.467 -23.648  0.00  0.00     0.279 C 
ATOM      2  N   UNL d   1      32.609  18.671 -22.884  0.00  0.00    -0.208 NA
ATOM      3  O   UNL d   1      32.227  19.032 -24.223  0.00  0.00    -0.265 OA
ENDROOT
BRANCH   1   4
ATOM      4  C   UNL d   1      32.084  17.682 -23.782  0.00  0.00     0.062 A 
ATOM      5  C   UNL d   1      31.274  17.492 -23.767  0.00  0.00     0.029 A 
ATOM      6  C   UNL d   1      31.039  16.712 -23.898  0.00  0.00     0.096 A 
ATOM      7  C   UNL d   1      31.628  16.117 -24.047  0.00  0.00     0.048 A 
ATOM      8  C   UNL d   1      32.425  16.329 -24.057  0.00  0.00     0.096 A 
ATOM      9  C   UNL d   1      32.658  17.104 -23.926  0.00  0.00     0.029 A 
BRANCH   6  10
ATOM     10  O   UNL d   1      30.218  16.548 -23.877  0.00  0.00    -0.328 OA
ATOM     11  C   UNL d   1      29.911  15.987 -23.338  0.00  0.00     0.181 C 
ENDBRANCH   6  10
BRANCH   8  12
ATOM     12  O   UNL d   1      33.011  15.732 -24.206  0.00  0.00    -0.328 OA
ATOM     13  C   UNL d   1      33.240  15.566 -24.981  0.00  0.00     0.181 C 
ENDBRANCH   8  12
ENDBRANCH   1   4
BRANCH   2  14
ATOM     14  C   UNL d   1      32.823  19.460 -22.764  0.00  0.00     0.085 A 
ATOM     15  C   UNL d   1      32.827  19.757 -21.994  0.00  0.00     0.022 A 
ATOM     16  C   UNL d   1      33.023  20.500 -21.832  0.00  0.00     0.041 A 
ATOM     17  C   UNL d   1      33.241  21.022 -22.475  0.00  0.00     0.003 A 
ATOM     18  C   UNL d   1      33.241  20.737 -23.248  0.00  0.00     0.002 A 
ATOM     19  C   UNL d   1      33.029  19.951 -23.382  0.00  0.00     0.019 A 
BRANCH  16  20
ATOM     20  C   UNL d   1      33.020  20.780 -21.039  0.00  0.00     0.196 C 
ATOM     21  O   UNL d   1      33.101  20.250 -20.405  0.00  0.00    -0.287 OA
ATOM     22  C   UNL d   1      32.934  21.590 -20.906  0.00  0.00     0.045 C 
ENDBRANCH  16  20
ENDBRANCH   2  14
TORSDOF 5
ENDMDL
MODEL 3
REMARK VINA RESULT:      -2.0      0.988      4.438
REMARK  5 active torsions:
REMARK  status: ('A' for Active; 'I' for Inactive)
REMARK    1  A    between atoms: C_2  and  C_1 
REMARK       I    between atoms: N_3  and  C_1 
REMARK    2  A    between atoms: C_8  and  N_3 
REMARK    3  A    between atoms: C_5  and  C_4 
REMARK    4  A    between atoms: O_15  and  C_12 
REMARK    5  A    between atoms: O_16  and  C_13 
ROOT
ATOM      1  C   UNL d   1      32.891  19.927 -22.104  0.00  0.00     0.279 C 
ATOM      2  N   UNL d   1      33.196  20.716 -22.174  0.00  0.00    -0.208 NA
ATOM      3  O   UNL d   1      32.498  19.700 -21.433  0.00  0.00    -0.265 OA
ENDROOT
BRANCH   1   4
ATOM      4  C   UNL d   1      33.007  19.408 -22.734  0.00  0.00     0.062 A 
ATOM      5  C   UNL d   1      33.066  18.595 -22.566  0.00  0.00     0.029 A 
ATOM      6  C   UNL d   1      33.182  18.061 -23.185  0.00  0.00     0.096 A 
ATOM      7  C   UNL d   1      33.241  18.352 -23.982  0.00  0.00     0.048 A 
ATOM      8  C   UNL d   1      33.180  19.162 -24.124  0.00  0.00     0.096 A 
ATOM      9  C   UNL d   1      33.064  19.691 -23.509  0.00  0.00     0.029 A 
BRANCH   6  10
ATOM     10  O   UNL d   1      33.238  17.249 -22.989  0.00  0.00    -0.328 OA
ATOM     11  C   UNL d   1      32.738  16.689 -23.358  0.00  0.00     0.181 C 
ENDBRANCH   6  10
BRANCH   8  12
ATOM     12  O   UNL d   1      33.239  19.449 -24.921  0.00  0.00    -0.328 OA
ATOM     13  C   UNL d   1      33.205  20.260 -25.069  0.00  0.00     0.181 C 
ENDBRANCH   8  12
ENDBRANCH   1   4
BRANCH   2  14
ATOM     14  C   UNL d   1      33.072  21.226 -21.535  0.00  0.00     0.085 A 
ATOM     15  C   UNL d   1      32.769  21.979 -21.682  0.00  0.00     0.022 A 
ATOM     16  C   UNL d   1      32.635  22.497 -21.107  0.00  0.00     0.041 A 
ATOM     17  C   UNL d   1      32.810  22.273 -20.298  0.00  0.00     0.003 A 
ATOM     18  C   UNL d   1      33.113  21.524 -20.140  0.00  0.00     0.002 A 
ATOM     19  C   UNL d   1      33.241  21.005 -20.768  0.00  0.00     0.019 A 
BRANCH  16  20
ATOM     20  C   UNL d   1      32.326  23.259 -21.280  0.00  0.00     0.196 C 
ATOM     21  O   UNL d   1      32.606  23.687 -21.934  0.00  0.00    -0.287 OA
ATOM     22  C   UNL d   1      31.741  23.570 -20.789  0.00  0.00     0.045 C 
ENDBRANCH  16  20
ENDBRANCH   2  14
TORSDOF 5
ENDMDL
MODEL 4
REMARK VINA RESULT:      -1.5      0.952      4.635
REMARK  5 active torsions:
REMARK  status: ('A' for Active; 'I' for Inactive)
REMARK    1  A    between atoms: C_2  and  C_1 
REMARK       I    between atoms: N_3  and  C_1 
REMARK    2  A    between atoms: C_8  and  N_3 
REMARK    3  A    between atoms: C_5  and  C_4 
REMARK    4  A    between atoms: O_15  and  C_12 
REMARK    5  A    between atoms: O_16  and  C_13 
ROOT
ATOM      1  C   UNL d   1      32.858  19.783 -22.130  0.00  0.00     0.279 C 
ATOM      2  N   UNL d   1      33.240  20.539 -22.178  0.00  0.00    -0.208 NA
ATOM      3  O   UNL d   1      32.401  19.596 -21.489  0.00  0.00    -0.265 OA
ENDROOT
BRANCH   1   4
ATOM      4  C   UNL d   1      32.968  19.253 -22.753  0.00  0.00     0.062 A 
ATOM      5  C   UNL d   1      32.996  19.558 -23.526  0.00  0.00     0.029 A 
ATOM      6  C   UNL d   1      33.105  19.043 -24.162  0.00  0.00     0.096 A 
ATOM      7  C   UNL d   1      33.186  18.209 -24.014  0.00  0.00     0.048 A 
ATOM      8  C   UNL d   1      33.155  17.929 -23.239  0.00  0.00     0.096 A 
ATOM      9  C   UNL d   1      33.047  18.442 -22.609  0.00  0.00     0.029 A 
BRANCH   6  10
ATOM     10  O   UNL d   1      33.129  19.376 -24.930  0.00  0.00    -0.328 OA
ATOM     11  C   UNL d   1      32.719  20.087 -25.097  0.00  0.00     0.181 C 
ENDBRANCH   6  10
BRANCH   8  12
ATOM     12  O   UNL d   1      33.237  17.097 -23.095  0.00  0.00    -0.328 OA
ATOM     13  C   UNL d   1      32.574  16.607 -23.125  0.00  0.00     0.181 C 
ENDBRANCH   8  12
ENDBRANCH   1   4
BRANCH   2  14
ATOM     14  C   UNL d   1      33.122  21.060 -21.547  0.00  0.00     0.085 A 
ATOM     15  C   UNL d   1      32.899  21.838 -21.712  0.00  0.00     0.022 A 
ATOM     16  C   UNL d   1      32.776  22.367 -21.146  0.00  0.00     0.041 A 
ATOM     17  C   UNL d   1      32.876  22.133 -20.327  0.00  0.00     0.003 A 
ATOM     18  C   UNL d   1      33.098  21.359 -20.151  0.00  0.00     0.002 A 
ATOM     19  C   UNL d   1      33.220  20.828 -20.771  0.00  0.00     0.019 A 
BRANCH  16  20
ATOM     20  C   UNL d   1      32.549  23.154 -21.337  0.00  0.00     0.196 C 
ATOM     21  O   UNL d   1      33.013  23.612 -21.852  0.00  0.00    -0.287 OA
ATOM     22  C   UNL d   1      31.859  23.460 -21.003  0.00  0.00     0.045 C 
ENDBRANCH  16  20
ENDBRANCH   2  14
TORSDOF 5
ENDMDL
MODEL 5
REMARK VINA RESULT:      -1.0      3.116      5.856
REMARK  5 active torsions:
REMARK  status: ('A' for Active; 'I' for Inactive)
REMARK    1  A    between atoms: C_2  and  C_1 
REMARK       I    between atoms: N_3  and  C_1 
REMARK    2  A    between atoms: C_8  and  N_3 
REMARK    3  A    between atoms: C_5  and  C_4 
REMARK    4  A    between atoms: O_15  and  C_12 
REMARK    5  A    between atoms: O_16  and  C_13 
ROOT
ATOM      1  C   UNL d   1      30.775  17.316 -24.186  0.00  0.00     0.279 C 
ATOM      2  N   UNL d   1      31.588  17.132 -24.024  0.00  0.00    -0.208 NA
ATOM      3  O   UNL d   1      30.570  18.044 -24.473  0.00  0.00    -0.265 OA
ENDROOT
BRANCH   1   4
ATOM      4  C   UNL d   1      30.209  16.732 -24.043  0.00  0.00     0.062 A 
ATOM      5  C   UNL d   1      30.194  16.378 -23.290  0.00  0.00     0.029 A 
ATOM      6  C   UNL d   1      29.636  15.793 -23.129  0.00  0.00     0.096 A 
ATOM      7  C   UNL d   1      29.085  15.562 -23.736  0.00  0.00     0.048 A 
ATOM      8  C   UNL d   1      29.119  15.928 -24.474  0.00  0.00     0.096 A 
ATOM      9  C   UNL d   1      29.675  16.509 -24.633  0.00  0.00     0.029 A 
BRANCH   6  10
ATOM     10  O   UNL d   1      29.642  15.453 -22.364  0.00  0.00    -0.328 OA
ATOM     11  C   UNL d   1      28.989  15.551 -21.850  0.00  0.00     0.181 C 
ENDBRANCH   6  10
BRANCH   8  12
ATOM     12  O   UNL d   1      28.568  15.695 -25.077  0.00  0.00    -0.328 OA
ATOM     13  C   UNL d   1      27.768  15.613 -24.893  0.00  0.00     0.181 C 
ENDBRANCH   8  12
ENDBRANCH   1   4
BRANCH   2  14
ATOM     14  C   UNL d   1      32.144  17.725 -24.172  0.00  0.00     0.085 A 
ATOM     15  C   UNL d   1      32.278  18.297 -23.592  0.00  0.00     0.022 A 
ATOM     16  C   UNL d   1      32.796  18.878 -23.688  0.00  0.00     0.041 A 
ATOM     17  C   UNL d   1      33.239  18.924 -24.420  0.00  0.00     0.003 A 
ATOM     18  C   UNL d   1      33.113  18.359 -25.007  0.00  0.00     0.002 A 
ATOM     19  C   UNL d   1      32.561  17.761 -24.872  0.00  0.00     0.019 A 
BRANCH  16  20
ATOM     20  C   UNL d   1      32.917  19.449 -23.082  0.00  0.00     0.196 C 
ATOM     21  O   UNL d   1      32.873  20.260 -23.255  0.00  0.00    -0.287 OA
ATOM     22  C   UNL d   1      33.079  19.187 -22.317  0.00  0.00     0.045 C 
ENDBRANCH  16  20
ENDBRANCH   2  14
TORSDOF 5
ENDMDL
