MODEL 1
REMARK VINA RESULT:      42.8      0.000      0.000
REMARK  5 active torsions:
REMARK  status: ('A' for Active; 'I' for Inactive)
REMARK    1  A    between atoms: N_2  and  S_1 
REMARK    2  A    between atoms: C_7  and  S_1 
REMARK    3  A    between atoms: C_3  and  N_2 
REMARK    4  A    between atoms: N_6  and  C_8 
REMARK    5  A    between atoms: C_9  and  N_6 
ROOT
ATOM      1  C   UNL d   1     -57.407 -98.938 -44.298  0.00  0.00     0.111 A 
ATOM      2  C   UNL d   1     -58.062 -98.867 -44.793  0.00  0.00     0.100 A 
ATOM      3  C   UNL d   1     -57.534 -99.026 -43.486  0.00  0.00     0.021 A 
ATOM      4  C   UNL d   1     -58.824 -98.885 -44.487  0.00  0.00     0.021 A 
ATOM      5  C   UNL d   1     -58.296 -99.043 -43.180  0.00  0.00     0.002 A 
ATOM      6  C   UNL d   1     -58.949 -98.972 -43.680  0.00  0.00     0.002 A 
ENDROOT
BRANCH   1   7
ATOM      7  N   UNL d   1     -56.646 -98.921 -44.603  0.00  0.00    -0.157 NA
BRANCH   7   8
ATOM      8  S   UNL d   1     -56.171 -99.591 -44.570  0.00  0.00     0.285 S 
ATOM      9  O   UNL d   1     -56.618 -99.879 -43.938  0.00  0.00    -0.198 OA
ATOM     10  O   UNL d   1     -55.715 -99.295 -45.214  0.00  0.00    -0.198 OA
BRANCH   8  11
ATOM     11  C   UNL d   1     -55.682-100.277 -44.537  0.00  0.00     0.105 A 
ATOM     12  C   UNL d   1     -55.654-100.804 -45.190  0.00  0.00     0.013 A 
ATOM     13  C   UNL d   1     -55.175-101.469 -45.149  0.00  0.00     0.001 A 
ATOM     14  C   UNL d   1     -54.726-101.625 -44.485  0.00  0.00     0.000 A 
ATOM     15  C   UNL d   1     -54.755-101.098 -43.833  0.00  0.00     0.001 A 
ATOM     16  C   UNL d   1     -55.231-100.424 -43.856  0.00  0.00     0.013 A 
ENDBRANCH   8  11
ENDBRANCH   7   8
ENDBRANCH   1   7
BRANCH   2  17
ATOM     17  N   UNL d   1     -57.928 -98.777 -45.628  0.00  0.00    -0.244 NA
BRANCH  17  18
ATOM     18  C   UNL d   1     -58.556 -98.771 -46.157  0.00  0.00     0.081 A 
ATOM     19  C   UNL d   1     -58.402 -98.772 -46.952  0.00  0.00     0.019 A 
ATOM     20  C   UNL d   1     -59.017 -98.766 -47.502  0.00  0.00     0.002 A 
ATOM     21  C   UNL d   1     -59.804 -98.759 -47.241  0.00  0.00     0.000 A 
ATOM     22  C   UNL d   1     -59.959 -98.758 -46.432  0.00  0.00     0.002 A 
ATOM     23  C   UNL d   1     -59.339 -98.763 -45.884  0.00  0.00     0.019 A 
ENDBRANCH  17  18
ENDBRANCH   2  17
TORSDOF 5
ENDMDL
