MODEL 1
REMARK VINA RESULT:      43.6      0.000      0.000
REMARK  7 active torsions:
REMARK  status: ('A' for Active; 'I' for Inactive)
REMARK    1  A    between atoms: N_2  and  C_1 
REMARK    2  A    between atoms: N_4  and  C_3 
REMARK       I    between atoms: C_6  and  N_4 
REMARK    3  A    between atoms: C_7  and  C_6 
REMARK    4  A    between atoms: C_10  and  C_7 
REMARK    5  A    between atoms: C_14  and  C_10 
REMARK    6  A    between atoms: O_16  and  C_13 
REMARK    7  A    between atoms: C_17  and  O_16 
ROOT
ATOM      1  C   UNL d   1     -50.572  25.021  33.349  0.00  0.00     0.146 A 
ATOM      2  C   UNL d   1     -50.795  25.780  33.404  0.00  0.00     0.107 A 
ATOM      3  C   UNL d   1     -51.135  24.422  33.317  0.00  0.00     0.050 A 
ATOM      4  C   UNL d   1     -51.609  25.971  33.429  0.00  0.00     0.023 A 
ATOM      5  C   UNL d   1     -51.933  24.583  33.340  0.00  0.00     0.102 A 
ATOM      6  C   UNL d   1     -52.169  25.380  33.397  0.00  0.00     0.026 A 
ENDROOT
BRANCH   2   7
ATOM      7  N   UNL d   1     -50.241  26.422  33.439  0.00  0.00    -0.206 NA
ATOM      8  C   UNL d   1     -50.441  27.034  33.885  0.00  0.00     0.279 C 
ATOM      9  O   UNL d   1     -50.952  27.127  34.224  0.00  0.00    -0.265 OA
BRANCH   8  10
ATOM     10  C   UNL d   1     -49.892  27.668  33.918  0.00  0.00     0.062 C 
BRANCH  10  11
ATOM     11  C   UNL d   1     -49.340  27.725  34.530  0.00  0.00     0.005 C 
BRANCH  11  12
ATOM     12  C   UNL d   1     -48.878  28.414  34.598  0.00  0.00     0.000 A 
ATOM     13  C   UNL d   1     -49.056  29.053  34.199  0.00  0.00     0.000 A 
ATOM     14  C   UNL d   1     -48.566  29.720  34.297  0.00  0.00     0.000 A 
ATOM     15  C   UNL d   1     -47.929  29.684  34.799  0.00  0.00     0.000 A 
ATOM     16  C   UNL d   1     -47.753  29.040  35.199  0.00  0.00     0.000 A 
ATOM     17  C   UNL d   1     -48.229  28.375  35.110  0.00  0.00     0.000 A 
ENDBRANCH  11  12
ENDBRANCH  10  11
ENDBRANCH   8  10
ENDBRANCH   2   7
BRANCH   1  18
ATOM     18  N   UNL d   1     -49.747  24.862  33.326  0.00  0.00    -0.112 N 
ATOM     19  O   UNL d   1     -49.457  24.099  33.306  0.00  0.00    -0.532 OA
ATOM     20  O   UNL d   1     -49.192  25.515  33.323  0.00  0.00    -0.532 OA
ENDBRANCH   1  18
BRANCH   5  21
ATOM     21  O   UNL d   1     -52.492  23.961  33.306  0.00  0.00    -0.305 OA
BRANCH  21  22
ATOM     22  C   UNL d   1     -53.215  24.026  33.630  0.00  0.00     0.123 C 
ATOM     23  C   UNL d   1     -53.802  23.418  33.497  0.00  0.00     0.029 C 
ENDBRANCH  21  22
ENDBRANCH   5  21
TORSDOF 7
ENDMDL
MODEL 2
REMARK VINA RESULT:      45.6      0.880      1.597
REMARK  7 active torsions:
REMARK  status: ('A' for Active; 'I' for Inactive)
REMARK    1  A    between atoms: N_2  and  C_1 
REMARK    2  A    between atoms: N_4  and  C_3 
REMARK       I    between atoms: C_6  and  N_4 
REMARK    3  A    between atoms: C_7  and  C_6 
REMARK    4  A    between atoms: C_10  and  C_7 
REMARK    5  A    between atoms: C_14  and  C_10 
REMARK    6  A    between atoms: O_16  and  C_13 
REMARK    7  A    between atoms: C_17  and  O_16 
ROOT
ATOM      1  C   UNL d   1     -51.471  26.064  33.739  0.00  0.00     0.146 A 
ATOM      2  C   UNL d   1     -50.687  26.092  33.615  0.00  0.00     0.107 A 
ATOM      3  C   UNL d   1     -51.882  25.356  33.652  0.00  0.00     0.050 A 
ATOM      4  C   UNL d   1     -50.279  25.397  33.394  0.00  0.00     0.023 A 
ATOM      5  C   UNL d   1     -51.506  24.667  33.437  0.00  0.00     0.102 A 
ATOM      6  C   UNL d   1     -50.683  24.695  33.306  0.00  0.00     0.026 A 
ENDROOT
BRANCH   2   7
ATOM      7  N   UNL d   1     -50.233  26.803  33.696  0.00  0.00    -0.206 NA
ATOM      8  C   UNL d   1     -49.464  26.717  33.819  0.00  0.00     0.279 C 
ATOM      9  O   UNL d   1     -49.127  26.199  33.867  0.00  0.00    -0.265 OA
BRANCH   8  10
ATOM     10  C   UNL d   1     -49.017  27.423  33.899  0.00  0.00     0.062 C 
BRANCH  10  11
ATOM     11  C   UNL d   1     -49.258  28.028  34.408  0.00  0.00     0.005 C 
BRANCH  11  12
ATOM     12  C   UNL d   1     -48.682  28.495  34.785  0.00  0.00     0.000 A 
ATOM     13  C   UNL d   1     -48.150  28.879  34.375  0.00  0.00     0.000 A 
ATOM     14  C   UNL d   1     -47.592  29.335  34.794  0.00  0.00     0.000 A 
ATOM     15  C   UNL d   1     -47.620  29.363  35.605  0.00  0.00     0.000 A 
ATOM     16  C   UNL d   1     -48.156  28.975  36.015  0.00  0.00     0.000 A 
ATOM     17  C   UNL d   1     -48.712  28.522  35.612  0.00  0.00     0.000 A 
ENDBRANCH  11  12
ENDBRANCH  10  11
ENDBRANCH   8  10
ENDBRANCH   2   7
BRANCH   1  18
ATOM     18  N   UNL d   1     -51.852  26.779  33.960  0.00  0.00    -0.112 N 
ATOM     19  O   UNL d   1     -52.161  27.290  33.404  0.00  0.00    -0.532 OA
ATOM     20  O   UNL d   1     -51.921  26.980  34.790  0.00  0.00    -0.532 OA
ENDBRANCH   1  18
BRANCH   5  21
ATOM     21  O   UNL d   1     -51.939  23.956  33.353  0.00  0.00    -0.305 OA
BRANCH  21  22
ATOM     22  C   UNL d   1     -52.732  23.946  33.311  0.00  0.00     0.123 C 
ATOM     23  C   UNL d   1     -53.157  23.206  33.365  0.00  0.00     0.029 C 
ENDBRANCH  21  22
ENDBRANCH   5  21
TORSDOF 7
ENDMDL
