MODEL 1
REMARK VINA RESULT:      57.8      0.000      0.000
REMARK  3 active torsions:
REMARK  status: ('A' for Active; 'I' for Inactive)
REMARK    1  A    between atoms: C_5  and  N_1 
REMARK    2  A    between atoms: C_13  and  C_3 
REMARK    3  A    between atoms: C_4  and  C_5 
ROOT
ATOM      1  N   UNL d   1     -51.213  26.256  34.088  0.00  0.00    -0.286 N 
ATOM      2  N   UNL d   1     -50.310  27.009  34.754  0.00  0.00    -0.224 NA
ATOM      3  C   UNL d   1     -50.519  26.698  34.005  0.00  0.00     0.191 A 
ATOM      4  C   UNL d   1     -51.445  26.287  34.889  0.00  0.00     0.083 A 
ATOM      5  C   UNL d   1     -50.889  26.750  35.296  0.00  0.00     0.099 A 
ATOM      6  C   UNL d   1     -52.086  25.957  35.308  0.00  0.00     0.019 A 
ATOM      7  C   UNL d   1     -50.967  26.886  36.114  0.00  0.00     0.021 A 
ATOM      8  C   UNL d   1     -52.167  26.090  36.118  0.00  0.00     0.002 A 
ATOM      9  C   UNL d   1     -51.608  26.554  36.521  0.00  0.00     0.002 A 
ENDROOT
BRANCH   1  10
ATOM     10  C   UNL d   1     -51.485  25.914  33.388  0.00  0.00     0.082 C 
BRANCH  10  11
ATOM     11  C   UNL d   1     -51.648  25.110  33.361  0.00  0.00     0.018 A 
ATOM     12  C   UNL d   1     -52.434  24.849  33.347  0.00  0.00     0.001 A 
ATOM     13  C   UNL d   1     -52.598  24.045  33.320  0.00  0.00     0.000 A 
ATOM     14  C   UNL d   1     -53.047  25.395  33.360  0.00  0.00     0.000 C 
ATOM     15  C   UNL d   1     -53.382  23.785  33.306  0.00  0.00     0.000 C 
ATOM     16  C   UNL d   1     -51.984  23.498  33.307  0.00  0.00     0.000 A 
ATOM     17  C   UNL d   1     -51.200  23.762  33.321  0.00  0.00     0.000 A 
ATOM     18  C   UNL d   1     -51.037  24.567  33.348  0.00  0.00     0.001 A 
ATOM     19  C   UNL d   1     -50.575  23.228  33.309  0.00  0.00     0.000 C 
ATOM     20  C   UNL d   1     -50.260  24.835  33.363  0.00  0.00     0.000 C 
ENDBRANCH  10  11
ENDBRANCH   1  10
BRANCH   3  21
ATOM     21  C   UNL d   1     -50.101  26.814  33.305  0.00  0.00     0.271 C 
ATOM     22  O   UNL d   1     -49.344  27.133  33.323  0.00  0.00    -0.280 OA
ENDBRANCH   3  21
TORSDOF 3
ENDMDL
