MODEL 1
REMARK VINA RESULT:      70.3      0.000      0.000
REMARK  7 active torsions:
REMARK  status: ('A' for Active; 'I' for Inactive)
REMARK    1  A    between atoms: N_2  and  S_1 
REMARK    2  A    between atoms: C_6  and  S_1 
REMARK    3  A    between atoms: C_11  and  C_3 
REMARK    4  A    between atoms: C_4  and  C_5 
REMARK       I    between atoms: N_7  and  C_4 
REMARK       I    between atoms: C_5  and  N_10 
REMARK    5  A    between atoms: C_19  and  N_7 
REMARK    6  A    between atoms: N_10  and  C_11 
REMARK    7  A    between atoms: O_23  and  C_18 
ROOT
ATOM      1  N   UNL d   1      60.367  49.264  51.439  0.00  0.00    -0.209 N 
ATOM      2  C   UNL d   1      60.940  48.740  51.153  0.00  0.00     0.197 A 
ATOM      3  O   UNL d   1      61.657  48.649  51.538  0.00  0.00    -0.287 OA
ATOM      4  C   UNL d   1      60.524  49.702  52.126  0.00  0.00     0.096 A 
ATOM      5  C   UNL d   1      61.241  49.611  52.513  0.00  0.00     0.047 A 
ATOM      6  C   UNL d   1      61.806  49.089  52.223  0.00  0.00     0.126 A 
ENDROOT
BRANCH   2   7
ATOM      7  C   UNL d   1      60.785  48.299  50.462  0.00  0.00     0.146 C 
BRANCH   7   8
ATOM      8  N   UNL d   1      61.069  47.529  50.393  0.00  0.00    -0.199 NA
ATOM      9  C   UNL d   1      61.481  47.304  49.723  0.00  0.00     0.337 C 
ATOM     10  O   UNL d   1      61.616  47.846  49.112  0.00  0.00    -0.260 OA
BRANCH   9  11
ATOM     11  C   UNL d   1      61.765  46.532  49.654  0.00  0.00     0.337 C 
ATOM     12  N   UNL d   1      61.250  45.895  49.722  0.00  0.00    -0.204 NA
ATOM     13  O   UNL d   1      62.569  46.399  49.514  0.00  0.00    -0.260 OA
BRANCH  12  14
ATOM     14  C   UNL d   1      61.535  45.121  49.652  0.00  0.00     0.085 A 
ATOM     15  C   UNL d   1      61.762  44.932  48.891  0.00  0.00     0.019 A 
ATOM     16  C   UNL d   1      62.031  44.150  48.908  0.00  0.00     0.002 A 
ATOM     17  C   UNL d   1      61.969  43.866  49.675  0.00  0.00     0.002 A 
ATOM     18  C   UNL d   1      61.655  44.480  50.146  0.00  0.00     0.019 A 
ENDBRANCH  12  14
ENDBRANCH   9  11
ENDBRANCH   7   8
ENDBRANCH   2   7
BRANCH   1  19
ATOM     19  S   UNL d   1      59.650  49.347  51.042  0.00  0.00     0.273 S 
ATOM     20  O   UNL d   1      60.062  49.534  50.347  0.00  0.00    -0.200 OA
ATOM     21  O   UNL d   1      59.240  49.160  51.735  0.00  0.00    -0.200 OA
BRANCH  19  22
ATOM     22  C   UNL d   1      58.936  49.432  50.638  0.00  0.00     0.104 A 
ATOM     23  C   UNL d   1      58.941  49.617  49.835  0.00  0.00     0.015 A 
ATOM     24  C   UNL d   1      58.226  49.703  49.429  0.00  0.00     0.025 A 
ATOM     25  C   UNL d   1      57.514  49.605  49.821  0.00  0.00     0.094 A 
ATOM     26  C   UNL d   1      57.497  49.420  50.630  0.00  0.00     0.025 A 
ATOM     27  C   UNL d   1      58.213  49.333  51.040  0.00  0.00     0.015 A 
BRANCH  25  28
ATOM     28  O   UNL d   1      56.798  49.692  49.412  0.00  0.00    -0.328 OA
ATOM     29  C   UNL d   1      56.419  49.031  49.096  0.00  0.00     0.181 C 
ENDBRANCH  25  28
ENDBRANCH  19  22
ENDBRANCH   1  19
TORSDOF 7
ENDMDL
