MODEL 1
REMARK VINA RESULT:     109.3      0.000      0.000
REMARK  4 active torsions:
REMARK  status: ('A' for Active; 'I' for Inactive)
REMARK    1  A    between atoms: S_3  and  N_1 
REMARK    2  A    between atoms: C_9  and  S_3 
REMARK    3  A    between atoms: C_10  and  N_5 
REMARK    4  A    between atoms: C_15  and  C_10 
ROOT
ATOM      1  N   UNL d   1      60.301  48.303  50.214  0.00  0.00    -0.195 N 
ATOM      2  C   UNL d   1      60.619  48.463  50.955  0.00  0.00     0.193 A 
ATOM      3  C   UNL d   1      61.186  47.895  51.125  0.00  0.00     0.185 A 
ATOM      4  N   UNL d   1      61.228  47.372  50.488  0.00  0.00    -0.269 N 
ATOM      5  C   UNL d   1      60.677  47.630  49.925  0.00  0.00     0.179 A 
ATOM      6  N   UNL d   1      60.465  49.057  51.503  0.00  0.00    -0.223 NA
ATOM      7  N   UNL d   1      61.601  47.915  51.840  0.00  0.00    -0.224 NA
ATOM      8  C   UNL d   1      60.870  49.083  52.209  0.00  0.00     0.101 A 
ATOM      9  C   UNL d   1      61.443  48.512  52.385  0.00  0.00     0.101 A 
ATOM     10  C   UNL d   1      61.849  48.542  53.097  0.00  0.00     0.021 A 
ATOM     11  C   UNL d   1      60.714  49.677  52.754  0.00  0.00     0.021 A 
ATOM     12  C   UNL d   1      61.684  49.144  53.636  0.00  0.00     0.002 A 
ATOM     13  C   UNL d   1      61.120  49.708  53.466  0.00  0.00     0.002 A 
ENDROOT
BRANCH   1  14
ATOM     14  S   UNL d   1      59.689  48.941  50.063  0.00  0.00     0.274 S 
ATOM     15  O   UNL d   1      59.983  49.708  49.735  0.00  0.00    -0.200 OA
ATOM     16  O   UNL d   1      60.422  49.270  49.836  0.00  0.00    -0.200 OA
BRANCH  14  17
ATOM     17  C   UNL d   1      58.871  48.975  50.166  0.00  0.00     0.104 A 
ATOM     18  C   UNL d   1      58.406  48.319  49.987  0.00  0.00     0.015 A 
ATOM     19  C   UNL d   1      57.580  48.352  50.090  0.00  0.00     0.030 A 
ATOM     20  C   UNL d   1      57.234  49.043  50.374  0.00  0.00     0.140 A 
ATOM     21  C   UNL d   1      57.707  49.708  50.556  0.00  0.00     0.030 A 
ATOM     22  F   UNL d   1      56.409  49.015  50.456  0.00  0.00    -0.204 F 
ATOM     23  C   UNL d   1      58.520  49.669  50.451  0.00  0.00     0.015 A 
ENDBRANCH  14  17
ENDBRANCH   1  14
BRANCH   4  24
ATOM     24  C   UNL d   1      61.725  46.715  50.424  0.00  0.00     0.108 C 
BRANCH  24  25
ATOM     25  C   UNL d   1      61.536  46.098  49.903  0.00  0.00     0.118 A 
ATOM     26  O   UNL d   1      61.896  45.954  49.171  0.00  0.00    -0.304 OA
ATOM     27  C   UNL d   1      61.537  45.277  48.829  0.00  0.00     0.123 A 
ATOM     28  C   UNL d   1      60.955  45.009  49.357  0.00  0.00     0.029 A 
ATOM     29  C   UNL d   1      60.958  45.519  50.018  0.00  0.00     0.028 A 
ENDBRANCH  24  25
ENDBRANCH   4  24
TORSDOF 4
ENDMDL
