MODEL 1
REMARK VINA RESULT:      -3.0      0.000      0.000
REMARK  6 active torsions:
REMARK  status: ('A' for Active; 'I' for Inactive)
REMARK    1  A    between atoms: N_13  and  C_4 
REMARK    2  A    between atoms: O_17  and  C_9 
REMARK    3  A    between atoms: O_18  and  C_11 
REMARK    4  A    between atoms: C_19  and  N_13 
REMARK    5  A    between atoms: C_15  and  C_20 
REMARK    6  A    between atoms: C_20  and  C_19 
ROOT
ATOM      1  C   UNL d   1      32.897  20.166 -22.304  0.00  0.00     0.101 C 
ENDROOT
BRANCH   1   2
ATOM      2  N   UNL d   1      33.175  20.911 -22.163  0.00  0.00    -0.225 NA
BRANCH   2   3
ATOM      3  C   UNL d   1      32.814  21.390 -21.620  0.00  0.00     0.169 A 
ATOM      4  C   UNL d   1      32.718  22.140 -21.774  0.00  0.00     0.094 A 
ATOM      5  C   UNL d   1      32.368  22.600 -21.246  0.00  0.00     0.190 A 
ATOM      6  C   UNL d   1      32.865  23.202 -22.596  0.00  0.00     0.128 A 
ATOM      7  N   UNL d   1      32.121  22.309 -20.578  0.00  0.00    -0.203 NA
ATOM      8  N   UNL d   1      32.271  23.352 -21.398  0.00  0.00    -0.128 NA
ATOM      9  C   UNL d   1      32.217  21.548 -20.419  0.00  0.00     0.202 A 
ATOM     10  N   UNL d   1      32.566  21.085 -20.944  0.00  0.00    -0.205 NA
ATOM     11  N   UNL d   1      32.516  23.653 -22.065  0.00  0.00    -0.145 NA
ENDBRANCH   2   3
ENDBRANCH   1   2
BRANCH   1  12
ATOM     12  C   UNL d   1      33.163  19.734 -22.955  0.00  0.00     0.021 C 
BRANCH  12  13
ATOM     13  C   UNL d   1      32.946  18.948 -23.050  0.00  0.00     0.004 A 
ATOM     14  C   UNL d   1      32.441  18.743 -23.658  0.00  0.00     0.026 A 
ATOM     15  C   UNL d   1      32.217  17.948 -23.760  0.00  0.00     0.116 A 
ATOM     16  C   UNL d   1      32.506  17.368 -23.249  0.00  0.00     0.116 A 
ATOM     17  C   UNL d   1      33.020  17.580 -22.632  0.00  0.00     0.026 A 
ATOM     18  C   UNL d   1      33.241  18.372 -22.533  0.00  0.00     0.002 A 
BRANCH  15  19
ATOM     19  O   UNL d   1      31.702  17.738 -24.379  0.00  0.00    -0.326 OA
ATOM     20  C   UNL d   1      31.719  18.160 -25.097  0.00  0.00     0.181 C 
ENDBRANCH  15  19
BRANCH  16  21
ATOM     21  O   UNL d   1      32.286  16.568 -23.346  0.00  0.00    -0.326 OA
ATOM     22  C   UNL d   1      32.859  15.972 -23.249  0.00  0.00     0.181 C 
ENDBRANCH  16  21
ENDBRANCH  12  13
ENDBRANCH   1  12
TORSDOF 6
ENDMDL
MODEL 2
REMARK VINA RESULT:      -2.8      2.901      4.931
REMARK  6 active torsions:
REMARK  status: ('A' for Active; 'I' for Inactive)
REMARK    1  A    between atoms: N_13  and  C_4 
REMARK    2  A    between atoms: O_17  and  C_9 
REMARK    3  A    between atoms: O_18  and  C_11 
REMARK    4  A    between atoms: C_19  and  N_13 
REMARK    5  A    between atoms: C_15  and  C_20 
REMARK    6  A    between atoms: C_20  and  C_19 
ROOT
ATOM      1  C   UNL d   1      32.838  18.763 -23.119  0.00  0.00     0.101 C 
ENDROOT
BRANCH   1   2
ATOM      2  N   UNL d   1      32.604  18.341 -23.766  0.00  0.00    -0.225 NA
BRANCH   2   3
ATOM      3  C   UNL d   1      32.284  17.602 -23.683  0.00  0.00     0.169 A 
ATOM      4  C   UNL d   1      31.600  17.443 -24.003  0.00  0.00     0.094 A 
ATOM      5  C   UNL d   1      31.295  16.726 -23.920  0.00  0.00     0.190 A 
ATOM      6  C   UNL d   1      30.522  17.815 -24.727  0.00  0.00     0.128 A 
ATOM      7  N   UNL d   1      31.671  16.184 -23.524  0.00  0.00    -0.203 NA
ATOM      8  N   UNL d   1      30.610  16.563 -24.240  0.00  0.00    -0.128 NA
ATOM      9  C   UNL d   1      32.365  16.345 -23.198  0.00  0.00     0.202 A 
ATOM     10  N   UNL d   1      32.674  17.059 -23.278  0.00  0.00    -0.205 NA
ATOM     11  N   UNL d   1      30.224  17.100 -24.640  0.00  0.00    -0.145 NA
ENDBRANCH   2   3
ENDBRANCH   1   2
BRANCH   1  12
ATOM     12  C   UNL d   1      33.238  19.480 -23.207  0.00  0.00     0.021 C 
BRANCH  12  13
ATOM     13  C   UNL d   1      33.237  20.034 -22.601  0.00  0.00     0.004 A 
ATOM     14  C   UNL d   1      33.238  20.829 -22.786  0.00  0.00     0.026 A 
ATOM     15  C   UNL d   1      33.238  21.396 -22.177  0.00  0.00     0.116 A 
ATOM     16  C   UNL d   1      33.236  21.155 -21.388  0.00  0.00     0.116 A 
ATOM     17  C   UNL d   1      33.235  20.346 -21.203  0.00  0.00     0.026 A 
ATOM     18  C   UNL d   1      33.236  19.784 -21.811  0.00  0.00     0.002 A 
BRANCH  15  19
ATOM     19  O   UNL d   1      33.239  22.207 -22.365  0.00  0.00    -0.326 OA
ATOM     20  C   UNL d   1      33.185  22.451 -23.160  0.00  0.00     0.181 C 
ENDBRANCH  15  19
BRANCH  16  21
ATOM     21  O   UNL d   1      33.236  21.720 -20.771  0.00  0.00    -0.326 OA
ATOM     22  C   UNL d   1      33.202  21.461 -19.981  0.00  0.00     0.181 C 
ENDBRANCH  16  21
ENDBRANCH  12  13
ENDBRANCH   1  12
TORSDOF 6
ENDMDL
MODEL 3
REMARK VINA RESULT:      -2.7      2.662      5.076
REMARK  6 active torsions:
REMARK  status: ('A' for Active; 'I' for Inactive)
REMARK    1  A    between atoms: N_13  and  C_4 
REMARK    2  A    between atoms: O_17  and  C_9 
REMARK    3  A    between atoms: O_18  and  C_11 
REMARK    4  A    between atoms: C_19  and  N_13 
REMARK    5  A    between atoms: C_15  and  C_20 
REMARK    6  A    between atoms: C_20  and  C_19 
ROOT
ATOM      1  C   UNL d   1      32.869  19.454 -22.509  0.00  0.00     0.101 C 
ENDROOT
BRANCH   1   2
ATOM      2  N   UNL d   1      33.024  18.668 -22.610  0.00  0.00    -0.225 NA
BRANCH   2   3
ATOM      3  C   UNL d   1      32.693  18.257 -23.223  0.00  0.00     0.169 A 
ATOM      4  C   UNL d   1      32.766  17.490 -23.253  0.00  0.00     0.094 A 
ATOM      5  C   UNL d   1      32.443  17.096 -23.848  0.00  0.00     0.190 A 
ATOM      6  C   UNL d   1      33.226  16.328 -22.738  0.00  0.00     0.128 A 
ATOM      7  N   UNL d   1      32.056  17.468 -24.399  0.00  0.00    -0.203 NA
ATOM      8  N   UNL d   1      32.515  16.326 -23.881  0.00  0.00    -0.128 NA
ATOM      9  C   UNL d   1      31.980  18.247 -24.370  0.00  0.00     0.202 A 
ATOM     10  N   UNL d   1      32.301  18.645 -23.777  0.00  0.00    -0.205 NA
ATOM     11  N   UNL d   1      32.902  15.943 -23.333  0.00  0.00    -0.145 NA
ENDBRANCH   2   3
ENDBRANCH   1   2
BRANCH   1  12
ATOM     12  C   UNL d   1      33.239  19.883 -21.909  0.00  0.00     0.021 C 
BRANCH  12  13
ATOM     13  C   UNL d   1      32.998  20.648 -21.734  0.00  0.00     0.004 A 
ATOM     14  C   UNL d   1      33.084  21.234 -22.296  0.00  0.00     0.026 A 
ATOM     15  C   UNL d   1      32.842  22.011 -22.125  0.00  0.00     0.116 A 
ATOM     16  C   UNL d   1      32.516  22.190 -21.388  0.00  0.00     0.116 A 
ATOM     17  C   UNL d   1      32.430  21.592 -20.819  0.00  0.00     0.026 A 
ATOM     18  C   UNL d   1      32.671  20.820 -20.992  0.00  0.00     0.002 A 
BRANCH  15  19
ATOM     19  O   UNL d   1      32.930  22.608 -22.698  0.00  0.00    -0.326 OA
ATOM     20  C   UNL d   1      33.241  22.424 -23.448  0.00  0.00     0.181 C 
ENDBRANCH  15  19
BRANCH  16  21
ATOM     21  O   UNL d   1      32.271  22.969 -21.210  0.00  0.00    -0.326 OA
ATOM     22  C   UNL d   1      31.746  23.097 -20.577  0.00  0.00     0.181 C 
ENDBRANCH  16  21
ENDBRANCH  12  13
ENDBRANCH   1  12
TORSDOF 6
ENDMDL
