MODEL 1
REMARK VINA RESULT:      38.1      0.000      0.000
REMARK  4 active torsions:
REMARK  status: ('A' for Active; 'I' for Inactive)
REMARK    1  A    between atoms: C_10  and  N_2 
REMARK    2  A    between atoms: N_6  and  C_3 
REMARK    3  A    between atoms: N_7  and  N_6 
REMARK    4  A    between atoms: C_11  and  N_7 
ROOT
ATOM      1  C   UNL d   1      13.865  13.173  -2.604  0.00  0.00     0.206 A 
ATOM      2  N   UNL d   1      13.780  12.425  -2.953  0.00  0.00    -0.209 N 
ATOM      3  C   UNL d   1      14.152  13.029  -1.832  0.00  0.00     0.160 A 
ATOM      4  N   UNL d   1      13.998  11.861  -2.433  0.00  0.00    -0.162 NA
ATOM      5  C   UNL d   1      14.231  12.217  -1.737  0.00  0.00     0.124 A 
ATOM      6  N   UNL d   1      13.702  13.914  -2.942  0.00  0.00    -0.125 N 
ATOM      7  C   UNL d   1      14.502  11.835  -1.046  0.00  0.00     0.024 C 
ENDROOT
BRANCH   3   8
ATOM      8  N   UNL d   1      14.339  13.539  -1.237  0.00  0.00    -0.143 NA
BRANCH   8   9
ATOM      9  N   UNL d   1      14.542  14.331  -1.421  0.00  0.00    -0.148 NA
BRANCH   9  10
ATOM     10  C   UNL d   1      15.099  14.730  -0.945  0.00  0.00     0.103 A 
ATOM     11  C   UNL d   1      15.132  15.560  -0.938  0.00  0.00     0.019 A 
ATOM     12  C   UNL d   1      15.672  15.955  -0.478  0.00  0.00     0.002 A 
ATOM     13  C   UNL d   1      14.596  15.996  -1.418  0.00  0.00     0.002 C 
ATOM     14  C   UNL d   1      15.703  16.782  -0.473  0.00  0.00     0.000 C 
ATOM     15  C   UNL d   1      16.186  15.504  -0.017  0.00  0.00     0.000 A 
ATOM     16  C   UNL d   1      16.160  14.697  -0.018  0.00  0.00     0.002 A 
ATOM     17  C   UNL d   1      15.609  14.308  -0.488  0.00  0.00     0.021 A 
ENDBRANCH   9  10
ENDBRANCH   8   9
ENDBRANCH   3   8
BRANCH   2  18
ATOM     18  C   UNL d   1      13.500  12.427  -3.725  0.00  0.00     0.085 A 
ATOM     19  C   UNL d   1      13.670  13.055  -4.211  0.00  0.00     0.019 A 
ATOM     20  C   UNL d   1      13.385  13.053  -4.994  0.00  0.00     0.002 A 
ATOM     21  C   UNL d   1      12.946  12.446  -5.278  0.00  0.00     0.000 A 
ATOM     22  C   UNL d   1      12.769  11.803  -4.790  0.00  0.00     0.002 A 
ATOM     23  C   UNL d   1      13.037  11.783  -4.023  0.00  0.00     0.019 A 
ENDBRANCH   2  18
TORSDOF 4
ENDMDL
MODEL 2
REMARK VINA RESULT:      39.5      1.826      3.624
REMARK  4 active torsions:
REMARK  status: ('A' for Active; 'I' for Inactive)
REMARK    1  A    between atoms: C_10  and  N_2 
REMARK    2  A    between atoms: N_6  and  C_3 
REMARK    3  A    between atoms: N_7  and  N_6 
REMARK    4  A    between atoms: C_11  and  N_7 
ROOT
ATOM      1  C   UNL d   1      13.868  12.972  -2.633  0.00  0.00     0.206 A 
ATOM      2  N   UNL d   1      13.709  12.215  -2.332  0.00  0.00    -0.209 N 
ATOM      3  C   UNL d   1      13.567  12.971  -3.413  0.00  0.00     0.160 A 
ATOM      4  N   UNL d   1      13.338  11.780  -2.887  0.00  0.00    -0.162 NA
ATOM      5  C   UNL d   1      13.242  12.230  -3.559  0.00  0.00     0.124 A 
ATOM      6  N   UNL d   1      14.245  13.604  -2.250  0.00  0.00    -0.125 N 
ATOM      7  C   UNL d   1      12.881  11.993  -4.274  0.00  0.00     0.024 C 
ENDROOT
BRANCH   3   8
ATOM      8  N   UNL d   1      13.560  13.548  -3.975  0.00  0.00    -0.143 NA
BRANCH   8   9
ATOM      9  N   UNL d   1      13.571  14.352  -3.742  0.00  0.00    -0.148 NA
BRANCH   9  10
ATOM     10  C   UNL d   1      13.708  14.942  -4.316  0.00  0.00     0.103 A 
ATOM     11  C   UNL d   1      14.224  15.573  -4.158  0.00  0.00     0.019 A 
ATOM     12  C   UNL d   1      14.363  16.151  -4.711  0.00  0.00     0.002 A 
ATOM     13  C   UNL d   1      14.607  15.613  -3.410  0.00  0.00     0.002 C 
ATOM     14  C   UNL d   1      14.877  16.779  -4.551  0.00  0.00     0.000 C 
ATOM     15  C   UNL d   1      13.975  16.088  -5.436  0.00  0.00     0.000 A 
ATOM     16  C   UNL d   1      13.472  15.478  -5.598  0.00  0.00     0.002 A 
ATOM     17  C   UNL d   1      13.339  14.899  -5.029  0.00  0.00     0.021 A 
ENDBRANCH   9  10
ENDBRANCH   8   9
ENDBRANCH   3   8
BRANCH   2  18
ATOM     18  C   UNL d   1      13.959  12.085  -1.561  0.00  0.00     0.085 A 
ATOM     19  C   UNL d   1      14.750  12.129  -1.383  0.00  0.00     0.019 A 
ATOM     20  C   UNL d   1      14.999  11.996  -0.598  0.00  0.00     0.002 A 
ATOM     21  C   UNL d   1      14.475  11.826  -0.016  0.00  0.00     0.000 A 
ATOM     22  C   UNL d   1      13.668  11.780  -0.189  0.00  0.00     0.002 A 
ATOM     23  C   UNL d   1      13.402  11.906  -0.947  0.00  0.00     0.019 A 
ENDBRANCH   2  18
TORSDOF 4
ENDMDL
