MODEL 1
REMARK VINA RESULT:      53.5      0.000      0.000
REMARK  2 active torsions:
REMARK  status: ('A' for Active; 'I' for Inactive)
REMARK    1  A    between atoms: N_8  and  C_3 
REMARK    2  A    between atoms: C_7  and  N_9 
ROOT
ATOM      1  N   UNL d   1      13.750  13.602  -3.570  0.00  0.00    -0.286 N 
ATOM      2  N   UNL d   1      14.254  12.904  -2.140  0.00  0.00    -0.135 N 
ATOM      3  C   UNL d   1      14.240  14.000  -3.039  0.00  0.00     0.101 A 
ATOM      4  C   UNL d   1      13.507  12.842  -3.384  0.00  0.00     0.101 A 
ATOM      5  C   UNL d   1      13.741  12.469  -2.681  0.00  0.00     0.117 A 
ATOM      6  C   UNL d   1      14.490  13.653  -2.329  0.00  0.00     0.117 A 
ENDROOT
BRANCH   1   7
ATOM      7  C   UNL d   1      13.510  13.936  -4.253  0.00  0.00     0.152 A 
ATOM      8  C   UNL d   1      13.310  13.483  -4.912  0.00  0.00     0.059 A 
ATOM      9  C   UNL d   1      13.060  13.830  -5.623  0.00  0.00     0.115 A 
ATOM     10  C   UNL d   1      13.311  12.680  -5.013  0.00  0.00     0.011 A 
ATOM     11  S   UNL d   1      12.910  13.236  -6.152  0.00  0.00    -0.068 SA
ATOM     12  N   UNL d   1      13.006  14.634  -5.682  0.00  0.00    -0.217 NA
ATOM     13  C   UNL d   1      13.061  12.544  -5.786  0.00  0.00     0.031 A 
ATOM     14  C   UNL d   1      12.980  11.781  -6.130  0.00  0.00     0.007 C 
ATOM     15  C   UNL d   1      13.200  15.141  -5.032  0.00  0.00     0.201 A 
ATOM     16  N   UNL d   1      13.460  14.781  -4.294  0.00  0.00    -0.206 NA
ATOM     17  C   UNL d   1      13.524  12.063  -4.452  0.00  0.00     0.001 C 
ENDBRANCH   1   7
BRANCH   2  18
ATOM     18  C   UNL d   1      14.496  12.509  -1.406  0.00  0.00     0.735 A 
ATOM     19  N   UNL d   1      13.987  12.518  -0.807  0.00  0.00    -0.059 NA
ATOM     20  C   UNL d   1      14.189  12.145  -0.080  0.00  0.00     0.120 A 
ATOM     21  C   UNL d   1      14.912  11.779  -0.015  0.00  0.00     0.043 A 
ATOM     22  C   UNL d   1      15.428  11.782  -0.655  0.00  0.00     0.120 A 
ATOM     23  N   UNL d   1      15.236  12.138  -1.348  0.00  0.00    -0.059 NA
ENDBRANCH   2  18
TORSDOF 2
ENDMDL
MODEL 2
REMARK VINA RESULT:      55.1      2.648      4.395
REMARK  2 active torsions:
REMARK  status: ('A' for Active; 'I' for Inactive)
REMARK    1  A    between atoms: N_8  and  C_3 
REMARK    2  A    between atoms: C_7  and  N_9 
ROOT
ATOM      1  N   UNL d   1      14.893  14.209  -1.019  0.00  0.00    -0.286 N 
ATOM      2  N   UNL d   1      15.047  15.849  -1.285  0.00  0.00    -0.135 N 
ATOM      3  C   UNL d   1      14.589  14.571  -1.694  0.00  0.00     0.101 A 
ATOM      4  C   UNL d   1      15.280  14.673  -0.466  0.00  0.00     0.101 A 
ATOM      5  C   UNL d   1      15.372  15.491  -0.571  0.00  0.00     0.117 A 
ATOM      6  C   UNL d   1      14.666  15.386  -1.827  0.00  0.00     0.117 A 
ENDROOT
BRANCH   1   7
ATOM      7  C   UNL d   1      14.819  13.426  -0.891  0.00  0.00     0.152 A 
ATOM      8  C   UNL d   1      14.478  12.923  -1.449  0.00  0.00     0.059 A 
ATOM      9  C   UNL d   1      14.402  12.109  -1.317  0.00  0.00     0.115 A 
ATOM     10  C   UNL d   1      14.171  13.088  -2.180  0.00  0.00     0.011 A 
ATOM     11  S   UNL d   1      14.048  11.782  -1.968  0.00  0.00    -0.068 SA
ATOM     12  N   UNL d   1      14.665  11.785  -0.624  0.00  0.00    -0.217 NA
ATOM     13  C   UNL d   1      13.909  12.370  -2.487  0.00  0.00     0.031 A 
ATOM     14  C   UNL d   1      13.548  12.281  -3.241  0.00  0.00     0.007 C 
ATOM     15  C   UNL d   1      15.022  12.261  -0.021  0.00  0.00     0.201 A 
ATOM     16  N   UNL d   1      15.101  13.107  -0.158  0.00  0.00    -0.206 NA
ATOM     17  C   UNL d   1      14.112  13.844  -2.586  0.00  0.00     0.001 C 
ENDBRANCH   1   7
BRANCH   2  18
ATOM     18  C   UNL d   1      15.146  16.705  -1.390  0.00  0.00     0.735 A 
ATOM     19  N   UNL d   1      15.263  17.137  -0.744  0.00  0.00    -0.059 NA
ATOM     20  C   UNL d   1      15.363  17.969  -0.808  0.00  0.00     0.120 A 
ATOM     21  C   UNL d   1      15.336  18.312  -1.546  0.00  0.00     0.043 A 
ATOM     22  C   UNL d   1      15.213  17.840  -2.208  0.00  0.00     0.120 A 
ATOM     23  N   UNL d   1      15.117  17.046  -2.147  0.00  0.00    -0.059 NA
ENDBRANCH   2  18
TORSDOF 2
ENDMDL
