MODEL 1
REMARK VINA RESULT:     -11.2      0.000      0.000
REMARK  5 active torsions:
REMARK  status: ('A' for Active; 'I' for Inactive)
REMARK    1  A    between atoms: C_5  and  C_1 
REMARK    2  A    between atoms: C_4  and  C_9 
REMARK    3  A    between atoms: N_7  and  C_5 
REMARK    4  A    between atoms: C_10  and  C_5 
REMARK    5  A    between atoms: C_12  and  N_7 
ROOT
ATOM      1  C   UNL d   1      53.737  32.871  54.303  0.00  0.00     0.086 C 
ENDROOT
BRANCH   1   2
ATOM      2  C   UNL d   1      53.597  32.129  53.970  0.00  0.00     0.058 A 
ATOM      3  C   UNL d   1      53.528  31.466  54.457  0.00  0.00     0.214 A 
ATOM      4  C   UNL d   1      53.387  30.723  54.115  0.00  0.00     0.120 A 
ATOM      5  O   UNL d   1      53.594  31.527  55.264  0.00  0.00    -0.285 OA
ATOM      6  N   UNL d   1      53.316  30.051  54.596  0.00  0.00    -0.242 NA
ATOM      7  C   UNL d   1      53.318  30.649  53.298  0.00  0.00     0.021 A 
ATOM      8  C   UNL d   1      53.177  29.313  54.261  0.00  0.00     0.082 A 
ATOM      9  C   UNL d   1      53.106  28.645  54.741  0.00  0.00     0.021 C 
ATOM     10  C   UNL d   1      53.107  29.238  53.436  0.00  0.00     0.019 A 
ATOM     11  C   UNL d   1      53.178  29.914  52.954  0.00  0.00     0.003 A 
ATOM     12  C   UNL d   1      53.388  31.316  52.809  0.00  0.00     0.002 A 
ATOM     13  C   UNL d   1      53.527  32.054  53.144  0.00  0.00     0.005 A 
ENDBRANCH   1   2
BRANCH   1  14
ATOM     14  N   UNL d   1      53.044  33.280  54.489  0.00  0.00    -0.245 NA
BRANCH  14  15
ATOM     15  C   UNL d   1      52.668  33.732  53.932  0.00  0.00     0.081 A 
ATOM     16  C   UNL d   1      51.876  33.620  53.778  0.00  0.00     0.023 A 
ATOM     17  C   UNL d   1      51.488  34.083  53.208  0.00  0.00     0.073 A 
ATOM     18  C   UNL d   1      51.915  34.663  52.793  0.00  0.00     0.004 A 
ATOM     19  C   UNL d   1      52.714  34.772  52.951  0.00  0.00     0.002 A 
ATOM     20  C   UNL d   1      53.086  34.305  53.520  0.00  0.00     0.019 A 
BRANCH  17  21
ATOM     21  C   UNL d   1      50.688  33.963  53.060  0.00  0.00     0.419 C 
ATOM     22  F   UNL d   1      49.959  33.843  52.921  0.00  0.00    -0.166 F 
ATOM     23  F   UNL d   1      50.302  33.259  52.763  0.00  0.00    -0.166 F 
ATOM     24  F   UNL d   1      50.029  34.498  53.159  0.00  0.00    -0.166 F 
ENDBRANCH  17  21
ENDBRANCH  14  15
ENDBRANCH   1  14
BRANCH   1  25
ATOM     25  C   UNL d   1      54.411  33.301  54.496  0.00  0.00     0.037 A 
ATOM     26  C   UNL d   1      54.462  33.679  55.235  0.00  0.00     0.100 A 
ATOM     27  N   UNL d   1      55.145  34.108  55.417  0.00  0.00    -0.242 NA
ATOM     28  C   UNL d   1      55.757  34.161  54.887  0.00  0.00     0.099 A 
ATOM     29  C   UNL d   1      55.706  33.787  54.159  0.00  0.00     0.021 A 
ATOM     30  C   UNL d   1      55.037  33.357  53.960  0.00  0.00     0.005 A 
ENDBRANCH   1  25
TORSDOF 5
ENDMDL
MODEL 2
REMARK VINA RESULT:     -10.6      2.176      4.101
REMARK  5 active torsions:
REMARK  status: ('A' for Active; 'I' for Inactive)
REMARK    1  A    between atoms: C_5  and  C_1 
REMARK    2  A    between atoms: C_4  and  C_9 
REMARK    3  A    between atoms: N_7  and  C_5 
REMARK    4  A    between atoms: C_10  and  C_5 
REMARK    5  A    between atoms: C_12  and  N_7 
ROOT
ATOM      1  C   UNL d   1      52.973  32.812  53.789  0.00  0.00     0.086 C 
ENDROOT
BRANCH   1   2
ATOM      2  C   UNL d   1      52.457  33.193  53.270  0.00  0.00     0.058 A 
ATOM      3  C   UNL d   1      51.746  33.505  53.553  0.00  0.00     0.214 A 
ATOM      4  C   UNL d   1      51.231  33.886  53.026  0.00  0.00     0.120 A 
ATOM      5  O   UNL d   1      51.541  33.444  54.337  0.00  0.00    -0.285 OA
ATOM      6  N   UNL d   1      50.515  34.202  53.300  0.00  0.00    -0.242 NA
ATOM      7  C   UNL d   1      51.428  33.954  52.229  0.00  0.00     0.021 A 
ATOM      8  C   UNL d   1      50.002  34.582  52.781  0.00  0.00     0.082 A 
ATOM      9  C   UNL d   1      49.290  34.895  53.056  0.00  0.00     0.021 C 
ATOM     10  C   UNL d   1      50.200  34.650  51.976  0.00  0.00     0.019 A 
ATOM     11  C   UNL d   1      50.920  34.332  51.703  0.00  0.00     0.003 A 
ATOM     12  C   UNL d   1      52.143  33.641  51.946  0.00  0.00     0.002 A 
ATOM     13  C   UNL d   1      52.656  33.261  52.465  0.00  0.00     0.005 A 
ENDBRANCH   1   2
BRANCH   1  14
ATOM     14  N   UNL d   1      52.671  32.103  54.086  0.00  0.00    -0.245 NA
BRANCH  14  15
ATOM     15  C   UNL d   1      52.863  31.395  53.742  0.00  0.00     0.081 A 
ATOM     16  C   UNL d   1      53.042  30.749  54.206  0.00  0.00     0.023 A 
ATOM     17  C   UNL d   1      53.238  30.022  53.856  0.00  0.00     0.073 A 
ATOM     18  C   UNL d   1      53.251  29.957  53.028  0.00  0.00     0.004 A 
ATOM     19  C   UNL d   1      53.070  30.612  52.565  0.00  0.00     0.002 A 
ATOM     20  C   UNL d   1      52.877  31.327  52.926  0.00  0.00     0.019 A 
BRANCH  17  21
ATOM     21  C   UNL d   1      53.418  29.375  54.332  0.00  0.00     0.419 C 
ATOM     22  F   UNL d   1      53.572  28.787  54.772  0.00  0.00    -0.166 F 
ATOM     23  F   UNL d   1      52.980  29.070  55.002  0.00  0.00    -0.166 F 
ATOM     24  F   UNL d   1      54.079  28.836  54.292  0.00  0.00    -0.166 F 
ENDBRANCH  17  21
ENDBRANCH  14  15
ENDBRANCH   1  14
BRANCH   1  25
ATOM     25  C   UNL d   1      53.724  32.976  54.082  0.00  0.00     0.037 A 
ATOM     26  C   UNL d   1      54.367  33.035  53.558  0.00  0.00     0.100 A 
ATOM     27  N   UNL d   1      55.118  33.200  53.864  0.00  0.00    -0.242 NA
ATOM     28  C   UNL d   1      55.228  33.303  54.660  0.00  0.00     0.099 A 
ATOM     29  C   UNL d   1      54.594  33.246  55.177  0.00  0.00     0.021 A 
ATOM     30  C   UNL d   1      53.842  33.082  54.892  0.00  0.00     0.005 A 
ENDBRANCH   1  25
TORSDOF 5
ENDMDL
MODEL 3
REMARK VINA RESULT:      -9.2      2.115      3.225
REMARK  5 active torsions:
REMARK  status: ('A' for Active; 'I' for Inactive)
REMARK    1  A    between atoms: C_5  and  C_1 
REMARK    2  A    between atoms: C_4  and  C_9 
REMARK    3  A    between atoms: N_7  and  C_5 
REMARK    4  A    between atoms: C_10  and  C_5 
REMARK    5  A    between atoms: C_12  and  N_7 
ROOT
ATOM      1  C   UNL d   1      52.019  33.184  53.307  0.00  0.00     0.086 C 
ENDROOT
BRANCH   1   2
ATOM      2  C   UNL d   1      52.470  32.502  53.198  0.00  0.00     0.058 A 
ATOM      3  C   UNL d   1      52.166  31.768  53.424  0.00  0.00     0.214 A 
ATOM      4  C   UNL d   1      52.625  31.086  53.311  0.00  0.00     0.120 A 
ATOM      5  O   UNL d   1      51.427  31.701  53.754  0.00  0.00    -0.285 OA
ATOM      6  N   UNL d   1      52.329  30.344  53.535  0.00  0.00    -0.242 NA
ATOM      7  C   UNL d   1      53.376  31.141  52.978  0.00  0.00     0.021 A 
ATOM      8  C   UNL d   1      52.780  29.665  53.425  0.00  0.00     0.082 A 
ATOM      9  C   UNL d   1      52.483  28.928  53.649  0.00  0.00     0.021 C 
ATOM     10  C   UNL d   1      53.538  29.721  53.088  0.00  0.00     0.019 A 
ATOM     11  C   UNL d   1      53.835  30.467  52.864  0.00  0.00     0.003 A 
ATOM     12  C   UNL d   1      53.681  31.879  52.751  0.00  0.00     0.002 A 
ATOM     13  C   UNL d   1      53.229  32.558  52.861  0.00  0.00     0.005 A 
ENDBRANCH   1   2
BRANCH   1  14
ATOM     14  N   UNL d   1      52.068  33.487  54.073  0.00  0.00    -0.245 NA
BRANCH  14  15
ATOM     15  C   UNL d   1      52.669  33.987  54.284  0.00  0.00     0.081 A 
ATOM     16  C   UNL d   1      53.337  33.696  54.650  0.00  0.00     0.023 A 
ATOM     17  C   UNL d   1      53.954  34.207  54.867  0.00  0.00     0.073 A 
ATOM     18  C   UNL d   1      53.888  35.020  54.707  0.00  0.00     0.004 A 
ATOM     19  C   UNL d   1      53.212  35.309  54.337  0.00  0.00     0.002 A 
ATOM     20  C   UNL d   1      52.608  34.790  54.128  0.00  0.00     0.019 A 
BRANCH  17  21
ATOM     21  C   UNL d   1      54.624  33.904  55.236  0.00  0.00     0.419 C 
ATOM     22  F   UNL d   1      55.242  33.633  55.566  0.00  0.00    -0.166 F 
ATOM     23  F   UNL d   1      55.446  34.037  55.038  0.00  0.00    -0.166 F 
ATOM     24  F   UNL d   1      54.686  33.381  55.908  0.00  0.00    -0.166 F 
ENDBRANCH  17  21
ENDBRANCH  14  15
ENDBRANCH   1  14
BRANCH   1  25
ATOM     25  C   UNL d   1      51.528  33.636  52.826  0.00  0.00     0.037 A 
ATOM     26  C   UNL d   1      51.810  33.915  52.095  0.00  0.00     0.100 A 
ATOM     27  N   UNL d   1      51.307  34.368  51.620  0.00  0.00    -0.242 NA
ATOM     28  C   UNL d   1      50.552  34.539  51.859  0.00  0.00     0.099 A 
ATOM     29  C   UNL d   1      50.274  34.264  52.580  0.00  0.00     0.021 A 
ATOM     30  C   UNL d   1      50.758  33.813  53.065  0.00  0.00     0.005 A 
ENDBRANCH   1  25
TORSDOF 5
ENDMDL
MODEL 4
REMARK VINA RESULT:      -9.0      2.421      4.502
REMARK  5 active torsions:
REMARK  status: ('A' for Active; 'I' for Inactive)
REMARK    1  A    between atoms: C_5  and  C_1 
REMARK    2  A    between atoms: C_4  and  C_9 
REMARK    3  A    between atoms: N_7  and  C_5 
REMARK    4  A    between atoms: C_10  and  C_5 
REMARK    5  A    between atoms: C_12  and  N_7 
ROOT
ATOM      1  C   UNL d   1      52.210  33.137  52.947  0.00  0.00     0.086 C 
ENDROOT
BRANCH   1   2
ATOM      2  C   UNL d   1      51.478  33.517  52.915  0.00  0.00     0.058 A 
ATOM      3  C   UNL d   1      51.155  33.726  52.183  0.00  0.00     0.214 A 
ATOM      4  C   UNL d   1      50.419  34.107  52.158  0.00  0.00     0.120 A 
ATOM      5  O   UNL d   1      51.544  33.563  51.489  0.00  0.00    -0.285 OA
ATOM      6  N   UNL d   1      50.086  34.320  51.429  0.00  0.00    -0.242 NA
ATOM      7  C   UNL d   1      50.015  34.277  52.855  0.00  0.00     0.021 A 
ATOM      8  C   UNL d   1      49.357  34.699  51.398  0.00  0.00     0.082 A 
ATOM      9  C   UNL d   1      49.027  34.910  50.672  0.00  0.00     0.021 C 
ATOM     10  C   UNL d   1      48.948  34.870  52.102  0.00  0.00     0.019 A 
ATOM     11  C   UNL d   1      49.284  34.656  52.834  0.00  0.00     0.003 A 
ATOM     12  C   UNL d   1      50.340  34.068  53.589  0.00  0.00     0.002 A 
ATOM     13  C   UNL d   1      51.070  33.689  53.619  0.00  0.00     0.005 A 
ENDBRANCH   1   2
BRANCH   1  14
ATOM     14  N   UNL d   1      52.848  33.659  52.917  0.00  0.00    -0.245 NA
BRANCH  14  15
ATOM     15  C   UNL d   1      53.145  33.990  53.594  0.00  0.00     0.081 A 
ATOM     16  C   UNL d   1      53.694  33.586  54.042  0.00  0.00     0.023 A 
ATOM     17  C   UNL d   1      54.000  33.923  54.737  0.00  0.00     0.073 A 
ATOM     18  C   UNL d   1      53.742  34.677  54.973  0.00  0.00     0.004 A 
ATOM     19  C   UNL d   1      53.189  35.080  54.518  0.00  0.00     0.002 A 
ATOM     20  C   UNL d   1      52.894  34.734  53.831  0.00  0.00     0.019 A 
BRANCH  17  21
ATOM     21  C   UNL d   1      54.552  33.508  55.183  0.00  0.00     0.419 C 
ATOM     22  F   UNL d   1      55.066  33.136  55.586  0.00  0.00    -0.166 F 
ATOM     23  F   UNL d   1      55.395  33.648  55.249  0.00  0.00    -0.166 F 
ATOM     24  F   UNL d   1      54.444  32.834  55.695  0.00  0.00    -0.166 F 
ENDBRANCH  17  21
ENDBRANCH  14  15
ENDBRANCH   1  14
BRANCH   1  25
ATOM     25  C   UNL d   1      52.452  32.353  53.002  0.00  0.00     0.037 A 
ATOM     26  C   UNL d   1      53.073  32.079  52.522  0.00  0.00     0.100 A 
ATOM     27  N   UNL d   1      53.309  31.289  52.587  0.00  0.00    -0.242 NA
ATOM     28  C   UNL d   1      52.942  30.787  53.108  0.00  0.00     0.099 A 
ATOM     29  C   UNL d   1      52.329  31.058  53.581  0.00  0.00     0.021 A 
ATOM     30  C   UNL d   1      52.082  31.839  53.531  0.00  0.00     0.005 A 
ENDBRANCH   1  25
TORSDOF 5
ENDMDL
MODEL 5
REMARK VINA RESULT:      -8.8      2.129      4.069
REMARK  5 active torsions:
REMARK  status: ('A' for Active; 'I' for Inactive)
REMARK    1  A    between atoms: C_5  and  C_1 
REMARK    2  A    between atoms: C_4  and  C_9 
REMARK    3  A    between atoms: N_7  and  C_5 
REMARK    4  A    between atoms: C_10  and  C_5 
REMARK    5  A    between atoms: C_12  and  N_7 
ROOT
ATOM      1  C   UNL d   1      52.228  34.092  53.649  0.00  0.00     0.086 C 
ENDROOT
BRANCH   1   2
ATOM      2  C   UNL d   1      51.742  34.161  52.987  0.00  0.00     0.058 A 
ATOM      3  C   UNL d   1      50.928  34.267  53.083  0.00  0.00     0.214 A 
ATOM      4  C   UNL d   1      50.444  34.335  52.413  0.00  0.00     0.120 A 
ATOM      5  O   UNL d   1      50.593  34.304  53.822  0.00  0.00    -0.285 OA
ATOM      6  N   UNL d   1      49.626  34.442  52.500  0.00  0.00    -0.242 NA
ATOM      7  C   UNL d   1      50.773  34.299  51.659  0.00  0.00     0.021 A 
ATOM      8  C   UNL d   1      49.143  34.510  51.838  0.00  0.00     0.082 A 
ATOM      9  C   UNL d   1      48.329  34.616  51.926  0.00  0.00     0.021 C 
ATOM     10  C   UNL d   1      49.474  34.473  51.076  0.00  0.00     0.019 A 
ATOM     11  C   UNL d   1      50.296  34.366  50.990  0.00  0.00     0.003 A 
ATOM     12  C   UNL d   1      51.590  34.193  51.562  0.00  0.00     0.002 A 
ATOM     13  C   UNL d   1      52.073  34.124  52.225  0.00  0.00     0.005 A 
ENDBRANCH   1   2
BRANCH   1  14
ATOM     14  N   UNL d   1      52.248  33.327  53.959  0.00  0.00    -0.245 NA
BRANCH  14  15
ATOM     15  C   UNL d   1      52.793  32.788  53.698  0.00  0.00     0.081 A 
ATOM     16  C   UNL d   1      52.558  32.039  53.481  0.00  0.00     0.023 A 
ATOM     17  C   UNL d   1      53.115  31.484  53.213  0.00  0.00     0.073 A 
ATOM     18  C   UNL d   1      53.916  31.699  53.167  0.00  0.00     0.004 A 
ATOM     19  C   UNL d   1      54.149  32.456  53.387  0.00  0.00     0.002 A 
ATOM     20  C   UNL d   1      53.585  32.996  53.651  0.00  0.00     0.019 A 
BRANCH  17  21
ATOM     21  C   UNL d   1      52.868  30.730  52.996  0.00  0.00     0.419 C 
ATOM     22  F   UNL d   1      52.644  30.038  52.809  0.00  0.00    -0.166 F 
ATOM     23  F   UNL d   1      52.734  30.049  53.498  0.00  0.00    -0.166 F 
ATOM     24  F   UNL d   1      52.680  30.419  52.223  0.00  0.00    -0.166 F 
ENDBRANCH  17  21
ENDBRANCH  14  15
ENDBRANCH   1  14
BRANCH   1  25
ATOM     25  C   UNL d   1      52.701  34.612  54.076  0.00  0.00     0.037 A 
ATOM     26  C   UNL d   1      52.732  34.557  54.905  0.00  0.00     0.100 A 
ATOM     27  N   UNL d   1      53.211  35.086  55.324  0.00  0.00    -0.242 NA
ATOM     28  C   UNL d   1      53.645  35.649  54.935  0.00  0.00     0.099 A 
ATOM     29  C   UNL d   1      53.615  35.704  54.117  0.00  0.00     0.021 A 
ATOM     30  C   UNL d   1      53.146  35.188  53.685  0.00  0.00     0.005 A 
ENDBRANCH   1  25
TORSDOF 5
ENDMDL
MODEL 6
REMARK VINA RESULT:      -8.2      2.102      4.133
REMARK  5 active torsions:
REMARK  status: ('A' for Active; 'I' for Inactive)
REMARK    1  A    between atoms: C_5  and  C_1 
REMARK    2  A    between atoms: C_4  and  C_9 
REMARK    3  A    between atoms: N_7  and  C_5 
REMARK    4  A    between atoms: C_10  and  C_5 
REMARK    5  A    between atoms: C_12  and  N_7 
ROOT
ATOM      1  C   UNL d   1      52.479  32.864  53.503  0.00  0.00     0.086 C 
ENDROOT
BRANCH   1   2
ATOM      2  C   UNL d   1      53.265  33.045  53.675  0.00  0.00     0.058 A 
ATOM      3  C   UNL d   1      53.470  33.313  54.429  0.00  0.00     0.214 A 
ATOM      4  C   UNL d   1      54.262  33.494  54.595  0.00  0.00     0.120 A 
ATOM      5  O   UNL d   1      52.910  33.404  55.010  0.00  0.00    -0.285 OA
ATOM      6  N   UNL d   1      54.478  33.764  55.349  0.00  0.00    -0.242 NA
ATOM      7  C   UNL d   1      54.839  33.406  54.013  0.00  0.00     0.021 A 
ATOM      8  C   UNL d   1      55.262  33.944  55.519  0.00  0.00     0.082 A 
ATOM      9  C   UNL d   1      55.475  34.212  56.270  0.00  0.00     0.021 C 
ATOM     10  C   UNL d   1      55.845  33.855  54.932  0.00  0.00     0.019 A 
ATOM     11  C   UNL d   1      55.627  33.584  54.174  0.00  0.00     0.003 A 
ATOM     12  C   UNL d   1      54.633  33.137  53.256  0.00  0.00     0.002 A 
ATOM     13  C   UNL d   1      53.848  32.957  53.087  0.00  0.00     0.005 A 
ENDBRANCH   1   2
BRANCH   1  14
ATOM     14  N   UNL d   1      52.239  32.135  53.807  0.00  0.00    -0.245 NA
BRANCH  14  15
ATOM     15  C   UNL d   1      52.473  31.443  53.458  0.00  0.00     0.081 A 
ATOM     16  C   UNL d   1      52.762  30.831  53.913  0.00  0.00     0.023 A 
ATOM     17  C   UNL d   1      53.002  30.120  53.557  0.00  0.00     0.073 A 
ATOM     18  C   UNL d   1      52.946  30.036  52.732  0.00  0.00     0.004 A 
ATOM     19  C   UNL d   1      52.654  30.656  52.278  0.00  0.00     0.002 A 
ATOM     20  C   UNL d   1      52.419  31.356  52.645  0.00  0.00     0.019 A 
BRANCH  17  21
ATOM     21  C   UNL d   1      53.292  29.508  54.023  0.00  0.00     0.419 C 
ATOM     22  F   UNL d   1      53.567  28.951  54.446  0.00  0.00    -0.166 F 
ATOM     23  F   UNL d   1      54.100  29.237  54.103  0.00  0.00    -0.166 F 
ATOM     24  F   UNL d   1      52.875  28.980  54.550  0.00  0.00    -0.166 F 
ENDBRANCH  17  21
ENDBRANCH  14  15
ENDBRANCH   1  14
BRANCH   1  25
ATOM     25  C   UNL d   1      51.874  33.244  53.095  0.00  0.00     0.037 A 
ATOM     26  C   UNL d   1      51.100  33.230  53.398  0.00  0.00     0.100 A 
ATOM     27  N   UNL d   1      50.500  33.615  52.980  0.00  0.00    -0.242 NA
ATOM     28  C   UNL d   1      50.660  34.002  52.286  0.00  0.00     0.099 A 
ATOM     29  C   UNL d   1      51.423  34.016  51.986  0.00  0.00     0.021 A 
ATOM     30  C   UNL d   1      52.032  33.639  52.387  0.00  0.00     0.005 A 
ENDBRANCH   1  25
TORSDOF 5
ENDMDL
