MODEL 1
REMARK VINA RESULT:      11.2      0.000      0.000
REMARK  5 active torsions:
REMARK  status: ('A' for Active; 'I' for Inactive)
REMARK    1  A    between atoms: C_6  and  C_1 
REMARK    2  A    between atoms: C_8  and  N_3 
REMARK    3  A    between atoms: C_7  and  C_8 
REMARK    4  A    between atoms: C_9  and  C_7 
REMARK    5  A    between atoms: C_10  and  C_9 
ROOT
ATOM      1  C   UNL d   1      46.143 -19.306  43.912  0.00  0.00     0.187 A 
ATOM      2  N   UNL d   1      46.122 -19.797  43.234  0.00  0.00    -0.224 NA
ATOM      3  N   UNL d   1      46.322 -18.531  43.665  0.00  0.00    -0.287 N 
ATOM      4  C   UNL d   1      46.413 -18.535  42.843  0.00  0.00     0.083 A 
ATOM      5  C   UNL d   1      46.291 -19.311  42.574  0.00  0.00     0.099 A 
ATOM      6  C   UNL d   1      46.592 -17.934  42.288  0.00  0.00     0.019 A 
ATOM      7  C   UNL d   1      46.345 -19.495  41.761  0.00  0.00     0.021 A 
ATOM      8  C   UNL d   1      46.647 -18.113  41.484  0.00  0.00     0.002 A 
ATOM      9  C   UNL d   1      46.523 -18.892  41.221  0.00  0.00     0.002 A 
ENDROOT
BRANCH   3  10
ATOM     10  C   UNL d   1      46.361 -17.983  44.281  0.00  0.00     0.082 C 
BRANCH  10  11
ATOM     11  C   UNL d   1      45.982 -17.259  44.213  0.00  0.00     0.019 C 
BRANCH  11  12
ATOM     12  C   UNL d   1      45.877 -16.788  44.885  0.00  0.00     0.002 C 
BRANCH  12  13
ATOM     13  C   UNL d   1      45.648 -16.001  44.801  0.00  0.00     0.000 A 
ATOM     14  C   UNL d   1      44.860 -15.788  44.923  0.00  0.00     0.000 A 
ATOM     15  C   UNL d   1      44.639 -15.003  44.838  0.00  0.00     0.000 A 
ATOM     16  C   UNL d   1      45.195 -14.430  44.634  0.00  0.00     0.000 A 
ATOM     17  C   UNL d   1      45.984 -14.648  44.513  0.00  0.00     0.000 A 
ATOM     18  C   UNL d   1      46.205 -15.428  44.597  0.00  0.00     0.000 A 
ENDBRANCH  12  13
ENDBRANCH  11  12
ENDBRANCH  10  11
ENDBRANCH   3  10
BRANCH   1  19
ATOM     19  C   UNL d   1      46.011 -19.612  44.558  0.00  0.00     0.230 C 
ATOM     20  O   UNL d   1      45.275 -19.642  44.927  0.00  0.00    -0.283 OA
ATOM     21  C   UNL d   1      46.646 -19.956  44.954  0.00  0.00     0.049 C 
ENDBRANCH   1  19
TORSDOF 5
ENDMDL
