MODEL 1
REMARK VINA RESULT:      -4.7      0.000      0.000
REMARK  0 active torsions:
REMARK  status: ('A' for Active; 'I' for Inactive)
ROOT
ATOM      1  C   UNL d   1     -46.815  12.937  23.197  0.00  0.00     0.221 A 
ATOM      2  N   UNL d   1     -47.615  12.737  23.197  0.00  0.00    -0.217 NA
ATOM      3  N   UNL d   1     -46.246  12.390  23.446  0.00  0.00    -0.216 NA
ATOM      4  S   UNL d   1     -46.549  13.678  22.953  0.00  0.00    -0.037 SA
ATOM      5  C   UNL d   1     -47.853  11.990  23.446  0.00  0.00     0.085 A 
ATOM      6  C   UNL d   1     -46.491  11.638  23.696  0.00  0.00     0.103 A 
ATOM      7  C   UNL d   1     -47.291  11.438  23.696  0.00  0.00     0.040 A 
ATOM      8  C   UNL d   1     -48.659  11.809  23.439  0.00  0.00     0.021 C 
ENDROOT
TORSDOF 0
ENDMDL
MODEL 2
REMARK VINA RESULT:      -4.7      1.238      1.810
REMARK  0 active torsions:
REMARK  status: ('A' for Active; 'I' for Inactive)
ROOT
ATOM      1  C   UNL d   1     -46.980  12.482  23.442  0.00  0.00     0.221 A 
ATOM      2  N   UNL d   1     -47.639  12.877  23.142  0.00  0.00    -0.217 NA
ATOM      3  N   UNL d   1     -46.249  12.866  23.494  0.00  0.00    -0.216 NA
ATOM      4  S   UNL d   1     -47.018  11.700  23.698  0.00  0.00    -0.037 SA
ATOM      5  C   UNL d   1     -47.573  13.659  22.893  0.00  0.00     0.085 A 
ATOM      6  C   UNL d   1     -46.187  13.655  23.242  0.00  0.00     0.103 A 
ATOM      7  C   UNL d   1     -46.847  14.049  22.942  0.00  0.00     0.040 A 
ATOM      8  C   UNL d   1     -48.245  14.037  22.596  0.00  0.00     0.021 C 
ENDROOT
TORSDOF 0
ENDMDL
MODEL 3
REMARK VINA RESULT:      -4.5      1.221      1.757
REMARK  0 active torsions:
REMARK  status: ('A' for Active; 'I' for Inactive)
ROOT
ATOM      1  C   UNL d   1     -47.807  14.001  22.868  0.00  0.00     0.221 A 
ATOM      2  N   UNL d   1     -47.864  13.216  23.115  0.00  0.00    -0.217 NA
ATOM      3  N   UNL d   1     -47.067  14.359  22.770  0.00  0.00    -0.216 NA
ATOM      4  S   UNL d   1     -48.474  14.459  22.709  0.00  0.00    -0.037 SA
ATOM      5  C   UNL d   1     -47.181  12.782  23.266  0.00  0.00     0.085 A 
ATOM      6  C   UNL d   1     -46.382  13.916  22.924  0.00  0.00     0.103 A 
ATOM      7  C   UNL d   1     -46.438  13.131  23.171  0.00  0.00     0.040 A 
ATOM      8  C   UNL d   1     -47.258  11.998  23.513  0.00  0.00     0.021 C 
ENDROOT
TORSDOF 0
ENDMDL
MODEL 4
REMARK VINA RESULT:      -4.3      1.231      1.832
REMARK  0 active torsions:
REMARK  status: ('A' for Active; 'I' for Inactive)
ROOT
ATOM      1  C   UNL d   1     -48.113  12.630  23.229  0.00  0.00     0.221 A 
ATOM      2  N   UNL d   1     -47.699  13.314  23.027  0.00  0.00    -0.217 NA
ATOM      3  N   UNL d   1     -47.709  11.961  23.503  0.00  0.00    -0.216 NA
ATOM      4  S   UNL d   1     -48.933  12.581  23.169  0.00  0.00    -0.037 SA
ATOM      5  C   UNL d   1     -46.879  13.336  23.098  0.00  0.00     0.085 A 
ATOM      6  C   UNL d   1     -46.883  11.988  23.572  0.00  0.00     0.103 A 
ATOM      7  C   UNL d   1     -46.469  12.673  23.370  0.00  0.00     0.040 A 
ATOM      8  C   UNL d   1     -46.483  14.030  22.891  0.00  0.00     0.021 C 
ENDROOT
TORSDOF 0
ENDMDL
MODEL 5
REMARK VINA RESULT:      -4.2      1.728      2.473
REMARK  0 active torsions:
REMARK  status: ('A' for Active; 'I' for Inactive)
ROOT
ATOM      1  C   UNL d   1     -48.413  11.672  23.309  0.00  0.00     0.221 A 
ATOM      2  N   UNL d   1     -48.438  12.069  22.586  0.00  0.00    -0.217 NA
ATOM      3  N   UNL d   1     -49.113  11.464  23.698  0.00  0.00    -0.216 NA
ATOM      4  S   UNL d   1     -47.702  11.468  23.671  0.00  0.00    -0.037 SA
ATOM      5  C   UNL d   1     -49.163  12.261  22.246  0.00  0.00     0.085 A 
ATOM      6  C   UNL d   1     -49.842  11.660  23.351  0.00  0.00     0.103 A 
ATOM      7  C   UNL d   1     -49.866  12.057  22.628  0.00  0.00     0.040 A 
ATOM      8  C   UNL d   1     -49.167  12.659  21.523  0.00  0.00     0.021 C 
ENDROOT
TORSDOF 0
ENDMDL
MODEL 6
REMARK VINA RESULT:      -4.2      1.894      2.404
REMARK  0 active torsions:
REMARK  status: ('A' for Active; 'I' for Inactive)
ROOT
ATOM      1  C   UNL d   1     -47.354  13.736  22.685  0.00  0.00     0.221 A 
ATOM      2  N   UNL d   1     -47.737  13.215  22.173  0.00  0.00    -0.217 NA
ATOM      3  N   UNL d   1     -47.701  14.460  22.885  0.00  0.00    -0.216 NA
ATOM      4  S   UNL d   1     -46.619  13.563  23.016  0.00  0.00    -0.037 SA
ATOM      5  C   UNL d   1     -48.471  13.413  21.857  0.00  0.00     0.085 A 
ATOM      6  C   UNL d   1     -48.441  14.656  22.563  0.00  0.00     0.103 A 
ATOM      7  C   UNL d   1     -48.824  14.134  22.051  0.00  0.00     0.040 A 
ATOM      8  C   UNL d   1     -48.839  12.879  21.347  0.00  0.00     0.021 C 
ENDROOT
TORSDOF 0
ENDMDL
MODEL 7
REMARK VINA RESULT:      -3.9      2.292      2.790
REMARK  0 active torsions:
REMARK  status: ('A' for Active; 'I' for Inactive)
ROOT
ATOM      1  C   UNL d   1     -48.638  13.320  23.034  0.00  0.00     0.221 A 
ATOM      2  N   UNL d   1     -49.167  13.953  23.003  0.00  0.00    -0.217 NA
ATOM      3  N   UNL d   1     -47.831  13.441  22.897  0.00  0.00    -0.216 NA
ATOM      4  S   UNL d   1     -48.885  12.552  23.201  0.00  0.00    -0.037 SA
ATOM      5  C   UNL d   1     -48.893  14.711  22.835  0.00  0.00     0.085 A 
ATOM      6  C   UNL d   1     -47.560  14.207  22.728  0.00  0.00     0.103 A 
ATOM      7  C   UNL d   1     -48.089  14.839  22.697  0.00  0.00     0.040 A 
ATOM      8  C   UNL d   1     -49.438  15.330  22.809  0.00  0.00     0.021 C 
ENDROOT
TORSDOF 0
ENDMDL
MODEL 8
REMARK VINA RESULT:      -3.8      2.886      3.503
REMARK  0 active torsions:
REMARK  status: ('A' for Active; 'I' for Inactive)
ROOT
ATOM      1  C   UNL d   1     -50.664  12.981  22.231  0.00  0.00     0.221 A 
ATOM      2  N   UNL d   1     -49.930  12.675  22.011  0.00  0.00    -0.217 NA
ATOM      3  N   UNL d   1     -51.040  12.714  22.919  0.00  0.00    -0.216 NA
ATOM      4  S   UNL d   1     -51.050  13.556  21.785  0.00  0.00    -0.037 SA
ATOM      5  C   UNL d   1     -49.567  12.101  22.475  0.00  0.00     0.085 A 
ATOM      6  C   UNL d   1     -50.670  12.135  23.383  0.00  0.00     0.103 A 
ATOM      7  C   UNL d   1     -49.936  11.829  23.162  0.00  0.00     0.040 A 
ATOM      8  C   UNL d   1     -48.833  11.808  22.237  0.00  0.00     0.021 C 
ENDROOT
TORSDOF 0
ENDMDL
MODEL 9
REMARK VINA RESULT:      -3.7      3.368      3.995
REMARK  0 active torsions:
REMARK  status: ('A' for Active; 'I' for Inactive)
ROOT
ATOM      1  C   UNL d   1     -50.010  14.013  22.062  0.00  0.00     0.221 A 
ATOM      2  N   UNL d   1     -49.203  14.183  22.079  0.00  0.00    -0.217 NA
ATOM      3  N   UNL d   1     -50.550  14.497  22.461  0.00  0.00    -0.216 NA
ATOM      4  S   UNL d   1     -50.311  13.363  21.654  0.00  0.00    -0.037 SA
ATOM      5  C   UNL d   1     -48.930  14.839  22.495  0.00  0.00     0.085 A 
ATOM      6  C   UNL d   1     -50.269  15.157  22.879  0.00  0.00     0.103 A 
ATOM      7  C   UNL d   1     -49.462  15.327  22.896  0.00  0.00     0.040 A 
ATOM      8  C   UNL d   1     -48.119  14.993  22.499  0.00  0.00     0.021 C 
ENDROOT
TORSDOF 0
ENDMDL
