MODEL 1
REMARK VINA RESULT:       2.6      0.000      0.000
REMARK  8 active torsions:
REMARK  status: ('A' for Active; 'I' for Inactive)
REMARK    1  A    between atoms: C_21  and  C_3 
REMARK    2  A    between atoms: S_17  and  C_5 
REMARK    3  A    between atoms: C_11  and  C_16 
REMARK       I    between atoms: N_14  and  C_11 
REMARK    4  A    between atoms: C_19  and  N_14 
REMARK    5  A    between atoms: C_16  and  C_20 
REMARK    6  A    between atoms: C_20  and  S_17 
REMARK    7  A    between atoms: O_27  and  C_22 
REMARK    8  A    between atoms: C_30  and  O_27 
ROOT
ATOM      1  C   UNL d   1     -42.542-122.565 -50.175  0.00  0.00     0.092 A 
ATOM      2  C   UNL d   1     -42.553-122.825 -48.769  0.00  0.00     0.057 A 
ATOM      3  C   UNL d   1     -42.920-122.520 -49.440  0.00  0.00     0.016 A 
ATOM      4  N   UNL d   1     -41.431-123.221 -49.558  0.00  0.00    -0.239 NA
ATOM      5  C   UNL d   1     -41.797-122.915 -50.234  0.00  0.00     0.120 A 
ATOM      6  C   UNL d   1     -41.809-123.175 -48.827  0.00  0.00     0.081 A 
ATOM      7  C   UNL d   1     -42.932-122.779 -48.039  0.00  0.00     0.193 A 
ATOM      8  C   UNL d   1     -42.920-122.254 -50.853  0.00  0.00     0.103 C 
ATOM      9  N   UNL d   1     -43.294-121.943 -51.536  0.00  0.00    -0.191 NA
ATOM     10  C   UNL d   1     -41.820-123.434 -47.426  0.00  0.00     0.042 A 
ATOM     11  C   UNL d   1     -42.565-123.084 -47.367  0.00  0.00     0.019 A 
ATOM     12  C   UNL d   1     -41.443-123.480 -48.157  0.00  0.00    -0.003 A 
ATOM     13  O   UNL d   1     -43.676-122.429 -47.980  0.00  0.00    -0.287 OA
ATOM     14  C   UNL d   1     -41.123-123.815 -47.199  0.00  0.00     0.009 C 
ATOM     15  C   UNL d   1     -42.199-123.391 -46.684  0.00  0.00     0.009 C 
ENDROOT
BRANCH   3  16
ATOM     16  C   UNL d   1     -43.665-122.170 -49.382  0.00  0.00     0.001 C 
ATOM     17  C   UNL d   1     -44.323-122.544 -49.705  0.00  0.00     0.000 C 
ENDBRANCH   3  16
BRANCH   5  18
ATOM     18  S   UNL d   1     -41.420-122.960 -50.971  0.00  0.00    -0.067 SA
BRANCH  18  19
ATOM     19  C   UNL d   1     -41.582-123.593 -51.477  0.00  0.00     0.042 C 
BRANCH  19  20
ATOM     20  C   UNL d   1     -41.123-123.709 -52.162  0.00  0.00     0.070 C 
BRANCH  20  21
ATOM     21  C   UNL d   1     -41.276-123.264 -52.842  0.00  0.00     0.280 C 
ATOM     22  N   UNL d   1     -41.583-123.633 -53.521  0.00  0.00    -0.208 NA
ATOM     23  O   UNL d   1     -41.123-122.449 -52.848  0.00  0.00    -0.265 OA
BRANCH  22  24
ATOM     24  C   UNL d   1     -41.736-123.188 -54.203  0.00  0.00     0.085 A 
ATOM     25  C   UNL d   1     -41.180-122.634 -54.469  0.00  0.00     0.021 A 
ATOM     26  C   UNL d   1     -41.338-122.195 -55.147  0.00  0.00     0.026 A 
ATOM     27  C   UNL d   1     -42.052-122.298 -55.572  0.00  0.00     0.100 A 
ATOM     28  C   UNL d   1     -42.601-122.851 -55.300  0.00  0.00     0.026 A 
ATOM     29  C   UNL d   1     -42.448-123.296 -54.620  0.00  0.00     0.021 A 
BRANCH  27  30
ATOM     30  O   UNL d   1     -42.209-121.848 -56.263  0.00  0.00    -0.305 OA
BRANCH  30  31
ATOM     31  C   UNL d   1     -41.617-121.367 -56.584  0.00  0.00     0.123 C 
ATOM     32  C   UNL d   1     -41.814-120.802 -57.141  0.00  0.00     0.029 C 
ENDBRANCH  30  31
ENDBRANCH  27  30
ENDBRANCH  22  24
ENDBRANCH  20  21
ENDBRANCH  19  20
ENDBRANCH  18  19
ENDBRANCH   5  18
TORSDOF 8
ENDMDL
