MODEL 1
REMARK VINA RESULT:      27.1      0.000      0.000
REMARK  2 active torsions:
REMARK  status: ('A' for Active; 'I' for Inactive)
REMARK    1  A    between atoms: C_6  and  C_1 
REMARK    2  A    between atoms: C_7  and  C_5 
ROOT
ATOM      1  C   UNL d   1     -52.806  24.569  33.344  0.00  0.00     0.169 A 
ATOM      2  C   UNL d   1     -52.024  24.291  33.326  0.00  0.00     0.048 A 
ATOM      3  N   UNL d   1     -52.333  25.903  33.361  0.00  0.00    -0.148 NA
ATOM      4  N   UNL d   1     -52.963  25.377  33.362  0.00  0.00    -0.142 NA
ATOM      5  C   UNL d   1     -51.554  25.629  33.343  0.00  0.00     0.105 A 
ENDROOT
BRANCH   5   6
ATOM      6  C   UNL d   1     -50.810  25.983  33.338  0.00  0.00     0.019 A 
ATOM      7  C   UNL d   1     -50.135  25.508  33.355  0.00  0.00     0.002 A 
ATOM      8  C   UNL d   1     -49.391  25.861  33.349  0.00  0.00     0.000 A 
ATOM      9  C   UNL d   1     -48.685  25.372  33.366  0.00  0.00     0.000 C 
ATOM     10  C   UNL d   1     -49.322  26.687  33.326  0.00  0.00     0.000 A 
ATOM     11  C   UNL d   1     -50.001  27.152  33.310  0.00  0.00     0.000 A 
ATOM     12  C   UNL d   1     -48.575  27.038  33.321  0.00  0.00     0.000 C 
ATOM     13  C   UNL d   1     -50.743  26.804  33.315  0.00  0.00     0.002 A 
ENDBRANCH   5   6
BRANCH   1  14
ATOM     14  C   UNL d   1     -53.432  24.028  33.344  0.00  0.00     0.231 C 
ATOM     15  O   UNL d   1     -54.207  24.301  33.329  0.00  0.00    -0.643 OA
ATOM     16  O   UNL d   1     -53.279  23.223  33.360  0.00  0.00    -0.643 OA
ENDBRANCH   1  14
TORSDOF 2
ENDMDL
