MODEL 1
REMARK VINA RESULT:      46.5      0.000      0.000
REMARK  4 active torsions:
REMARK  status: ('A' for Active; 'I' for Inactive)
REMARK    1  A    between atoms: C_6  and  N_1 
REMARK    2  A    between atoms: C_10  and  C_4 
REMARK    3  A    between atoms: C_8  and  C_6 
REMARK    4  A    between atoms: C_9  and  C_8 
ROOT
ATOM      1  N   UNL d   1     -57.601 -99.214 -44.724  0.00  0.00    -0.305 N 
ATOM      2  C   UNL d   1     -56.513 -99.005 -43.968  0.00  0.00     0.057 A 
ATOM      3  C   UNL d   1     -56.776 -99.195 -44.737  0.00  0.00     0.067 A 
ATOM      4  C   UNL d   1     -57.848 -99.041 -43.969  0.00  0.00     0.064 A 
ATOM      5  C   UNL d   1     -57.180 -98.909 -43.493  0.00  0.00     0.022 A 
ATOM      6  C   UNL d   1     -55.706 -98.946 -43.811  0.00  0.00     0.197 A 
ATOM      7  O   UNL d   1     -55.443 -98.755 -43.041  0.00  0.00    -0.286 OA
ATOM      8  C   UNL d   1     -56.229 -99.324 -45.339  0.00  0.00     0.018 A 
ATOM      9  C   UNL d   1     -55.161 -99.075 -44.413  0.00  0.00     0.042 A 
ATOM     10  C   UNL d   1     -55.419 -99.262 -45.168  0.00  0.00     0.005 A 
ENDROOT
BRANCH   4  11
ATOM     11  C   UNL d   1     -58.530 -98.944 -43.486  0.00  0.00     0.016 A 
ATOM     12  C   UNL d   1     -58.448 -98.859 -42.674  0.00  0.00     0.001 A 
ATOM     13  C   UNL d   1     -59.113 -98.765 -42.200  0.00  0.00     0.000 A 
ATOM     14  C   UNL d   1     -59.861 -98.756 -42.558  0.00  0.00     0.000 A 
ATOM     15  C   UNL d   1     -59.949 -98.840 -43.369  0.00  0.00     0.000 A 
ATOM     16  C   UNL d   1     -59.281 -98.935 -43.840  0.00  0.00     0.001 A 
ENDBRANCH   4  11
BRANCH   1  17
ATOM     17  C   UNL d   1     -58.115 -99.379 -45.357  0.00  0.00     0.086 C 
BRANCH  17  18
ATOM     18  C   UNL d   1     -58.357 -98.755 -45.850  0.00  0.00     0.089 C 
BRANCH  18  19
ATOM     19  C   UNL d   1     -58.913 -98.875 -46.447  0.00  0.00     0.213 C 
ATOM     20  O   UNL d   1     -59.712 -98.767 -46.293  0.00  0.00    -0.644 OA
ATOM     21  O   UNL d   1     -58.693 -99.104 -47.204  0.00  0.00    -0.644 OA
ENDBRANCH  18  19
ENDBRANCH  17  18
ENDBRANCH   1  17
TORSDOF 4
ENDMDL
MODEL 2
REMARK VINA RESULT:      46.6      0.787      2.761
REMARK  4 active torsions:
REMARK  status: ('A' for Active; 'I' for Inactive)
REMARK    1  A    between atoms: C_6  and  N_1 
REMARK    2  A    between atoms: C_10  and  C_4 
REMARK    3  A    between atoms: C_8  and  C_6 
REMARK    4  A    between atoms: C_9  and  C_8 
ROOT
ATOM      1  N   UNL d   1     -57.710 -98.918 -44.523  0.00  0.00    -0.305 N 
ATOM      2  C   UNL d   1     -58.686 -98.842 -45.440  0.00  0.00     0.057 A 
ATOM      3  C   UNL d   1     -57.858 -98.864 -45.333  0.00  0.00     0.067 A 
ATOM      4  C   UNL d   1     -58.424 -98.930 -44.133  0.00  0.00     0.064 A 
ATOM      5  C   UNL d   1     -59.035 -98.883 -44.694  0.00  0.00     0.022 A 
ATOM      6  C   UNL d   1     -59.002 -98.788 -46.198  0.00  0.00     0.197 A 
ATOM      7  O   UNL d   1     -59.830 -98.766 -46.305  0.00  0.00    -0.286 OA
ATOM      8  C   UNL d   1     -57.358 -98.832 -45.986  0.00  0.00     0.018 A 
ATOM      9  C   UNL d   1     -58.502 -98.756 -46.850  0.00  0.00     0.042 A 
ATOM     10  C   UNL d   1     -57.689 -98.777 -46.745  0.00  0.00     0.005 A 
ENDROOT
BRANCH   4  11
ATOM     11  C   UNL d   1     -58.777 -98.972 -43.371  0.00  0.00     0.016 A 
ATOM     12  C   UNL d   1     -58.346 -98.758 -42.707  0.00  0.00     0.001 A 
ATOM     13  C   UNL d   1     -58.689 -98.798 -41.961  0.00  0.00     0.000 A 
ATOM     14  C   UNL d   1     -59.474 -99.057 -41.896  0.00  0.00     0.000 A 
ATOM     15  C   UNL d   1     -59.910 -99.272 -42.556  0.00  0.00     0.000 A 
ATOM     16  C   UNL d   1     -59.562 -99.230 -43.301  0.00  0.00     0.001 A 
ENDBRANCH   4  11
BRANCH   1  17
ATOM     17  C   UNL d   1     -56.970 -98.956 -44.143  0.00  0.00     0.086 C 
BRANCH  17  18
ATOM     18  C   UNL d   1     -56.297 -99.142 -44.594  0.00  0.00     0.089 C 
BRANCH  18  19
ATOM     19  C   UNL d   1     -55.710 -99.638 -44.297  0.00  0.00     0.213 C 
ATOM     20  O   UNL d   1     -55.828-100.450 -44.277  0.00  0.00    -0.644 OA
ATOM     21  O   UNL d   1     -54.997 -99.345 -44.014  0.00  0.00    -0.644 OA
ENDBRANCH  18  19
ENDBRANCH  17  18
ENDBRANCH   1  17
TORSDOF 4
ENDMDL
MODEL 3
REMARK VINA RESULT:      47.1      1.436      2.653
REMARK  4 active torsions:
REMARK  status: ('A' for Active; 'I' for Inactive)
REMARK    1  A    between atoms: C_6  and  N_1 
REMARK    2  A    between atoms: C_10  and  C_4 
REMARK    3  A    between atoms: C_8  and  C_6 
REMARK    4  A    between atoms: C_9  and  C_8 
ROOT
ATOM      1  N   UNL d   1     -57.724 -98.850 -44.234  0.00  0.00    -0.305 N 
ATOM      2  C   UNL d   1     -56.584 -99.011 -44.923  0.00  0.00     0.057 A 
ATOM      3  C   UNL d   1     -56.907 -98.935 -44.157  0.00  0.00     0.067 A 
ATOM      4  C   UNL d   1     -57.909 -98.872 -45.026  0.00  0.00     0.064 A 
ATOM      5  C   UNL d   1     -57.208 -98.972 -45.461  0.00  0.00     0.022 A 
ATOM      6  C   UNL d   1     -55.772 -99.105 -45.021  0.00  0.00     0.197 A 
ATOM      7  O   UNL d   1     -55.450 -99.181 -45.787  0.00  0.00    -0.286 OA
ATOM      8  C   UNL d   1     -56.413 -98.953 -43.498  0.00  0.00     0.018 A 
ATOM      9  C   UNL d   1     -55.279 -99.123 -44.362  0.00  0.00     0.042 A 
ATOM     10  C   UNL d   1     -55.596 -99.048 -43.610  0.00  0.00     0.005 A 
ENDROOT
BRANCH   4  11
ATOM     11  C   UNL d   1     -58.547 -98.833 -45.573  0.00  0.00     0.016 A 
ATOM     12  C   UNL d   1     -59.319 -98.797 -45.299  0.00  0.00     0.001 A 
ATOM     13  C   UNL d   1     -59.944 -98.758 -45.832  0.00  0.00     0.000 A 
ATOM     14  C   UNL d   1     -59.778 -98.756 -46.644  0.00  0.00     0.000 A 
ATOM     15  C   UNL d   1     -59.008 -98.791 -46.923  0.00  0.00     0.000 A 
ATOM     16  C   UNL d   1     -58.385 -98.830 -46.387  0.00  0.00     0.001 A 
ENDBRANCH   4  11
BRANCH   1  17
ATOM     17  C   UNL d   1     -58.285 -98.756 -43.627  0.00  0.00     0.086 C 
BRANCH  17  18
ATOM     18  C   UNL d   1     -58.452 -99.402 -43.132  0.00  0.00     0.089 C 
BRANCH  18  19
ATOM     19  C   UNL d   1     -59.184 -99.477 -42.761  0.00  0.00     0.213 C 
ATOM     20  O   UNL d   1     -59.327 -99.092 -42.050  0.00  0.00    -0.644 OA
ATOM     21  O   UNL d   1     -59.789 -99.930 -43.083  0.00  0.00    -0.644 OA
ENDBRANCH  18  19
ENDBRANCH  17  18
ENDBRANCH   1  17
TORSDOF 4
ENDMDL
