MODEL 1
REMARK VINA RESULT:      34.8      0.000      0.000
REMARK  4 active torsions:
REMARK  status: ('A' for Active; 'I' for Inactive)
REMARK    1  A    between atoms: C_14  and  N_1 
REMARK    2  A    between atoms: S_12  and  C_2 
REMARK       I    between atoms: N_7  and  C_10 
REMARK    3  A    between atoms: C_10  and  C_16 
REMARK    4  A    between atoms: C_16  and  S_12 
ROOT
ATOM      1  N   UNL d   1      46.101 -18.488  42.646  0.00  0.00    -0.254 N 
ATOM      2  C   UNL d   1      45.963 -18.004  43.300  0.00  0.00     0.183 A 
ATOM      3  N   UNL d   1      46.053 -18.307  44.061  0.00  0.00    -0.201 NA
ATOM      4  C   UNL d   1      46.331 -19.280  42.753  0.00  0.00     0.271 A 
ATOM      5  C   UNL d   1      46.420 -19.579  43.520  0.00  0.00     0.115 A 
ATOM      6  C   UNL d   1      46.280 -19.089  44.174  0.00  0.00     0.192 A 
ATOM      7  N   UNL d   1      46.630 -20.291  44.628  0.00  0.00    -0.145 NA
ATOM      8  N   UNL d   1      46.412 -19.537  44.860  0.00  0.00    -0.128 NA
ATOM      9  C   UNL d   1      46.639 -20.330  43.807  0.00  0.00     0.130 A 
ATOM     10  O   UNL d   1      46.470 -19.768  42.090  0.00  0.00    -0.266 OA
ENDROOT
BRANCH   2  11
ATOM     11  S   UNL d   1      45.737 -17.225  43.190  0.00  0.00    -0.044 SA
BRANCH  11  12
ATOM     12  C   UNL d   1      45.479 -16.767  43.840  0.00  0.00     0.099 C 
BRANCH  12  13
ATOM     13  C   UNL d   1      45.770 -16.004  43.948  0.00  0.00     0.271 C 
ATOM     14  N   UNL d   1      45.292 -15.421  44.280  0.00  0.00    -0.273 N 
ATOM     15  C   UNL d   1      45.581 -14.662  44.389  0.00  0.00     0.067 A 
ATOM     16  C   UNL d   1      44.520 -15.610  44.503  0.00  0.00     0.083 A 
ATOM     17  C   UNL d   1      45.099 -14.080  44.722  0.00  0.00     0.016 A 
ATOM     18  C   UNL d   1      46.353 -14.478  44.165  0.00  0.00     0.018 A 
ATOM     19  C   UNL d   1      45.395 -13.319  44.828  0.00  0.00     0.001 A 
ATOM     20  C   UNL d   1      44.334 -14.255  44.946  0.00  0.00     0.003 A 
ATOM     21  C   UNL d   1      46.166 -13.131  44.606  0.00  0.00     0.000 A 
ATOM     22  C   UNL d   1      46.644 -13.714  44.273  0.00  0.00     0.002 A 
ATOM     23  C   UNL d   1      44.036 -15.028  44.837  0.00  0.00     0.019 A 
ATOM     24  O   UNL d   1      46.543 -15.826  43.722  0.00  0.00    -0.266 OA
ENDBRANCH  12  13
ENDBRANCH  11  12
ENDBRANCH   2  11
BRANCH   1  25
ATOM     25  C   UNL d   1      46.011 -18.187  41.876  0.00  0.00     0.069 A 
ATOM     26  C   UNL d   1      46.646 -17.807  41.511  0.00  0.00     0.018 A 
ATOM     27  C   UNL d   1      46.559 -17.506  40.744  0.00  0.00     0.002 A 
ATOM     28  C   UNL d   1      45.836 -17.589  40.349  0.00  0.00     0.000 A 
ATOM     29  C   UNL d   1      45.206 -17.971  40.721  0.00  0.00     0.002 A 
ATOM     30  C   UNL d   1      45.297 -18.269  41.486  0.00  0.00     0.018 A 
ENDBRANCH   1  25
TORSDOF 4
ENDMDL
