MODEL 1
REMARK VINA RESULT:      -3.6      0.000      0.000
REMARK  3 active torsions:
REMARK  status: ('A' for Active; 'I' for Inactive)
REMARK    1  A    between atoms: S_11  and  C_4 
REMARK    2  A    between atoms: C_14  and  S_11 
REMARK    3  A    between atoms: O_15  and  C_12 
ROOT
ATOM      1  N   UNL d   1      59.919  -3.763  28.661  0.00  0.00    -0.195 NA
ATOM      2  C   UNL d   1      59.643  -3.028  28.929  0.00  0.00     0.086 C 
ATOM      3  C   UNL d   1      59.378  -2.286  29.199  0.00  0.00     0.168 C 
ENDROOT
BRANCH   3   4
ATOM      4  S   UNL d   1      58.551  -2.118  29.242  0.00  0.00    -0.078 SA
BRANCH   4   5
ATOM      5  C   UNL d   1      58.276  -1.478  29.732  0.00  0.00     0.108 A 
ATOM      6  N   UNL d   1      57.769  -1.635  30.365  0.00  0.00    -0.239 NA
ATOM      7  C   UNL d   1      57.516  -1.008  30.824  0.00  0.00     0.084 A 
ATOM      8  C   UNL d   1      57.756  -0.248  30.664  0.00  0.00     0.018 A 
ATOM      9  C   UNL d   1      57.010  -1.166  31.456  0.00  0.00     0.043 A 
ATOM     10  C   UNL d   1      58.260  -0.079  30.037  0.00  0.00     0.004 A 
ATOM     11  C   UNL d   1      57.500   0.390  31.128  0.00  0.00     0.004 A 
ATOM     12  C   UNL d   1      58.515  -0.718  29.572  0.00  0.00     0.025 A 
ATOM     13  C   UNL d   1      58.500   0.682  29.876  0.00  0.00     0.000 C 
ATOM     14  C   UNL d   1      56.987   0.228  31.769  0.00  0.00     0.024 A 
ATOM     15  C   UNL d   1      56.747  -0.533  31.930  0.00  0.00     0.096 A 
BRANCH  15  16
ATOM     16  O   UNL d   1      56.238  -0.689  32.565  0.00  0.00    -0.328 OA
ATOM     17  C   UNL d   1      55.820  -0.058  32.914  0.00  0.00     0.181 C 
ENDBRANCH  15  16
ENDBRANCH   4   5
ENDBRANCH   3   4
TORSDOF 3
ENDMDL
MODEL 2
REMARK VINA RESULT:      -2.7      1.454      2.149
REMARK  3 active torsions:
REMARK  status: ('A' for Active; 'I' for Inactive)
REMARK    1  A    between atoms: S_11  and  C_4 
REMARK    2  A    between atoms: C_14  and  S_11 
REMARK    3  A    between atoms: O_15  and  C_12 
ROOT
ATOM      1  N   UNL d   1      61.077  -4.615  28.495  0.00  0.00    -0.195 NA
ATOM      2  C   UNL d   1      60.887  -3.848  28.746  0.00  0.00     0.086 C 
ATOM      3  C   UNL d   1      60.703  -3.078  29.007  0.00  0.00     0.168 C 
ENDROOT
BRANCH   3   4
ATOM      4  S   UNL d   1      60.187  -2.586  28.554  0.00  0.00    -0.078 SA
BRANCH   4   5
ATOM      5  C   UNL d   1      59.986  -1.809  28.843  0.00  0.00     0.108 A 
ATOM      6  N   UNL d   1      59.242  -1.676  29.175  0.00  0.00    -0.239 NA
ATOM      7  C   UNL d   1      59.067  -0.925  29.446  0.00  0.00     0.084 A 
ATOM      8  C   UNL d   1      59.610  -0.323  29.391  0.00  0.00     0.018 A 
ATOM      9  C   UNL d   1      58.324  -0.793  29.778  0.00  0.00     0.043 A 
ATOM     10  C   UNL d   1      60.354  -0.444  29.062  0.00  0.00     0.004 A 
ATOM     11  C   UNL d   1      59.436   0.440  29.665  0.00  0.00     0.004 A 
ATOM     12  C   UNL d   1      60.529  -1.207  28.787  0.00  0.00     0.025 A 
ATOM     13  C   UNL d   1      60.898   0.160  29.007  0.00  0.00     0.000 C 
ATOM     14  C   UNL d   1      58.680   0.572  30.002  0.00  0.00     0.024 A 
ATOM     15  C   UNL d   1      58.137  -0.030  30.057  0.00  0.00     0.096 A 
BRANCH  15  16
ATOM     16  O   UNL d   1      57.390   0.105  30.391  0.00  0.00    -0.328 OA
ATOM     17  C   UNL d   1      57.337   0.302  31.199  0.00  0.00     0.181 C 
ENDBRANCH  15  16
ENDBRANCH   4   5
ENDBRANCH   3   4
TORSDOF 3
ENDMDL
MODEL 3
REMARK VINA RESULT:      -2.5      8.981      9.311
REMARK  3 active torsions:
REMARK  status: ('A' for Active; 'I' for Inactive)
REMARK    1  A    between atoms: S_11  and  C_4 
REMARK    2  A    between atoms: C_14  and  S_11 
REMARK    3  A    between atoms: O_15  and  C_12 
ROOT
ATOM      1  N   UNL d   1      56.549  -9.675  30.719  0.00  0.00    -0.195 NA
ATOM      2  C   UNL d   1      57.291  -9.691  31.090  0.00  0.00     0.086 C 
ATOM      3  C   UNL d   1      58.041  -9.705  31.452  0.00  0.00     0.168 C 
ENDROOT
BRANCH   3   4
ATOM      4  S   UNL d   1      58.110  -9.818  32.287  0.00  0.00    -0.078 SA
BRANCH   4   5
ATOM      5  C   UNL d   1      58.864  -9.701  32.667  0.00  0.00     0.108 A 
ATOM      6  N   UNL d   1      58.892  -9.485  33.463  0.00  0.00    -0.239 NA
ATOM      7  C   UNL d   1      59.624  -9.377  33.810  0.00  0.00     0.084 A 
ATOM      8  C   UNL d   1      60.309  -9.480  33.384  0.00  0.00     0.018 A 
ATOM      9  C   UNL d   1      59.652  -9.162  34.606  0.00  0.00     0.043 A 
ATOM     10  C   UNL d   1      60.293  -9.694  32.590  0.00  0.00     0.004 A 
ATOM     11  C   UNL d   1      61.053  -9.371  33.733  0.00  0.00     0.004 A 
ATOM     12  C   UNL d   1      59.549  -9.803  32.240  0.00  0.00     0.025 A 
ATOM     13  C   UNL d   1      60.979  -9.797  32.163  0.00  0.00     0.000 C 
ATOM     14  C   UNL d   1      61.079  -9.152  34.541  0.00  0.00     0.024 A 
ATOM     15  C   UNL d   1      60.394  -9.050  34.968  0.00  0.00     0.096 A 
BRANCH  15  16
ATOM     16  O   UNL d   1      60.424  -8.833  35.767  0.00  0.00    -0.328 OA
ATOM     17  C   UNL d   1      60.465  -8.025  35.967  0.00  0.00     0.181 C 
ENDBRANCH  15  16
ENDBRANCH   4   5
ENDBRANCH   3   4
TORSDOF 3
ENDMDL
MODEL 4
REMARK VINA RESULT:      -2.2      2.628      4.244
REMARK  3 active torsions:
REMARK  status: ('A' for Active; 'I' for Inactive)
REMARK    1  A    between atoms: S_11  and  C_4 
REMARK    2  A    between atoms: C_14  and  S_11 
REMARK    3  A    between atoms: O_15  and  C_12 
ROOT
ATOM      1  N   UNL d   1      55.083   0.364  34.655  0.00  0.00    -0.195 NA
ATOM      2  C   UNL d   1      55.732   0.452  34.147  0.00  0.00     0.086 C 
ATOM      3  C   UNL d   1      56.392   0.540  33.645  0.00  0.00     0.168 C 
ENDROOT
BRANCH   3   4
ATOM      4  S   UNL d   1      56.290   0.564  32.807  0.00  0.00    -0.078 SA
BRANCH   4   5
ATOM      5  C   UNL d   1      56.975   0.573  32.300  0.00  0.00     0.108 A 
ATOM      6  N   UNL d   1      56.879   0.532  31.481  0.00  0.00    -0.239 NA
ATOM      7  C   UNL d   1      57.548   0.542  31.011  0.00  0.00     0.084 A 
ATOM      8  C   UNL d   1      58.290   0.590  31.339  0.00  0.00     0.018 A 
ATOM      9  C   UNL d   1      57.452   0.501  30.193  0.00  0.00     0.043 A 
ATOM     10  C   UNL d   1      58.398   0.631  32.154  0.00  0.00     0.004 A 
ATOM     11  C   UNL d   1      58.970   0.600  30.866  0.00  0.00     0.004 A 
ATOM     12  C   UNL d   1      57.717   0.622  32.629  0.00  0.00     0.025 A 
ATOM     13  C   UNL d   1      59.141   0.680  32.483  0.00  0.00     0.000 C 
ATOM     14  C   UNL d   1      58.870   0.559  30.035  0.00  0.00     0.024 A 
ATOM     15  C   UNL d   1      58.128   0.510  29.706  0.00  0.00     0.096 A 
BRANCH  15  16
ATOM     16  O   UNL d   1      58.033   0.469  28.884  0.00  0.00    -0.328 OA
ATOM     17  C   UNL d   1      58.457  -0.106  28.455  0.00  0.00     0.181 C 
ENDBRANCH  15  16
ENDBRANCH   4   5
ENDBRANCH   3   4
TORSDOF 3
ENDMDL
MODEL 5
REMARK VINA RESULT:      -1.8      9.012      9.225
REMARK  3 active torsions:
REMARK  status: ('A' for Active; 'I' for Inactive)
REMARK    1  A    between atoms: S_11  and  C_4 
REMARK    2  A    between atoms: C_14  and  S_11 
REMARK    3  A    between atoms: O_15  and  C_12 
ROOT
ATOM      1  N   UNL d   1      55.979  -9.747  29.023  0.00  0.00    -0.195 NA
ATOM      2  C   UNL d   1      56.657  -9.739  29.501  0.00  0.00     0.086 C 
ATOM      3  C   UNL d   1      57.345  -9.730  29.972  0.00  0.00     0.168 C 
ENDROOT
BRANCH   3   4
ATOM      4  S   UNL d   1      57.286  -9.777  30.814  0.00  0.00    -0.078 SA
BRANCH   4   5
ATOM      5  C   UNL d   1      57.996  -9.778  31.286  0.00  0.00     0.108 A 
ATOM      6  N   UNL d   1      57.940  -9.759  32.109  0.00  0.00    -0.239 NA
ATOM      7  C   UNL d   1      58.632  -9.760  32.545  0.00  0.00     0.084 A 
ATOM      8  C   UNL d   1      59.357  -9.780  32.179  0.00  0.00     0.018 A 
ATOM      9  C   UNL d   1      58.575  -9.742  33.368  0.00  0.00     0.043 A 
ATOM     10  C   UNL d   1      59.425  -9.798  31.360  0.00  0.00     0.004 A 
ATOM     11  C   UNL d   1      60.061  -9.781  32.619  0.00  0.00     0.004 A 
ATOM     12  C   UNL d   1      58.721  -9.797  30.920  0.00  0.00     0.025 A 
ATOM     13  C   UNL d   1      60.152  -9.818  30.994  0.00  0.00     0.000 C 
ATOM     14  C   UNL d   1      60.001  -9.762  33.454  0.00  0.00     0.024 A 
ATOM     15  C   UNL d   1      59.275  -9.743  33.820  0.00  0.00     0.096 A 
BRANCH  15  16
ATOM     16  O   UNL d   1      59.221  -9.724  34.647  0.00  0.00    -0.328 OA
ATOM     17  C   UNL d   1      59.906  -9.567  35.095  0.00  0.00     0.181 C 
ENDBRANCH  15  16
ENDBRANCH   4   5
ENDBRANCH   3   4
TORSDOF 3
ENDMDL
MODEL 6
REMARK VINA RESULT:      -1.4      2.262      3.297
REMARK  3 active torsions:
REMARK  status: ('A' for Active; 'I' for Inactive)
REMARK    1  A    between atoms: S_11  and  C_4 
REMARK    2  A    between atoms: C_14  and  S_11 
REMARK    3  A    between atoms: O_15  and  C_12 
ROOT
ATOM      1  N   UNL d   1      57.563  -5.682  28.457  0.00  0.00    -0.195 NA
ATOM      2  C   UNL d   1      58.096  -5.046  28.457  0.00  0.00     0.086 C 
ATOM      3  C   UNL d   1      58.640  -4.415  28.456  0.00  0.00     0.168 C 
ENDROOT
BRANCH   3   4
ATOM      4  S   UNL d   1      58.369  -3.618  28.520  0.00  0.00    -0.078 SA
BRANCH   4   5
ATOM      5  C   UNL d   1      58.933  -2.989  28.636  0.00  0.00     0.108 A 
ATOM      6  N   UNL d   1      58.673  -2.246  28.884  0.00  0.00    -0.239 NA
ATOM      7  C   UNL d   1      59.228  -1.656  28.990  0.00  0.00     0.084 A 
ATOM      8  C   UNL d   1      60.018  -1.795  28.855  0.00  0.00     0.018 A 
ATOM      9  C   UNL d   1      58.968  -0.914  29.238  0.00  0.00     0.043 A 
ATOM     10  C   UNL d   1      60.289  -2.531  28.608  0.00  0.00     0.004 A 
ATOM     11  C   UNL d   1      60.584  -1.198  28.962  0.00  0.00     0.004 A 
ATOM     12  C   UNL d   1      59.723  -3.128  28.501  0.00  0.00     0.025 A 
ATOM     13  C   UNL d   1      61.079  -2.670  28.472  0.00  0.00     0.000 C 
ATOM     14  C   UNL d   1      60.317  -0.445  29.214  0.00  0.00     0.024 A 
ATOM     15  C   UNL d   1      59.527  -0.306  29.349  0.00  0.00     0.096 A 
BRANCH  15  16
ATOM     16  O   UNL d   1      59.268   0.440  29.598  0.00  0.00    -0.328 OA
ATOM     17  C   UNL d   1      59.164   0.583  30.412  0.00  0.00     0.181 C 
ENDBRANCH  15  16
ENDBRANCH   4   5
ENDBRANCH   3   4
TORSDOF 3
ENDMDL
MODEL 7
REMARK VINA RESULT:      -0.9      2.572      3.713
REMARK  3 active torsions:
REMARK  status: ('A' for Active; 'I' for Inactive)
REMARK    1  A    between atoms: S_11  and  C_4 
REMARK    2  A    between atoms: C_14  and  S_11 
REMARK    3  A    between atoms: O_15  and  C_12 
ROOT
ATOM      1  N   UNL d   1      55.784  -1.143  33.095  0.00  0.00    -0.195 NA
ATOM      2  C   UNL d   1      56.337  -0.612  32.780  0.00  0.00     0.086 C 
ATOM      3  C   UNL d   1      56.900  -0.079  32.473  0.00  0.00     0.168 C 
ENDROOT
BRANCH   3   4
ATOM      4  S   UNL d   1      56.767   0.300  31.730  0.00  0.00    -0.078 SA
BRANCH   4   5
ATOM      5  C   UNL d   1      57.415   0.394  31.184  0.00  0.00     0.108 A 
ATOM      6  N   UNL d   1      58.191   0.386  31.465  0.00  0.00    -0.239 NA
ATOM      7  C   UNL d   1      58.800   0.478  30.927  0.00  0.00     0.084 A 
ATOM      8  C   UNL d   1      58.647   0.575  30.134  0.00  0.00     0.018 A 
ATOM      9  C   UNL d   1      59.575   0.470  31.208  0.00  0.00     0.043 A 
ATOM     10  C   UNL d   1      57.878   0.585  29.843  0.00  0.00     0.004 A 
ATOM     11  C   UNL d   1      59.262   0.669  29.586  0.00  0.00     0.004 A 
ATOM     12  C   UNL d   1      57.262   0.491  30.391  0.00  0.00     0.025 A 
ATOM     13  C   UNL d   1      57.725   0.682  29.049  0.00  0.00     0.000 C 
ATOM     14  C   UNL d   1      60.048   0.660  29.874  0.00  0.00     0.024 A 
ATOM     15  C   UNL d   1      60.202   0.563  30.666  0.00  0.00     0.096 A 
BRANCH  15  16
ATOM     16  O   UNL d   1      60.982   0.555  30.947  0.00  0.00    -0.328 OA
ATOM     17  C   UNL d   1      61.131   0.294  31.723  0.00  0.00     0.181 C 
ENDBRANCH  15  16
ENDBRANCH   4   5
ENDBRANCH   3   4
TORSDOF 3
ENDMDL
