MODEL 1
REMARK VINA RESULT:      34.7      0.000      0.000
REMARK  7 active torsions:
REMARK  status: ('A' for Active; 'I' for Inactive)
REMARK    1  A    between atoms: C_6  and  C_1 
REMARK    2  A    between atoms: C_8  and  N_3 
REMARK    3  A    between atoms: O_7  and  C_6 
REMARK    4  A    between atoms: C_9  and  O_7 
REMARK    5  A    between atoms: C_19  and  C_8 
REMARK    6  A    between atoms: O_16  and  C_10 
REMARK    7  A    between atoms: O_18  and  C_19 
ROOT
ATOM      1  C   UNL d   1      14.006  13.524  -2.723  0.00  0.00     0.173 A 
ATOM      2  N   UNL d   1      13.817  13.805  -3.484  0.00  0.00    -0.225 NA
ATOM      3  N   UNL d   1      13.763  12.723  -2.674  0.00  0.00    -0.286 N 
ATOM      4  C   UNL d   1      13.422  12.511  -3.411  0.00  0.00     0.083 A 
ATOM      5  C   UNL d   1      13.459  13.183  -3.905  0.00  0.00     0.099 A 
ATOM      6  C   UNL d   1      13.088  11.815  -3.699  0.00  0.00     0.019 A 
ATOM      7  C   UNL d   1      13.162  13.146  -4.677  0.00  0.00     0.021 A 
ATOM      8  C   UNL d   1      12.792  11.779  -4.469  0.00  0.00     0.002 A 
ATOM      9  C   UNL d   1      12.829  12.445  -4.958  0.00  0.00     0.002 A 
ENDROOT
BRANCH   1  10
ATOM     10  C   UNL d   1      14.364  14.104  -2.266  0.00  0.00     0.160 C 
BRANCH  10  11
ATOM     11  O   UNL d   1      14.261  14.905  -2.454  0.00  0.00    -0.302 OA
BRANCH  11  12
ATOM     12  C   UNL d   1      14.633  15.489  -2.006  0.00  0.00     0.100 A 
ATOM     13  C   UNL d   1      14.861  16.191  -2.370  0.00  0.00     0.027 A 
ATOM     14  C   UNL d   1      15.234  16.776  -1.922  0.00  0.00     0.026 A 
ATOM     15  C   UNL d   1      15.377  16.656  -1.115  0.00  0.00     0.094 A 
ATOM     16  C   UNL d   1      15.146  15.953  -0.759  0.00  0.00     0.026 A 
ATOM     17  C   UNL d   1      14.774  15.368  -1.206  0.00  0.00     0.027 A 
BRANCH  15  18
ATOM     18  O   UNL d   1      15.748  17.239  -0.670  0.00  0.00    -0.328 OA
ATOM     19  C   UNL d   1      15.409  17.989  -0.598  0.00  0.00     0.181 C 
ENDBRANCH  15  18
ENDBRANCH  11  12
ENDBRANCH  10  11
ENDBRANCH   1  10
BRANCH   3  20
ATOM     20  C   UNL d   1      13.841  12.228  -2.022  0.00  0.00     0.108 C 
BRANCH  20  21
ATOM     21  C   UNL d   1      14.540  12.231  -1.577  0.00  0.00     0.135 C 
BRANCH  21  22
ATOM     22  O   UNL d   1      14.593  11.780  -0.895  0.00  0.00    -0.325 OA
ATOM     23  C   UNL d   1      15.191  11.928  -0.350  0.00  0.00     0.182 C 
ENDBRANCH  21  22
ENDBRANCH  20  21
ENDBRANCH   3  20
TORSDOF 7
ENDMDL
