MODEL 1
REMARK VINA RESULT:      -7.3      0.000      0.000
REMARK  4 active torsions:
REMARK  status: ('A' for Active; 'I' for Inactive)
REMARK    1  A    between atoms: C_3  and  N_1 
REMARK    2  A    between atoms: C_6  and  C_3 
REMARK    3  A    between atoms: C_9  and  C_3 
REMARK    4  A    between atoms: N_5  and  C_6 
ROOT
ATOM      1  C   UNL d   1     -48.825  13.148  22.526  0.00  0.00     0.106 C 
ENDROOT
BRANCH   1   2
ATOM      2  N   UNL d   1     -49.281  13.830  22.685  0.00  0.00    -0.228 N 
ATOM      3  N   UNL d   1     -49.328  14.329  23.346  0.00  0.00    -0.165 NA
ATOM      4  C   UNL d   1     -49.875  14.903  23.168  0.00  0.00     0.103 A 
ATOM      5  C   UNL d   1     -50.106  15.534  23.678  0.00  0.00     0.022 C 
ATOM      6  C   UNL d   1     -50.167  14.780  22.428  0.00  0.00     0.040 A 
ATOM      7  C   UNL d   1     -49.805  14.113  22.114  0.00  0.00     0.085 A 
ATOM      8  C   UNL d   1     -49.935  13.777  21.362  0.00  0.00     0.021 C 
ENDBRANCH   1   2
BRANCH   1   9
ATOM      9  C   UNL d   1     -49.201  12.425  22.393  0.00  0.00     0.167 C 
BRANCH   9  10
ATOM     10  N   UNL d   1     -49.214  11.846  22.982  0.00  0.00    -0.111 N 
ATOM     11  O   UNL d   1     -49.602  11.987  23.697  0.00  0.00    -0.532 OA
ATOM     12  O   UNL d   1     -48.833  11.114  22.853  0.00  0.00    -0.532 OA
ENDBRANCH   9  10
ENDBRANCH   1   9
BRANCH   1  13
ATOM     13  C   UNL d   1     -47.969  13.198  22.502  0.00  0.00     0.019 A 
ATOM     14  C   UNL d   1     -47.574  13.143  21.786  0.00  0.00     0.002 A 
ATOM     15  C   UNL d   1     -46.751  13.192  21.768  0.00  0.00     0.000 A 
ATOM     16  C   UNL d   1     -46.322  13.296  22.466  0.00  0.00     0.000 A 
ATOM     17  C   UNL d   1     -46.717  13.351  23.181  0.00  0.00     0.000 A 
ATOM     18  C   UNL d   1     -45.476  13.346  22.441  0.00  0.00     0.000 C 
ATOM     19  C   UNL d   1     -47.540  13.302  23.198  0.00  0.00     0.002 A 
ENDBRANCH   1  13
TORSDOF 4
ENDMDL
MODEL 2
REMARK VINA RESULT:      -7.2      1.424      2.177
REMARK  4 active torsions:
REMARK  status: ('A' for Active; 'I' for Inactive)
REMARK    1  A    between atoms: C_3  and  N_1 
REMARK    2  A    between atoms: C_6  and  C_3 
REMARK    3  A    between atoms: C_9  and  C_3 
REMARK    4  A    between atoms: N_5  and  C_6 
ROOT
ATOM      1  C   UNL d   1     -48.745  13.670  22.411  0.00  0.00     0.106 C 
ENDROOT
BRANCH   1   2
ATOM      2  N   UNL d   1     -49.288  13.062  22.600  0.00  0.00    -0.228 N 
ATOM      3  N   UNL d   1     -49.460  12.668  23.309  0.00  0.00    -0.165 NA
ATOM      4  C   UNL d   1     -50.044  12.129  23.142  0.00  0.00     0.103 A 
ATOM      5  C   UNL d   1     -50.396  11.600  23.697  0.00  0.00     0.022 C 
ATOM      6  C   UNL d   1     -50.239  12.173  22.362  0.00  0.00     0.040 A 
ATOM      7  C   UNL d   1     -49.775  12.752  22.011  0.00  0.00     0.085 A 
ATOM      8  C   UNL d   1     -49.785  12.989  21.212  0.00  0.00     0.021 C 
ENDBRANCH   1   2
BRANCH   1   9
ATOM      9  C   UNL d   1     -49.024  14.407  22.167  0.00  0.00     0.167 C 
BRANCH   9  10
ATOM     10  N   UNL d   1     -49.011  15.052  22.683  0.00  0.00    -0.111 N 
ATOM     11  O   UNL d   1     -49.412  15.020  23.403  0.00  0.00    -0.532 OA
ATOM     12  O   UNL d   1     -48.587  15.742  22.474  0.00  0.00    -0.532 OA
ENDBRANCH   9  10
ENDBRANCH   1   9
BRANCH   1  13
ATOM     13  C   UNL d   1     -47.901  13.528  22.472  0.00  0.00     0.019 A 
ATOM     14  C   UNL d   1     -47.531  13.554  23.202  0.00  0.00     0.002 A 
ATOM     15  C   UNL d   1     -46.720  13.417  23.255  0.00  0.00     0.000 A 
ATOM     16  C   UNL d   1     -46.277  13.254  22.577  0.00  0.00     0.000 A 
ATOM     17  C   UNL d   1     -46.647  13.229  21.847  0.00  0.00     0.000 A 
ATOM     18  C   UNL d   1     -45.443  13.115  22.637  0.00  0.00     0.000 C 
ATOM     19  C   UNL d   1     -47.459  13.366  21.795  0.00  0.00     0.002 A 
ENDBRANCH   1  13
TORSDOF 4
ENDMDL
MODEL 3
REMARK VINA RESULT:      -6.1      1.488      3.345
REMARK  4 active torsions:
REMARK  status: ('A' for Active; 'I' for Inactive)
REMARK    1  A    between atoms: C_3  and  N_1 
REMARK    2  A    between atoms: C_6  and  C_3 
REMARK    3  A    between atoms: C_9  and  C_3 
REMARK    4  A    between atoms: N_5  and  C_6 
ROOT
ATOM      1  C   UNL d   1     -47.437  12.678  22.921  0.00  0.00     0.106 C 
ENDROOT
BRANCH   1   2
ATOM      2  N   UNL d   1     -46.685  12.912  22.640  0.00  0.00    -0.228 N 
ATOM      3  N   UNL d   1     -46.181  12.592  22.064  0.00  0.00    -0.165 NA
ATOM      4  C   UNL d   1     -45.523  13.069  22.038  0.00  0.00     0.103 A 
ATOM      5  C   UNL d   1     -44.858  12.958  21.531  0.00  0.00     0.022 C 
ATOM      6  C   UNL d   1     -45.600  13.666  22.572  0.00  0.00     0.040 A 
ATOM      7  C   UNL d   1     -46.321  13.581  22.955  0.00  0.00     0.085 A 
ATOM      8  C   UNL d   1     -46.635  14.072  23.551  0.00  0.00     0.021 C 
ENDBRANCH   1   2
BRANCH   1   9
ATOM      9  C   UNL d   1     -47.500  12.288  23.645  0.00  0.00     0.167 C 
BRANCH   9  10
ATOM     10  N   UNL d   1     -47.499  11.462  23.678  0.00  0.00    -0.111 N 
ATOM     11  O   UNL d   1     -46.787  11.046  23.698  0.00  0.00    -0.532 OA
ATOM     12  O   UNL d   1     -48.224  11.046  23.690  0.00  0.00    -0.532 OA
ENDBRANCH   9  10
ENDBRANCH   1   9
BRANCH   1  13
ATOM     13  C   UNL d   1     -48.140  12.842  22.459  0.00  0.00     0.019 A 
ATOM     14  C   UNL d   1     -48.673  13.412  22.709  0.00  0.00     0.002 A 
ATOM     15  C   UNL d   1     -49.348  13.566  22.261  0.00  0.00     0.000 A 
ATOM     16  C   UNL d   1     -49.491  13.151  21.562  0.00  0.00     0.000 A 
ATOM     17  C   UNL d   1     -48.958  12.582  21.311  0.00  0.00     0.000 A 
ATOM     18  C   UNL d   1     -50.186  13.314  21.105  0.00  0.00     0.000 C 
ATOM     19  C   UNL d   1     -48.283  12.428  21.760  0.00  0.00     0.002 A 
ENDBRANCH   1  13
TORSDOF 4
ENDMDL
MODEL 4
REMARK VINA RESULT:      -5.9      1.756      3.629
REMARK  4 active torsions:
REMARK  status: ('A' for Active; 'I' for Inactive)
REMARK    1  A    between atoms: C_3  and  N_1 
REMARK    2  A    between atoms: C_6  and  C_3 
REMARK    3  A    between atoms: C_9  and  C_3 
REMARK    4  A    between atoms: N_5  and  C_6 
ROOT
ATOM      1  C   UNL d   1     -47.942  12.766  22.593  0.00  0.00     0.106 C 
ENDROOT
BRANCH   1   2
ATOM      2  N   UNL d   1     -47.284  12.390  22.946  0.00  0.00    -0.228 N 
ATOM      3  N   UNL d   1     -47.106  11.592  23.085  0.00  0.00    -0.165 NA
ATOM      4  C   UNL d   1     -46.381  11.574  23.451  0.00  0.00     0.103 A 
ATOM      5  C   UNL d   1     -45.974  10.877  23.698  0.00  0.00     0.022 C 
ATOM      6  C   UNL d   1     -46.104  12.324  23.544  0.00  0.00     0.040 A 
ATOM      7  C   UNL d   1     -46.658  12.844  23.233  0.00  0.00     0.085 A 
ATOM      8  C   UNL d   1     -46.608  13.676  23.207  0.00  0.00     0.021 C 
ENDBRANCH   1   2
BRANCH   1   9
ATOM      9  C   UNL d   1     -47.825  13.295  21.970  0.00  0.00     0.167 C 
BRANCH   9  10
ATOM     10  N   UNL d   1     -48.132  13.133  21.220  0.00  0.00    -0.111 N 
ATOM     11  O   UNL d   1     -47.953  12.422  20.841  0.00  0.00    -0.532 OA
ATOM     12  O   UNL d   1     -48.626  13.692  20.844  0.00  0.00    -0.532 OA
ENDBRANCH   9  10
ENDBRANCH   1   9
BRANCH   1  13
ATOM     13  C   UNL d   1     -48.735  12.603  22.876  0.00  0.00     0.019 A 
ATOM     14  C   UNL d   1     -49.216  13.216  23.129  0.00  0.00     0.002 A 
ATOM     15  C   UNL d   1     -49.977  13.054  23.400  0.00  0.00     0.000 A 
ATOM     16  C   UNL d   1     -50.260  12.278  23.418  0.00  0.00     0.000 A 
ATOM     17  C   UNL d   1     -49.779  11.665  23.165  0.00  0.00     0.000 A 
ATOM     18  C   UNL d   1     -51.044  12.117  23.698  0.00  0.00     0.000 C 
ATOM     19  C   UNL d   1     -49.017  11.828  22.894  0.00  0.00     0.002 A 
ENDBRANCH   1  13
TORSDOF 4
ENDMDL
MODEL 5
REMARK VINA RESULT:      -5.9      8.786     10.365
REMARK  4 active torsions:
REMARK  status: ('A' for Active; 'I' for Inactive)
REMARK    1  A    between atoms: C_3  and  N_1 
REMARK    2  A    between atoms: C_6  and  C_3 
REMARK    3  A    between atoms: C_9  and  C_3 
REMARK    4  A    between atoms: N_5  and  C_6 
ROOT
ATOM      1  C   UNL d   1     -39.856  14.939  17.910  0.00  0.00     0.106 C 
ENDROOT
BRANCH   1   2
ATOM      2  N   UNL d   1     -39.297  14.341  17.739  0.00  0.00    -0.228 N 
ATOM      3  N   UNL d   1     -39.322  13.515  17.817  0.00  0.00    -0.165 NA
ATOM      4  C   UNL d   1     -38.606  13.234  17.558  0.00  0.00     0.103 A 
ATOM      5  C   UNL d   1     -38.378  12.422  17.535  0.00  0.00     0.022 C 
ATOM      6  C   UNL d   1     -38.141  13.848  17.324  0.00  0.00     0.040 A 
ATOM      7  C   UNL d   1     -38.560  14.546  17.431  0.00  0.00     0.085 A 
ATOM      8  C   UNL d   1     -38.300  15.320  17.264  0.00  0.00     0.021 C 
ENDBRANCH   1   2
BRANCH   1   9
ATOM      9  C   UNL d   1     -40.170  15.394  17.297  0.00  0.00     0.167 C 
BRANCH   9  10
ATOM     10  N   UNL d   1     -40.944  15.270  17.039  0.00  0.00    -0.111 N 
ATOM     11  O   UNL d   1     -41.215  14.506  16.882  0.00  0.00    -0.532 OA
ATOM     12  O   UNL d   1     -41.457  15.922  16.935  0.00  0.00    -0.532 OA
ENDBRANCH   9  10
ENDBRANCH   1   9
BRANCH   1  13
ATOM     13  C   UNL d   1     -40.102  15.080  18.720  0.00  0.00     0.019 A 
ATOM     14  C   UNL d   1     -40.548  14.520  19.118  0.00  0.00     0.002 A 
ATOM     15  C   UNL d   1     -40.782  14.661  19.896  0.00  0.00     0.000 A 
ATOM     16  C   UNL d   1     -40.570  15.362  20.277  0.00  0.00     0.000 A 
ATOM     17  C   UNL d   1     -40.124  15.922  19.879  0.00  0.00     0.000 A 
ATOM     18  C   UNL d   1     -40.814  15.501  21.077  0.00  0.00     0.000 C 
ATOM     19  C   UNL d   1     -39.890  15.780  19.100  0.00  0.00     0.002 A 
ENDBRANCH   1  13
TORSDOF 4
ENDMDL
MODEL 6
REMARK VINA RESULT:      -5.7      8.940      9.964
REMARK  4 active torsions:
REMARK  status: ('A' for Active; 'I' for Inactive)
REMARK    1  A    between atoms: C_3  and  N_1 
REMARK    2  A    between atoms: C_6  and  C_3 
REMARK    3  A    between atoms: C_9  and  C_3 
REMARK    4  A    between atoms: N_5  and  C_6 
ROOT
ATOM      1  C   UNL d   1     -39.780  14.950  18.101  0.00  0.00     0.106 C 
ENDROOT
BRANCH   1   2
ATOM      2  N   UNL d   1     -40.262  15.251  17.488  0.00  0.00    -0.228 N 
ATOM      3  N   UNL d   1     -41.074  15.181  17.332  0.00  0.00    -0.165 NA
ATOM      4  C   UNL d   1     -41.218  15.599  16.650  0.00  0.00     0.103 A 
ATOM      5  C   UNL d   1     -41.970  15.684  16.277  0.00  0.00     0.022 C 
ATOM      6  C   UNL d   1     -40.532  15.922  16.379  0.00  0.00     0.040 A 
ATOM      7  C   UNL d   1     -39.927  15.713  16.893  0.00  0.00     0.085 A 
ATOM      8  C   UNL d   1     -39.122  15.922  16.834  0.00  0.00     0.021 C 
ENDBRANCH   1   2
BRANCH   1   9
ATOM      9  C   UNL d   1     -39.155  14.443  17.920  0.00  0.00     0.167 C 
BRANCH   9  10
ATOM     10  N   UNL d   1     -39.222  13.631  18.056  0.00  0.00    -0.111 N 
ATOM     11  O   UNL d   1     -39.826  13.196  17.701  0.00  0.00    -0.532 OA
ATOM     12  O   UNL d   1     -38.673  13.248  18.558  0.00  0.00    -0.532 OA
ENDBRANCH   9  10
ENDBRANCH   1   9
BRANCH   1  13
ATOM     13  C   UNL d   1     -39.934  15.168  18.917  0.00  0.00     0.019 A 
ATOM     14  C   UNL d   1     -40.570  14.842  19.316  0.00  0.00     0.002 A 
ATOM     15  C   UNL d   1     -40.713  15.055  20.100  0.00  0.00     0.000 A 
ATOM     16  C   UNL d   1     -40.221  15.594  20.485  0.00  0.00     0.000 A 
ATOM     17  C   UNL d   1     -39.584  15.920  20.085  0.00  0.00     0.000 A 
ATOM     18  C   UNL d   1     -40.373  15.809  21.291  0.00  0.00     0.000 C 
ATOM     19  C   UNL d   1     -39.441  15.706  19.301  0.00  0.00     0.002 A 
ENDBRANCH   1  13
TORSDOF 4
ENDMDL
MODEL 7
REMARK VINA RESULT:      -5.4      1.347      3.196
REMARK  4 active torsions:
REMARK  status: ('A' for Active; 'I' for Inactive)
REMARK    1  A    between atoms: C_3  and  N_1 
REMARK    2  A    between atoms: C_6  and  C_3 
REMARK    3  A    between atoms: C_9  and  C_3 
REMARK    4  A    between atoms: N_5  and  C_6 
ROOT
ATOM      1  C   UNL d   1     -48.701  13.111  22.641  0.00  0.00     0.106 C 
ENDROOT
BRANCH   1   2
ATOM      2  N   UNL d   1     -47.889  13.009  22.808  0.00  0.00    -0.228 N 
ATOM      3  N   UNL d   1     -47.211  13.416  22.556  0.00  0.00    -0.165 NA
ATOM      4  C   UNL d   1     -46.576  13.056  22.911  0.00  0.00     0.103 A 
ATOM      5  C   UNL d   1     -45.768  13.282  22.816  0.00  0.00     0.022 C 
ATOM      6  C   UNL d   1     -46.830  12.445  23.370  0.00  0.00     0.040 A 
ATOM      7  C   UNL d   1     -47.648  12.405  23.316  0.00  0.00     0.085 A 
ATOM      8  C   UNL d   1     -48.151  11.860  23.697  0.00  0.00     0.021 C 
ENDBRANCH   1   2
BRANCH   1   9
ATOM      9  C   UNL d   1     -49.111  12.528  22.225  0.00  0.00     0.167 C 
BRANCH   9  10
ATOM     10  N   UNL d   1     -49.301  12.638  21.429  0.00  0.00    -0.111 N 
ATOM     11  O   UNL d   1     -48.705  12.711  20.863  0.00  0.00    -0.532 OA
ATOM     12  O   UNL d   1     -50.103  12.674  21.195  0.00  0.00    -0.532 OA
ENDBRANCH   9  10
ENDBRANCH   1   9
BRANCH   1  13
ATOM     13  C   UNL d   1     -49.109  13.820  22.901  0.00  0.00     0.019 A 
ATOM     14  C   UNL d   1     -49.712  13.769  23.452  0.00  0.00     0.002 A 
ATOM     15  C   UNL d   1     -50.101  14.454  23.698  0.00  0.00     0.000 A 
ATOM     16  C   UNL d   1     -49.887  15.190  23.393  0.00  0.00     0.000 A 
ATOM     17  C   UNL d   1     -49.284  15.241  22.841  0.00  0.00     0.000 A 
ATOM     18  C   UNL d   1     -50.290  15.890  23.650  0.00  0.00     0.000 C 
ATOM     19  C   UNL d   1     -48.895  14.556  22.596  0.00  0.00     0.002 A 
ENDBRANCH   1  13
TORSDOF 4
ENDMDL
MODEL 8
REMARK VINA RESULT:      -5.3      9.315     10.431
REMARK  4 active torsions:
REMARK  status: ('A' for Active; 'I' for Inactive)
REMARK    1  A    between atoms: C_3  and  N_1 
REMARK    2  A    between atoms: C_6  and  C_3 
REMARK    3  A    between atoms: C_9  and  C_3 
REMARK    4  A    between atoms: N_5  and  C_6 
ROOT
ATOM      1  C   UNL d   1     -39.214  14.585  18.293  0.00  0.00     0.106 C 
ENDROOT
BRANCH   1   2
ATOM      2  N   UNL d   1     -39.231  14.641  19.127  0.00  0.00    -0.228 N 
ATOM      3  N   UNL d   1     -39.751  14.335  19.697  0.00  0.00    -0.165 NA
ATOM      4  C   UNL d   1     -39.475  14.579  20.421  0.00  0.00     0.103 A 
ATOM      5  C   UNL d   1     -39.829  14.400  21.166  0.00  0.00     0.022 C 
ATOM      6  C   UNL d   1     -38.809  15.021  20.323  0.00  0.00     0.040 A 
ATOM      7  C   UNL d   1     -38.645  15.068  19.521  0.00  0.00     0.085 A 
ATOM      8  C   UNL d   1     -38.008  15.468  19.160  0.00  0.00     0.021 C 
ENDBRANCH   1   2
BRANCH   1   9
ATOM      9  C   UNL d   1     -38.585  14.203  17.920  0.00  0.00     0.167 C 
BRANCH   9  10
ATOM     10  N   UNL d   1     -38.694  13.462  17.570  0.00  0.00    -0.111 N 
ATOM     11  O   UNL d   1     -39.060  12.852  17.988  0.00  0.00    -0.532 OA
ATOM     12  O   UNL d   1     -38.432  13.331  16.788  0.00  0.00    -0.532 OA
ENDBRANCH   9  10
ENDBRANCH   1   9
BRANCH   1  13
ATOM     13  C   UNL d   1     -39.849  14.925  17.826  0.00  0.00     0.019 A 
ATOM     14  C   UNL d   1     -40.595  14.589  17.841  0.00  0.00     0.002 A 
ATOM     15  C   UNL d   1     -41.202  14.919  17.390  0.00  0.00     0.000 A 
ATOM     16  C   UNL d   1     -41.062  15.586  16.924  0.00  0.00     0.000 A 
ATOM     17  C   UNL d   1     -40.315  15.922  16.909  0.00  0.00     0.000 A 
ATOM     18  C   UNL d   1     -41.689  15.921  16.462  0.00  0.00     0.000 C 
ATOM     19  C   UNL d   1     -39.709  15.591  17.361  0.00  0.00     0.002 A 
ENDBRANCH   1  13
TORSDOF 4
ENDMDL
MODEL 9
REMARK VINA RESULT:      -5.1      8.496     10.295
REMARK  4 active torsions:
REMARK  status: ('A' for Active; 'I' for Inactive)
REMARK    1  A    between atoms: C_3  and  N_1 
REMARK    2  A    between atoms: C_6  and  C_3 
REMARK    3  A    between atoms: C_9  and  C_3 
REMARK    4  A    between atoms: N_5  and  C_6 
ROOT
ATOM      1  C   UNL d   1     -39.604  14.977  18.242  0.00  0.00     0.106 C 
ENDROOT
BRANCH   1   2
ATOM      2  N   UNL d   1     -39.922  14.956  19.015  0.00  0.00    -0.228 N 
ATOM      3  N   UNL d   1     -40.559  14.539  19.344  0.00  0.00    -0.165 NA
ATOM      4  C   UNL d   1     -40.597  14.750  20.128  0.00  0.00     0.103 A 
ATOM      5  C   UNL d   1     -41.160  14.462  20.686  0.00  0.00     0.022 C 
ATOM      6  C   UNL d   1     -40.012  15.277  20.296  0.00  0.00     0.040 A 
ATOM      7  C   UNL d   1     -39.583  15.415  19.610  0.00  0.00     0.085 A 
ATOM      8  C   UNL d   1     -38.927  15.922  19.520  0.00  0.00     0.021 C 
ENDBRANCH   1   2
BRANCH   1   9
ATOM      9  C   UNL d   1     -39.702  15.651  17.776  0.00  0.00     0.167 C 
BRANCH   9  10
ATOM     10  N   UNL d   1     -40.243  15.654  17.153  0.00  0.00    -0.111 N 
ATOM     11  O   UNL d   1     -41.027  15.430  17.279  0.00  0.00    -0.532 OA
ATOM     12  O   UNL d   1     -39.994  15.885  16.388  0.00  0.00    -0.532 OA
ENDBRANCH   9  10
ENDBRANCH   1   9
BRANCH   1  13
ATOM     13  C   UNL d   1     -39.176  14.301  17.933  0.00  0.00     0.019 A 
ATOM     14  C   UNL d   1     -38.371  14.353  17.791  0.00  0.00     0.002 A 
ATOM     15  C   UNL d   1     -37.965  13.699  17.494  0.00  0.00     0.000 A 
ATOM     16  C   UNL d   1     -38.362  12.993  17.339  0.00  0.00     0.000 A 
ATOM     17  C   UNL d   1     -39.167  12.941  17.482  0.00  0.00     0.000 A 
ATOM     18  C   UNL d   1     -37.940  12.324  17.034  0.00  0.00     0.000 C 
ATOM     19  C   UNL d   1     -39.573  13.595  17.779  0.00  0.00     0.002 A 
ENDBRANCH   1  13
TORSDOF 4
ENDMDL
