MODEL 1
REMARK VINA RESULT:      10.4      0.000      0.000
REMARK  2 active torsions:
REMARK  status: ('A' for Active; 'I' for Inactive)
REMARK    1  A    between atoms: N_7  and  C_3 
REMARK    2  A    between atoms: C_15  and  C_5 
ROOT
ATOM      1  N   UNL d   1     -42.346-121.783 -52.396  0.00  0.00    -0.196 N 
ATOM      2  C   UNL d   1     -42.121-122.321 -51.788  0.00  0.00     0.167 A 
ATOM      3  C   UNL d   1     -42.158-121.955 -53.186  0.00  0.00     0.153 A 
ATOM      4  N   UNL d   1     -42.933-120.926 -51.421  0.00  0.00    -0.163 NA
ATOM      5  C   UNL d   1     -42.304-122.154 -51.016  0.00  0.00     0.055 A 
ATOM      6  N   UNL d   1     -41.716-123.012 -51.991  0.00  0.00    -0.227 NA
ATOM      7  C   UNL d   1     -41.758-122.641 -53.371  0.00  0.00     0.052 A 
ATOM      8  C   UNL d   1     -42.712-121.455 -50.822  0.00  0.00     0.104 A 
ATOM      9  C   UNL d   1     -41.530-123.184 -52.769  0.00  0.00     0.086 A 
ATOM     10  C   UNL d   1     -41.502-122.954 -54.078  0.00  0.00     0.005 A 
ATOM     11  C   UNL d   1     -42.893-121.294 -50.038  0.00  0.00     0.023 C 
ATOM     12  C   UNL d   1     -41.140-123.817 -53.120  0.00  0.00     0.019 A 
ATOM     13  C   UNL d   1     -41.124-123.670 -53.941  0.00  0.00     0.002 A 
ENDROOT
BRANCH   3  14
ATOM     14  N   UNL d   1     -42.383-121.415 -53.803  0.00  0.00    -0.274 N 
ATOM     15  C   UNL d   1     -42.907-121.250 -54.442  0.00  0.00     0.149 A 
ATOM     16  N   UNL d   1     -42.689-120.501 -54.772  0.00  0.00    -0.225 NA
ATOM     17  C   UNL d   1     -43.530-121.741 -54.703  0.00  0.00     0.041 C 
ATOM     18  C   UNL d   1     -42.030-120.214 -54.327  0.00  0.00     0.120 A 
ATOM     19  C   UNL d   1     -41.842-120.767 -53.738  0.00  0.00     0.104 A 
ENDBRANCH   3  14
BRANCH   5  20
ATOM     20  C   UNL d   1     -42.084-122.680 -50.420  0.00  0.00     0.004 A 
ATOM     21  C   UNL d   1     -42.606-123.269 -50.173  0.00  0.00     0.000 A 
ATOM     22  C   UNL d   1     -42.391-123.795 -49.581  0.00  0.00     0.000 A 
ATOM     23  C   UNL d   1     -41.644-123.734 -49.229  0.00  0.00     0.000 A 
ATOM     24  C   UNL d   1     -41.123-123.155 -49.466  0.00  0.00     0.000 A 
ATOM     25  C   UNL d   1     -41.345-122.623 -50.068  0.00  0.00     0.000 A 
ENDBRANCH   5  20
TORSDOF 2
ENDMDL
MODEL 2
REMARK VINA RESULT:      11.2      1.614      3.052
REMARK  2 active torsions:
REMARK  status: ('A' for Active; 'I' for Inactive)
REMARK    1  A    between atoms: N_7  and  C_3 
REMARK    2  A    between atoms: C_15  and  C_5 
ROOT
ATOM      1  N   UNL d   1     -42.224-122.814 -50.379  0.00  0.00    -0.196 N 
ATOM      2  C   UNL d   1     -42.628-122.812 -49.640  0.00  0.00     0.167 A 
ATOM      3  C   UNL d   1     -42.585-122.474 -51.046  0.00  0.00     0.153 A 
ATOM      4  N   UNL d   1     -41.123-123.486 -49.775  0.00  0.00    -0.163 NA
ATOM      5  C   UNL d   1     -42.277-123.143 -48.989  0.00  0.00     0.055 A 
ATOM      6  N   UNL d   1     -43.379-122.470 -49.594  0.00  0.00    -0.227 NA
ATOM      7  C   UNL d   1     -43.327-122.141 -50.984  0.00  0.00     0.052 A 
ATOM      8  C   UNL d   1     -41.520-123.484 -49.047  0.00  0.00     0.104 A 
ATOM      9  C   UNL d   1     -43.737-122.136 -50.248  0.00  0.00     0.086 A 
ATOM     10  C   UNL d   1     -43.811-121.776 -51.526  0.00  0.00     0.005 A 
ATOM     11  C   UNL d   1     -41.172-123.817 -48.383  0.00  0.00     0.023 C 
ATOM     12  C   UNL d   1     -44.464-121.766 -50.356  0.00  0.00     0.019 A 
ATOM     13  C   UNL d   1     -44.508-121.542 -51.158  0.00  0.00     0.002 A 
ENDROOT
BRANCH   3  14
ATOM     14  N   UNL d   1     -42.181-122.475 -51.793  0.00  0.00    -0.274 N 
ATOM     15  C   UNL d   1     -42.007-122.894 -52.503  0.00  0.00     0.149 A 
ATOM     16  N   UNL d   1     -41.504-122.406 -52.979  0.00  0.00    -0.225 NA
ATOM     17  C   UNL d   1     -42.285-123.656 -52.701  0.00  0.00     0.041 C 
ATOM     18  C   UNL d   1     -41.374-121.689 -52.551  0.00  0.00     0.120 A 
ATOM     19  C   UNL d   1     -41.784-121.728 -51.830  0.00  0.00     0.104 A 
ENDBRANCH   3  14
BRANCH   5  20
ATOM     20  C   UNL d   1     -42.673-123.141 -48.265  0.00  0.00     0.004 A 
ATOM     21  C   UNL d   1     -42.525-122.546 -47.713  0.00  0.00     0.000 A 
ATOM     22  C   UNL d   1     -42.917-122.541 -46.993  0.00  0.00     0.000 A 
ATOM     23  C   UNL d   1     -43.464-123.137 -46.817  0.00  0.00     0.000 A 
ATOM     24  C   UNL d   1     -43.616-123.728 -47.357  0.00  0.00     0.000 A 
ATOM     25  C   UNL d   1     -43.216-123.730 -48.088  0.00  0.00     0.000 A 
ENDBRANCH   5  20
TORSDOF 2
ENDMDL
MODEL 3
REMARK VINA RESULT:      12.6      1.110      4.359
REMARK  2 active torsions:
REMARK  status: ('A' for Active; 'I' for Inactive)
REMARK    1  A    between atoms: N_7  and  C_3 
REMARK    2  A    between atoms: C_15  and  C_5 
ROOT
ATOM      1  N   UNL d   1     -42.191-122.919 -51.186  0.00  0.00    -0.196 N 
ATOM      2  C   UNL d   1     -42.353-122.513 -51.906  0.00  0.00     0.167 A 
ATOM      3  C   UNL d   1     -42.553-122.667 -50.482  0.00  0.00     0.153 A 
ATOM      4  N   UNL d   1     -41.320-123.807 -51.882  0.00  0.00    -0.163 NA
ATOM      5  C   UNL d   1     -42.000-122.758 -52.594  0.00  0.00     0.055 A 
ATOM      6  N   UNL d   1     -42.871-121.870 -51.897  0.00  0.00    -0.227 NA
ATOM      7  C   UNL d   1     -43.062-122.031 -50.490  0.00  0.00     0.052 A 
ATOM      8  C   UNL d   1     -41.480-123.407 -52.591  0.00  0.00     0.104 A 
ATOM      9  C   UNL d   1     -43.229-121.620 -51.206  0.00  0.00     0.086 A 
ATOM     10  C   UNL d   1     -43.490-121.663 -49.903  0.00  0.00     0.005 A 
ATOM     11  C   UNL d   1     -41.127-123.648 -53.292  0.00  0.00     0.023 C 
ATOM     12  C   UNL d   1     -43.756-121.010 -51.042  0.00  0.00     0.019 A 
ATOM     13  C   UNL d   1     -43.918-121.040 -50.224  0.00  0.00     0.002 A 
ENDROOT
BRANCH   3  14
ATOM     14  N   UNL d   1     -42.392-123.074 -49.754  0.00  0.00    -0.274 N 
ATOM     15  C   UNL d   1     -42.696-123.547 -49.126  0.00  0.00     0.149 A 
ATOM     16  N   UNL d   1     -42.061-123.705 -48.587  0.00  0.00    -0.225 NA
ATOM     17  C   UNL d   1     -43.484-123.812 -49.051  0.00  0.00     0.041 C 
ATOM     18  C   UNL d   1     -41.372-123.325 -48.894  0.00  0.00     0.120 A 
ATOM     19  C   UNL d   1     -41.570-122.940 -49.603  0.00  0.00     0.104 A 
ENDBRANCH   3  14
BRANCH   5  20
ATOM     20  C   UNL d   1     -42.159-122.361 -53.299  0.00  0.00     0.004 A 
ATOM     21  C   UNL d   1     -41.553-121.972 -53.702  0.00  0.00     0.000 A 
ATOM     22  C   UNL d   1     -41.707-121.576 -54.403  0.00  0.00     0.000 A 
ATOM     23  C   UNL d   1     -42.476-121.566 -54.710  0.00  0.00     0.000 A 
ATOM     24  C   UNL d   1     -43.080-121.947 -54.319  0.00  0.00     0.000 A 
ATOM     25  C   UNL d   1     -42.920-122.348 -53.606  0.00  0.00     0.000 A 
ENDBRANCH   5  20
TORSDOF 2
ENDMDL
