MODEL 1
REMARK VINA RESULT:      25.1      0.000      0.000
REMARK  3 active torsions:
REMARK  status: ('A' for Active; 'I' for Inactive)
REMARK    1  A    between atoms: C_4  and  C_1 
REMARK       I    between atoms: N_8  and  C_4 
REMARK    2  A    between atoms: C_15  and  C_11 
REMARK    3  A    between atoms: C_12  and  C_15 
ROOT
ATOM      1  C   UNL d   1      59.447  49.661  51.072  0.00  0.00     0.120 A 
ATOM      2  C   UNL d   1      59.301  49.663  50.256  0.00  0.00     0.305 A 
ATOM      3  O   UNL d   1      58.511  49.676  49.974  0.00  0.00    -0.273 OA
ATOM      4  C   UNL d   1      58.811  49.670  51.618  0.00  0.00     0.012 A 
ATOM      5  C   UNL d   1      57.885  49.686  50.505  0.00  0.00     0.103 A 
ATOM      6  C   UNL d   1      58.034  49.683  51.329  0.00  0.00     0.023 A 
ATOM      7  O   UNL d   1      59.927  49.654  49.721  0.00  0.00    -0.259 OA
ATOM      8  C   UNL d   1      57.098  49.698  50.235  0.00  0.00     0.023 A 
ATOM      9  C   UNL d   1      57.400  49.692  51.866  0.00  0.00     0.002 A 
ATOM     10  C   UNL d   1      56.622  49.705  51.581  0.00  0.00     0.000 A 
ATOM     11  C   UNL d   1      56.472  49.708  50.771  0.00  0.00     0.002 A 
ENDROOT
BRANCH   1  12
ATOM     12  C   UNL d   1      60.222  49.648  51.349  0.00  0.00     0.270 C 
ATOM     13  N   UNL d   1      60.376  49.625  52.158  0.00  0.00    -0.269 N 
ATOM     14  C   UNL d   1      61.152  49.613  52.435  0.00  0.00     0.102 C 
ATOM     15  C   UNL d   1      59.746  49.615  52.690  0.00  0.00     0.102 C 
ATOM     16  O   UNL d   1      60.852  49.658  50.817  0.00  0.00    -0.266 OA
ENDBRANCH   1  12
BRANCH   8  17
ATOM     17  C   UNL d   1      56.948  49.701  49.424  0.00  0.00     0.002 C 
BRANCH  17  18
ATOM     18  C   UNL d   1      56.263  49.351  49.129  0.00  0.00     0.000 C 
ATOM     19  C   UNL d   1      56.125  48.548  49.249  0.00  0.00     0.000 C 
ENDBRANCH  17  18
ENDBRANCH   8  17
TORSDOF 3
ENDMDL
MODEL 2
REMARK VINA RESULT:      26.1      1.445      3.908
REMARK  3 active torsions:
REMARK  status: ('A' for Active; 'I' for Inactive)
REMARK    1  A    between atoms: C_4  and  C_1 
REMARK       I    between atoms: N_8  and  C_4 
REMARK    2  A    between atoms: C_15  and  C_11 
REMARK    3  A    between atoms: C_12  and  C_15 
ROOT
ATOM      1  C   UNL d   1      58.047  49.654  50.678  0.00  0.00     0.120 A 
ATOM      2  C   UNL d   1      58.386  49.683  51.434  0.00  0.00     0.305 A 
ATOM      3  O   UNL d   1      59.221  49.691  51.517  0.00  0.00    -0.273 OA
ATOM      4  C   UNL d   1      58.533  49.634  49.995  0.00  0.00     0.012 A 
ATOM      5  C   UNL d   1      59.700  49.671  50.851  0.00  0.00     0.103 A 
ATOM      6  C   UNL d   1      59.357  49.642  50.087  0.00  0.00     0.023 A 
ATOM      7  O   UNL d   1      57.908  49.703  52.105  0.00  0.00    -0.259 OA
ATOM      8  C   UNL d   1      60.529  49.679  50.922  0.00  0.00     0.023 A 
ATOM      9  C   UNL d   1      59.842  49.622  49.414  0.00  0.00     0.002 A 
ATOM     10  C   UNL d   1      60.666  49.631  49.502  0.00  0.00     0.000 A 
ATOM     11  C   UNL d   1      61.007  49.659  50.251  0.00  0.00     0.002 A 
ENDROOT
BRANCH   1  12
ATOM     12  C   UNL d   1      57.228  49.646  50.597  0.00  0.00     0.270 C 
ATOM     13  N   UNL d   1      56.883  49.601  49.851  0.00  0.00    -0.269 N 
ATOM     14  C   UNL d   1      56.063  49.593  49.769  0.00  0.00     0.102 C 
ATOM     15  C   UNL d   1      57.365  49.563  49.183  0.00  0.00     0.102 C 
ATOM     16  O   UNL d   1      56.746  49.684  51.265  0.00  0.00    -0.266 OA
ENDBRANCH   1  12
BRANCH   8  17
ATOM     17  C   UNL d   1      60.870  49.707  51.673  0.00  0.00     0.002 C 
BRANCH  17  18
ATOM     18  C   UNL d   1      61.599  49.348  51.808  0.00  0.00     0.000 C 
ATOM     19  C   UNL d   1      62.127  49.677  52.348  0.00  0.00     0.000 C 
ENDBRANCH  17  18
ENDBRANCH   8  17
TORSDOF 3
ENDMDL
