MODEL 1
REMARK VINA RESULT:      -8.8      0.000      0.000
REMARK  3 active torsions:
REMARK  status: ('A' for Active; 'I' for Inactive)
REMARK    1  A    between atoms: C_13  and  N_6 
REMARK    2  A    between atoms: C_16  and  C_10 
REMARK    3  A    between atoms: O_19  and  C_17 
ROOT
ATOM      1  C   UNL d   1     -48.100  12.787  23.133  0.00  0.00     0.722 A 
ATOM      2  C   UNL d   1     -46.981  12.082  23.233  0.00  0.00     0.191 A 
ATOM      3  N   UNL d   1     -47.788  12.020  23.181  0.00  0.00    -0.042 NA
ATOM      4  N   UNL d   1     -47.478  13.302  23.156  0.00  0.00    -0.131 N 
ATOM      5  C   UNL d   1     -46.788  12.880  23.218  0.00  0.00     0.174 A 
ATOM      6  N   UNL d   1     -48.803  13.212  23.070  0.00  0.00    -0.138 N 
ATOM      7  N   UNL d   1     -46.391  11.517  23.293  0.00  0.00    -0.239 N 
ATOM      8  C   UNL d   1     -45.594  11.747  23.338  0.00  0.00     0.358 A 
ATOM      9  N   UNL d   1     -45.400  12.545  23.323  0.00  0.00    -0.152 NA
ATOM     10  C   UNL d   1     -48.627  13.989  23.054  0.00  0.00     0.100 A 
ATOM     11  C   UNL d   1     -46.001  13.125  23.262  0.00  0.00     0.303 A 
ATOM     12  C   UNL d   1     -47.802  14.071  23.107  0.00  0.00     0.116 A 
ATOM     13  O   UNL d   1     -45.002  11.182  23.398  0.00  0.00    -0.244 OA
ATOM     14  O   UNL d   1     -45.810  13.912  23.246  0.00  0.00    -0.263 OA
ATOM     15  C   UNL d   1     -46.581  10.731  23.308  0.00  0.00     0.105 C 
ENDROOT
BRANCH   6  16
ATOM     16  C   UNL d   1     -49.560  12.882  23.031  0.00  0.00     0.103 A 
ATOM     17  C   UNL d   1     -49.839  12.568  22.318  0.00  0.00     0.111 A 
ATOM     18  C   UNL d   1     -50.580  12.246  22.282  0.00  0.00     0.026 A 
ATOM     19  C   UNL d   1     -51.064  12.225  22.945  0.00  0.00     0.002 A 
ATOM     20  C   UNL d   1     -50.783  12.540  23.658  0.00  0.00     0.002 A 
ATOM     21  C   UNL d   1     -50.027  12.870  23.698  0.00  0.00     0.020 A 
BRANCH  17  22
ATOM     22  O   UNL d   1     -49.613  12.448  21.541  0.00  0.00    -0.327 OA
ATOM     23  C   UNL d   1     -50.160  12.201  20.975  0.00  0.00     0.181 C 
ENDBRANCH  17  22
ENDBRANCH   6  16
BRANCH  10  24
ATOM     24  C   UNL d   1     -49.165  14.618  22.995  0.00  0.00     0.018 A 
ATOM     25  C   UNL d   1     -49.338  14.955  22.262  0.00  0.00     0.002 A 
ATOM     26  C   UNL d   1     -49.865  15.570  22.207  0.00  0.00     0.000 A 
ATOM     27  C   UNL d   1     -50.237  15.868  22.886  0.00  0.00     0.000 A 
ATOM     28  C   UNL d   1     -50.064  15.531  23.620  0.00  0.00     0.000 A 
ATOM     29  C   UNL d   1     -49.525  14.903  23.678  0.00  0.00     0.002 A 
ENDBRANCH  10  24
TORSDOF 3
ENDMDL
MODEL 2
REMARK VINA RESULT:      -6.4      1.135      2.520
REMARK  3 active torsions:
REMARK  status: ('A' for Active; 'I' for Inactive)
REMARK    1  A    between atoms: C_13  and  N_6 
REMARK    2  A    between atoms: C_16  and  C_10 
REMARK    3  A    between atoms: O_19  and  C_17 
ROOT
ATOM      1  C   UNL d   1     -47.474  12.982  22.464  0.00  0.00     0.722 A 
ATOM      2  C   UNL d   1     -46.156  12.846  22.501  0.00  0.00     0.191 A 
ATOM      3  N   UNL d   1     -46.755  13.325  22.238  0.00  0.00    -0.042 NA
ATOM      4  N   UNL d   1     -47.301  12.300  22.862  0.00  0.00    -0.131 N 
ATOM      5  C   UNL d   1     -46.496  12.208  22.889  0.00  0.00     0.174 A 
ATOM      6  N   UNL d   1     -48.292  13.079  22.434  0.00  0.00    -0.138 N 
ATOM      7  N   UNL d   1     -45.340  12.904  22.440  0.00  0.00    -0.239 N 
ATOM      8  C   UNL d   1     -44.854  12.317  22.771  0.00  0.00     0.358 A 
ATOM      9  N   UNL d   1     -45.194  11.679  23.159  0.00  0.00    -0.152 NA
ATOM     10  C   UNL d   1     -48.633  12.463  22.809  0.00  0.00     0.100 A 
ATOM     11  C   UNL d   1     -46.026  11.617  23.223  0.00  0.00     0.303 A 
ATOM     12  C   UNL d   1     -48.032  11.961  23.085  0.00  0.00     0.116 A 
ATOM     13  O   UNL d   1     -44.038  12.374  22.710  0.00  0.00    -0.244 OA
ATOM     14  O   UNL d   1     -46.361  10.987  23.606  0.00  0.00    -0.263 OA
ATOM     15  C   UNL d   1     -45.005  13.533  22.058  0.00  0.00     0.105 C 
ENDROOT
BRANCH   6  16
ATOM     16  C   UNL d   1     -48.686  13.710  22.074  0.00  0.00     0.103 A 
ATOM     17  C   UNL d   1     -48.720  14.447  22.450  0.00  0.00     0.111 A 
ATOM     18  C   UNL d   1     -49.107  15.063  22.096  0.00  0.00     0.026 A 
ATOM     19  C   UNL d   1     -49.468  14.970  21.365  0.00  0.00     0.002 A 
ATOM     20  C   UNL d   1     -49.433  14.232  20.989  0.00  0.00     0.002 A 
ATOM     21  C   UNL d   1     -49.039  13.601  21.348  0.00  0.00     0.020 A 
BRANCH  17  22
ATOM     22  O   UNL d   1     -48.477  14.827  23.133  0.00  0.00    -0.327 OA
ATOM     23  C   UNL d   1     -48.751  15.583  23.315  0.00  0.00     0.181 C 
ENDBRANCH  17  22
ENDBRANCH   6  16
BRANCH  10  24
ATOM     24  C   UNL d   1     -49.446  12.335  22.911  0.00  0.00     0.018 A 
ATOM     25  C   UNL d   1     -49.883  11.935  22.337  0.00  0.00     0.002 A 
ATOM     26  C   UNL d   1     -50.679  11.811  22.439  0.00  0.00     0.000 A 
ATOM     27  C   UNL d   1     -51.064  12.083  23.122  0.00  0.00     0.000 A 
ATOM     28  C   UNL d   1     -50.626  12.483  23.696  0.00  0.00     0.000 A 
ATOM     29  C   UNL d   1     -49.813  12.611  23.594  0.00  0.00     0.002 A 
ENDBRANCH  10  24
TORSDOF 3
ENDMDL
MODEL 3
REMARK VINA RESULT:      -6.4      1.068      1.456
REMARK  3 active torsions:
REMARK  status: ('A' for Active; 'I' for Inactive)
REMARK    1  A    between atoms: C_13  and  N_6 
REMARK    2  A    between atoms: C_16  and  C_10 
REMARK    3  A    between atoms: O_19  and  C_17 
ROOT
ATOM      1  C   UNL d   1     -47.720  13.387  22.432  0.00  0.00     0.722 A 
ATOM      2  C   UNL d   1     -46.443  13.031  22.411  0.00  0.00     0.191 A 
ATOM      3  N   UNL d   1     -47.195  12.774  22.247  0.00  0.00    -0.042 NA
ATOM      4  N   UNL d   1     -47.279  14.008  22.706  0.00  0.00    -0.131 N 
ATOM      5  C   UNL d   1     -46.495  13.799  22.697  0.00  0.00     0.174 A 
ATOM      6  N   UNL d   1     -48.517  13.596  22.441  0.00  0.00    -0.138 N 
ATOM      7  N   UNL d   1     -45.711  12.669  22.338  0.00  0.00    -0.239 N 
ATOM      8  C   UNL d   1     -45.020  13.075  22.554  0.00  0.00     0.358 A 
ATOM      9  N   UNL d   1     -45.072  13.843  22.840  0.00  0.00    -0.152 NA
ATOM     10  C   UNL d   1     -48.580  14.341  22.717  0.00  0.00     0.100 A 
ATOM     11  C   UNL d   1     -45.818  14.216  22.915  0.00  0.00     0.303 A 
ATOM     12  C   UNL d   1     -47.818  14.620  22.891  0.00  0.00     0.116 A 
ATOM     13  O   UNL d   1     -44.287  12.713  22.482  0.00  0.00    -0.244 OA
ATOM     14  O   UNL d   1     -45.870  14.974  23.197  0.00  0.00    -0.263 OA
ATOM     15  C   UNL d   1     -45.659  11.912  22.056  0.00  0.00     0.105 C 
ENDROOT
BRANCH   6  16
ATOM     16  C   UNL d   1     -49.141  13.110  22.201  0.00  0.00     0.103 A 
ATOM     17  C   UNL d   1     -49.450  12.545  22.721  0.00  0.00     0.111 A 
ATOM     18  C   UNL d   1     -50.061  12.070  22.484  0.00  0.00     0.026 A 
ATOM     19  C   UNL d   1     -50.382  12.140  21.732  0.00  0.00     0.002 A 
ATOM     20  C   UNL d   1     -50.072  12.706  21.213  0.00  0.00     0.002 A 
ATOM     21  C   UNL d   1     -49.448  13.192  21.451  0.00  0.00     0.020 A 
BRANCH  17  22
ATOM     22  O   UNL d   1     -49.353  12.254  23.480  0.00  0.00    -0.327 OA
ATOM     23  C   UNL d   1     -49.570  11.481  23.667  0.00  0.00     0.181 C 
ENDBRANCH  17  22
ENDBRANCH   6  16
BRANCH  10  24
ATOM     24  C   UNL d   1     -49.280  14.774  22.819  0.00  0.00     0.018 A 
ATOM     25  C   UNL d   1     -49.616  14.858  23.568  0.00  0.00     0.002 A 
ATOM     26  C   UNL d   1     -50.302  15.282  23.665  0.00  0.00     0.000 A 
ATOM     27  C   UNL d   1     -50.675  15.636  23.013  0.00  0.00     0.000 A 
ATOM     28  C   UNL d   1     -50.338  15.552  22.264  0.00  0.00     0.000 A 
ATOM     29  C   UNL d   1     -49.638  15.119  22.163  0.00  0.00     0.002 A 
ENDBRANCH  10  24
TORSDOF 3
ENDMDL
