MODEL 1
REMARK VINA RESULT:      -3.2      0.000      0.000
REMARK  10 active torsions:
REMARK  status: ('A' for Active; 'I' for Inactive)
REMARK    1  A    between atoms: C_3  and  C_1 
REMARK    2  A    between atoms: C_4  and  C_1 
REMARK    3  A    between atoms: N_2  and  C_8 
REMARK    4  A    between atoms: O_19  and  C_3 
REMARK    5  A    between atoms: C_14  and  C_4 
REMARK    6  A    between atoms: C_20  and  N_7 
REMARK    7  A    between atoms: C_9  and  C_20 
REMARK    8  A    between atoms: C_13  and  C_9 
REMARK    9  A    between atoms: C_23  and  C_13 
REMARK   10  A    between atoms: C_24  and  O_19 
ROOT
ATOM      1  C   UNL d   1      32.861  18.166 -23.542  0.00  0.00     0.132 C 
ATOM      2  C   UNL d   1      33.045  18.669 -24.172  0.00  0.00     0.106 C 
ATOM      3  N   UNL d   1      33.227  19.171 -24.804  0.00  0.00    -0.191 NA
ENDROOT
BRANCH   1   4
ATOM      4  C   UNL d   1      32.313  17.568 -23.630  0.00  0.00     0.310 C 
ATOM      5  O   UNL d   1      32.443  16.832 -23.319  0.00  0.00    -0.258 OA
BRANCH   4   6
ATOM      6  O   UNL d   1      31.619  17.717 -24.040  0.00  0.00    -0.271 OA
BRANCH   6   7
ATOM      7  C   UNL d   1      31.067  17.111 -24.143  0.00  0.00     0.126 C 
ATOM      8  C   UNL d   1      30.638  17.073 -24.855  0.00  0.00     0.029 C 
ENDBRANCH   6   7
ENDBRANCH   4   6
ENDBRANCH   1   4
BRANCH   1   9
ATOM      9  C   UNL d   1      33.233  18.267 -22.819  0.00  0.00     0.016 C 
BRANCH   9  10
ATOM     10  C   UNL d   1      33.184  19.018 -22.434  0.00  0.00     0.001 A 
ATOM     11  C   UNL d   1      33.120  19.733 -22.876  0.00  0.00     0.002 A 
ATOM     12  C   UNL d   1      33.074  20.444 -22.486  0.00  0.00     0.018 A 
ATOM     13  C   UNL d   1      33.088  20.490 -21.671  0.00  0.00     0.064 A 
ATOM     14  C   UNL d   1      33.149  19.803 -21.237  0.00  0.00     0.018 A 
ATOM     15  C   UNL d   1      33.197  19.067 -21.618  0.00  0.00     0.002 A 
BRANCH  13  16
ATOM     16  N   UNL d   1      33.039  21.226 -21.290  0.00  0.00    -0.301 N 
ATOM     17  C   UNL d   1      33.024  21.920 -21.723  0.00  0.00     0.100 A 
ATOM     18  C   UNL d   1      32.976  22.656 -21.342  0.00  0.00     0.100 A 
ATOM     19  N   UNL d   1      32.943  22.699 -20.528  0.00  0.00    -0.300 N 
ATOM     20  C   UNL d   1      32.958  21.986 -20.068  0.00  0.00     0.100 A 
ATOM     21  C   UNL d   1      33.006  21.262 -20.462  0.00  0.00     0.100 A 
BRANCH  19  22
ATOM     22  C   UNL d   1      32.895  23.435 -20.147  0.00  0.00     0.080 C 
BRANCH  22  23
ATOM     23  C   UNL d   1      32.901  23.479 -19.313  0.00  0.00     0.019 C 
BRANCH  23  24
ATOM     24  C   UNL d   1      32.346  23.644 -18.813  0.00  0.00     0.002 C 
BRANCH  24  25
ATOM     25  C   UNL d   1      32.454  23.475 -18.023  0.00  0.00     0.000 A 
ATOM     26  C   UNL d   1      31.871  23.078 -17.623  0.00  0.00     0.000 A 
ATOM     27  C   UNL d   1      31.966  22.899 -16.823  0.00  0.00     0.000 A 
ATOM     28  C   UNL d   1      32.647  23.121 -16.430  0.00  0.00     0.000 A 
ATOM     29  C   UNL d   1      33.241  23.527 -16.847  0.00  0.00     0.000 A 
ATOM     30  C   UNL d   1      33.139  23.702 -17.648  0.00  0.00     0.000 A 
ENDBRANCH  24  25
ENDBRANCH  23  24
ENDBRANCH  22  23
ENDBRANCH  19  22
ENDBRANCH  13  16
ENDBRANCH   9  10
ENDBRANCH   1   9
TORSDOF 10
ENDMDL
