MODEL 1
REMARK VINA RESULT:      -7.6      0.000      0.000
REMARK  5 active torsions:
REMARK  status: ('A' for Active; 'I' for Inactive)
REMARK    1  A    between atoms: C_8  and  C_1 
REMARK    2  A    between atoms: C_11  and  C_3 
REMARK    3  A    between atoms: C_7  and  C_4 
REMARK    4  A    between atoms: O_16  and  C_8 
REMARK    5  A    between atoms: C_19  and  O_16 
ROOT
ATOM      1  C   UNL d   1     -47.206  13.771  22.899  0.00  0.00     0.102 A 
ATOM      2  C   UNL d   1     -47.211  14.599  22.866  0.00  0.00     0.201 A 
ATOM      3  C   UNL d   1     -47.910  13.345  22.953  0.00  0.00     0.008 A 
ATOM      4  C   UNL d   1     -48.643  14.557  22.943  0.00  0.00     0.009 A 
ATOM      5  C   UNL d   1     -47.938  14.983  22.889  0.00  0.00     0.043 A 
ATOM      6  C   UNL d   1     -48.627  13.744  22.975  0.00  0.00     0.001 A 
ATOM      7  O   UNL d   1     -46.513  15.021  22.813  0.00  0.00    -0.286 OA
ENDROOT
BRANCH   3   8
ATOM      8  C   UNL d   1     -47.890  12.525  22.985  0.00  0.00     0.000 A 
ATOM      9  C   UNL d   1     -48.111  12.094  22.316  0.00  0.00     0.000 A 
ATOM     10  C   UNL d   1     -48.088  11.269  22.355  0.00  0.00     0.000 A 
ATOM     11  C   UNL d   1     -47.857  10.884  23.024  0.00  0.00     0.000 A 
ATOM     12  C   UNL d   1     -47.635  11.332  23.696  0.00  0.00     0.000 A 
ATOM     13  C   UNL d   1     -47.654  12.154  23.669  0.00  0.00     0.000 A 
ENDBRANCH   3   8
BRANCH   1  14
ATOM     14  C   UNL d   1     -46.480  13.367  22.877  0.00  0.00     0.303 C 
ATOM     15  O   UNL d   1     -46.151  13.070  23.573  0.00  0.00    -0.259 OA
BRANCH  14  16
ATOM     16  O   UNL d   1     -46.083  13.261  22.159  0.00  0.00    -0.271 OA
BRANCH  16  17
ATOM     17  C   UNL d   1     -45.262  13.215  22.146  0.00  0.00     0.126 C 
ATOM     18  C   UNL d   1     -44.879  12.901  21.487  0.00  0.00     0.029 C 
ENDBRANCH  16  17
ENDBRANCH  14  16
ENDBRANCH   1  14
BRANCH   4  19
ATOM     19  C   UNL d   1     -49.365  14.963  22.964  0.00  0.00     0.030 A 
ATOM     20  S   UNL d   1     -49.814  15.196  22.319  0.00  0.00    -0.086 SA
ATOM     21  C   UNL d   1     -50.470  15.574  22.595  0.00  0.00     0.035 A 
ATOM     22  C   UNL d   1     -50.448  15.587  23.423  0.00  0.00     0.007 A 
ATOM     23  C   UNL d   1     -49.756  15.205  23.659  0.00  0.00     0.007 A 
ENDBRANCH   4  19
TORSDOF 5
ENDMDL
MODEL 2
REMARK VINA RESULT:      -6.7      2.006      4.097
REMARK  5 active torsions:
REMARK  status: ('A' for Active; 'I' for Inactive)
REMARK    1  A    between atoms: C_8  and  C_1 
REMARK    2  A    between atoms: C_11  and  C_3 
REMARK    3  A    between atoms: C_7  and  C_4 
REMARK    4  A    between atoms: O_16  and  C_8 
REMARK    5  A    between atoms: C_19  and  O_16 
ROOT
ATOM      1  C   UNL d   1     -48.785  12.802  22.502  0.00  0.00     0.102 A 
ATOM      2  C   UNL d   1     -48.338  12.114  22.380  0.00  0.00     0.201 A 
ATOM      3  C   UNL d   1     -48.417  13.530  22.623  0.00  0.00     0.008 A 
ATOM      4  C   UNL d   1     -47.150  12.909  22.503  0.00  0.00     0.009 A 
ATOM      5  C   UNL d   1     -47.518  12.181  22.383  0.00  0.00     0.043 A 
ATOM      6  C   UNL d   1     -47.598  13.578  22.622  0.00  0.00     0.001 A 
ATOM      7  O   UNL d   1     -48.702  11.393  22.261  0.00  0.00    -0.286 OA
ENDROOT
BRANCH   3   8
ATOM      8  C   UNL d   1     -48.873  14.203  22.742  0.00  0.00     0.000 A 
ATOM      9  C   UNL d   1     -49.029  14.446  23.515  0.00  0.00     0.000 A 
ATOM     10  C   UNL d   1     -49.489  15.123  23.628  0.00  0.00     0.000 A 
ATOM     11  C   UNL d   1     -49.782  15.544  23.007  0.00  0.00     0.000 A 
ATOM     12  C   UNL d   1     -49.616  15.287  22.227  0.00  0.00     0.000 A 
ATOM     13  C   UNL d   1     -49.160  14.614  22.102  0.00  0.00     0.000 A 
ENDBRANCH   3   8
BRANCH   1  14
ATOM     14  C   UNL d   1     -49.615  12.753  22.503  0.00  0.00     0.303 C 
ATOM     15  O   UNL d   1     -50.043  12.982  21.836  0.00  0.00    -0.259 OA
BRANCH  14  16
ATOM     16  O   UNL d   1     -50.016  12.475  23.171  0.00  0.00    -0.271 OA
BRANCH  16  17
ATOM     17  C   UNL d   1     -50.761  12.134  23.091  0.00  0.00     0.126 C 
ATOM     18  C   UNL d   1     -51.064  11.667  23.698  0.00  0.00     0.029 C 
ENDBRANCH  16  17
ENDBRANCH  14  16
ENDBRANCH   1  14
BRANCH   4  19
ATOM     19  C   UNL d   1     -46.323  12.953  22.502  0.00  0.00     0.030 A 
ATOM     20  S   UNL d   1     -45.809  12.519  22.972  0.00  0.00    -0.086 SA
ATOM     21  C   UNL d   1     -45.057  12.739  22.787  0.00  0.00     0.035 A 
ATOM     22  C   UNL d   1     -45.080  13.318  22.196  0.00  0.00     0.007 A 
ATOM     23  C   UNL d   1     -45.873  13.456  22.014  0.00  0.00     0.007 A 
ENDBRANCH   4  19
TORSDOF 5
ENDMDL
MODEL 3
REMARK VINA RESULT:      -6.4      8.385      9.697
REMARK  5 active torsions:
REMARK  status: ('A' for Active; 'I' for Inactive)
REMARK    1  A    between atoms: C_8  and  C_1 
REMARK    2  A    between atoms: C_11  and  C_3 
REMARK    3  A    between atoms: C_7  and  C_4 
REMARK    4  A    between atoms: O_16  and  C_8 
REMARK    5  A    between atoms: C_19  and  O_16 
ROOT
ATOM      1  C   UNL d   1     -40.115  14.445  18.872  0.00  0.00     0.102 A 
ATOM      2  C   UNL d   1     -40.536  14.712  19.535  0.00  0.00     0.201 A 
ATOM      3  C   UNL d   1     -39.340  14.172  18.947  0.00  0.00     0.008 A 
ATOM      4  C   UNL d   1     -39.384  14.424  20.339  0.00  0.00     0.009 A 
ATOM      5  C   UNL d   1     -40.159  14.697  20.265  0.00  0.00     0.043 A 
ATOM      6  C   UNL d   1     -38.979  14.164  19.683  0.00  0.00     0.001 A 
ATOM      7  O   UNL d   1     -41.304  14.982  19.461  0.00  0.00    -0.286 OA
ENDROOT
BRANCH   3   8
ATOM      8  C   UNL d   1     -38.934  13.910  18.282  0.00  0.00     0.000 A 
ATOM      9  C   UNL d   1     -38.428  14.432  17.892  0.00  0.00     0.000 A 
ATOM     10  C   UNL d   1     -38.023  14.162  17.224  0.00  0.00     0.000 A 
ATOM     11  C   UNL d   1     -38.112  13.410  16.951  0.00  0.00     0.000 A 
ATOM     12  C   UNL d   1     -38.629  12.889  17.356  0.00  0.00     0.000 A 
ATOM     13  C   UNL d   1     -39.038  13.147  18.022  0.00  0.00     0.000 A 
ENDBRANCH   3   8
BRANCH   1  14
ATOM     14  C   UNL d   1     -40.480  14.453  18.126  0.00  0.00     0.303 C 
ATOM     15  O   UNL d   1     -40.799  13.759  17.814  0.00  0.00    -0.259 OA
BRANCH  14  16
ATOM     16  O   UNL d   1     -40.527  15.156  17.692  0.00  0.00    -0.271 OA
BRANCH  16  17
ATOM     17  C   UNL d   1     -41.142  15.268  17.157  0.00  0.00     0.126 C 
ATOM     18  C   UNL d   1     -41.133  15.922  16.655  0.00  0.00     0.029 C 
ENDBRANCH  16  17
ENDBRANCH  14  16
ENDBRANCH   1  14
BRANCH   4  19
ATOM     19  C   UNL d   1     -39.023  14.418  21.085  0.00  0.00     0.030 A 
ATOM     20  S   UNL d   1     -38.633  15.044  21.445  0.00  0.00    -0.086 SA
ATOM     21  C   UNL d   1     -38.370  14.792  22.163  0.00  0.00     0.035 A 
ATOM     22  C   UNL d   1     -38.588  14.001  22.272  0.00  0.00     0.007 A 
ATOM     23  C   UNL d   1     -38.999  13.762  21.597  0.00  0.00     0.007 A 
ENDBRANCH   4  19
TORSDOF 5
ENDMDL
MODEL 4
REMARK VINA RESULT:      -5.8      1.272      2.340
REMARK  5 active torsions:
REMARK  status: ('A' for Active; 'I' for Inactive)
REMARK    1  A    between atoms: C_8  and  C_1 
REMARK    2  A    between atoms: C_11  and  C_3 
REMARK    3  A    between atoms: C_7  and  C_4 
REMARK    4  A    between atoms: O_16  and  C_8 
REMARK    5  A    between atoms: C_19  and  O_16 
ROOT
ATOM      1  C   UNL d   1     -48.372  12.560  23.037  0.00  0.00     0.102 A 
ATOM      2  C   UNL d   1     -49.151  12.404  23.272  0.00  0.00     0.201 A 
ATOM      3  C   UNL d   1     -48.117  13.334  22.905  0.00  0.00     0.008 A 
ATOM      4  C   UNL d   1     -49.406  13.815  23.240  0.00  0.00     0.009 A 
ATOM      5  C   UNL d   1     -49.661  13.042  23.371  0.00  0.00     0.043 A 
ATOM      6  C   UNL d   1     -48.639  13.958  23.008  0.00  0.00     0.001 A 
ATOM      7  O   UNL d   1     -49.404  11.638  23.403  0.00  0.00    -0.286 OA
ENDROOT
BRANCH   3   8
ATOM      8  C   UNL d   1     -47.342  13.474  22.672  0.00  0.00     0.000 A 
ATOM      9  C   UNL d   1     -47.145  13.394  21.875  0.00  0.00     0.000 A 
ATOM     10  C   UNL d   1     -46.363  13.536  21.647  0.00  0.00     0.000 A 
ATOM     11  C   UNL d   1     -45.799  13.749  22.181  0.00  0.00     0.000 A 
ATOM     12  C   UNL d   1     -46.012  13.827  22.988  0.00  0.00     0.000 A 
ATOM     13  C   UNL d   1     -46.787  13.687  23.226  0.00  0.00     0.000 A 
ENDBRANCH   3   8
BRANCH   1  14
ATOM     14  C   UNL d   1     -47.843  11.928  22.932  0.00  0.00     0.303 C 
ATOM     15  O   UNL d   1     -47.720  11.612  22.180  0.00  0.00    -0.259 OA
BRANCH  14  16
ATOM     16  O   UNL d   1     -47.438  11.612  23.581  0.00  0.00    -0.271 OA
BRANCH  16  17
ATOM     17  C   UNL d   1     -47.296  10.802  23.622  0.00  0.00     0.126 C 
ATOM     18  C   UNL d   1     -46.524  10.524  23.698  0.00  0.00     0.029 C 
ENDBRANCH  16  17
ENDBRANCH  14  16
ENDBRANCH   1  14
BRANCH   4  19
ATOM     19  C   UNL d   1     -49.936  14.443  23.345  0.00  0.00     0.030 A 
ATOM     20  S   UNL d   1     -50.752  14.387  23.413  0.00  0.00    -0.086 SA
ATOM     21  C   UNL d   1     -51.045  15.132  23.508  0.00  0.00     0.035 A 
ATOM     22  C   UNL d   1     -50.419  15.674  23.501  0.00  0.00     0.007 A 
ATOM     23  C   UNL d   1     -49.721  15.245  23.399  0.00  0.00     0.007 A 
ENDBRANCH   4  19
TORSDOF 5
ENDMDL
MODEL 5
REMARK VINA RESULT:      -5.7      7.158     10.104
REMARK  5 active torsions:
REMARK  status: ('A' for Active; 'I' for Inactive)
REMARK    1  A    between atoms: C_8  and  C_1 
REMARK    2  A    between atoms: C_11  and  C_3 
REMARK    3  A    between atoms: C_7  and  C_4 
REMARK    4  A    between atoms: O_16  and  C_8 
REMARK    5  A    between atoms: C_19  and  O_16 
ROOT
ATOM      1  C   UNL d   1     -39.984  14.572  18.983  0.00  0.00     0.102 A 
ATOM      2  C   UNL d   1     -40.374  14.311  18.300  0.00  0.00     0.201 A 
ATOM      3  C   UNL d   1     -39.160  14.605  19.012  0.00  0.00     0.008 A 
ATOM      4  C   UNL d   1     -39.093  14.119  17.685  0.00  0.00     0.009 A 
ATOM      5  C   UNL d   1     -39.916  14.085  17.655  0.00  0.00     0.043 A 
ATOM      6  C   UNL d   1     -38.719  14.377  18.359  0.00  0.00     0.001 A 
ATOM      7  O   UNL d   1     -41.190  14.278  18.270  0.00  0.00    -0.286 OA
ENDROOT
BRANCH   3   8
ATOM      8  C   UNL d   1     -38.787  14.867  19.696  0.00  0.00     0.000 A 
ATOM      9  C   UNL d   1     -38.503  14.309  20.233  0.00  0.00     0.000 A 
ATOM     10  C   UNL d   1     -38.128  14.579  20.918  0.00  0.00     0.000 A 
ATOM     11  C   UNL d   1     -38.037  15.365  21.069  0.00  0.00     0.000 A 
ATOM     12  C   UNL d   1     -38.329  15.922  20.515  0.00  0.00     0.000 A 
ATOM     13  C   UNL d   1     -38.704  15.664  19.829  0.00  0.00     0.000 A 
ENDBRANCH   3   8
BRANCH   1  14
ATOM     14  C   UNL d   1     -40.431  14.804  19.644  0.00  0.00     0.303 C 
ATOM     15  O   UNL d   1     -40.579  15.603  19.784  0.00  0.00    -0.259 OA
BRANCH  14  16
ATOM     16  O   UNL d   1     -40.729  14.235  20.165  0.00  0.00    -0.271 OA
BRANCH  16  17
ATOM     17  C   UNL d   1     -41.383  14.409  20.634  0.00  0.00     0.126 C 
ATOM     18  C   UNL d   1     -41.674  13.844  21.157  0.00  0.00     0.029 C 
ENDBRANCH  16  17
ENDBRANCH  14  16
ENDBRANCH   1  14
BRANCH   4  19
ATOM     19  C   UNL d   1     -38.651  13.887  17.023  0.00  0.00     0.030 A 
ATOM     20  S   UNL d   1     -38.450  14.356  16.381  0.00  0.00    -0.086 SA
ATOM     21  C   UNL d   1     -38.020  13.907  15.869  0.00  0.00     0.035 A 
ATOM     22  C   UNL d   1     -37.940  13.143  16.179  0.00  0.00     0.007 A 
ATOM     23  C   UNL d   1     -38.334  13.126  16.903  0.00  0.00     0.007 A 
ENDBRANCH   4  19
TORSDOF 5
ENDMDL
MODEL 6
REMARK VINA RESULT:      -5.6      9.022      9.943
REMARK  5 active torsions:
REMARK  status: ('A' for Active; 'I' for Inactive)
REMARK    1  A    between atoms: C_8  and  C_1 
REMARK    2  A    between atoms: C_11  and  C_3 
REMARK    3  A    between atoms: C_7  and  C_4 
REMARK    4  A    between atoms: O_16  and  C_8 
REMARK    5  A    between atoms: C_19  and  O_16 
ROOT
ATOM      1  C   UNL d   1     -39.045  14.096  18.476  0.00  0.00     0.102 A 
ATOM      2  C   UNL d   1     -38.515  13.829  19.056  0.00  0.00     0.201 A 
ATOM      3  C   UNL d   1     -39.548  14.732  18.624  0.00  0.00     0.008 A 
ATOM      4  C   UNL d   1     -39.011  14.854  19.929  0.00  0.00     0.009 A 
ATOM      5  C   UNL d   1     -38.507  14.217  19.780  0.00  0.00     0.043 A 
ATOM      6  C   UNL d   1     -39.527  15.108  19.354  0.00  0.00     0.001 A 
ATOM      7  O   UNL d   1     -38.017  13.198  18.909  0.00  0.00    -0.286 OA
ENDROOT
BRANCH   3   8
ATOM      8  C   UNL d   1     -40.068  14.986  18.041  0.00  0.00     0.000 A 
ATOM      9  C   UNL d   1     -39.888  15.672  17.619  0.00  0.00     0.000 A 
ATOM     10  C   UNL d   1     -40.416  15.921  17.033  0.00  0.00     0.000 A 
ATOM     11  C   UNL d   1     -41.091  15.514  16.870  0.00  0.00     0.000 A 
ATOM     12  C   UNL d   1     -41.261  14.819  17.306  0.00  0.00     0.000 A 
ATOM     13  C   UNL d   1     -40.744  14.561  17.891  0.00  0.00     0.000 A 
ENDBRANCH   3   8
BRANCH   1  14
ATOM     14  C   UNL d   1     -39.066  13.715  17.738  0.00  0.00     0.303 C 
ATOM     15  O   UNL d   1     -39.641  13.144  17.584  0.00  0.00    -0.259 OA
BRANCH  14  16
ATOM     16  O   UNL d   1     -38.513  13.907  17.153  0.00  0.00    -0.271 OA
BRANCH  16  17
ATOM     17  C   UNL d   1     -38.277  13.338  16.607  0.00  0.00     0.126 C 
ATOM     18  C   UNL d   1     -37.974  13.571  15.878  0.00  0.00     0.029 C 
ENDBRANCH  16  17
ENDBRANCH  14  16
ENDBRANCH   1  14
BRANCH   4  19
ATOM     19  C   UNL d   1     -38.986  15.230  20.666  0.00  0.00     0.030 A 
ATOM     20  S   UNL d   1     -39.594  15.269  21.216  0.00  0.00    -0.086 SA
ATOM     21  C   UNL d   1     -39.328  15.687  21.851  0.00  0.00     0.035 A 
ATOM     22  C   UNL d   1     -38.546  15.922  21.715  0.00  0.00     0.007 A 
ATOM     23  C   UNL d   1     -38.327  15.637  20.972  0.00  0.00     0.007 A 
ENDBRANCH   4  19
TORSDOF 5
ENDMDL
MODEL 7
REMARK VINA RESULT:      -5.2      7.265      9.487
REMARK  5 active torsions:
REMARK  status: ('A' for Active; 'I' for Inactive)
REMARK    1  A    between atoms: C_8  and  C_1 
REMARK    2  A    between atoms: C_11  and  C_3 
REMARK    3  A    between atoms: C_7  and  C_4 
REMARK    4  A    between atoms: O_16  and  C_8 
REMARK    5  A    between atoms: C_19  and  O_16 
ROOT
ATOM      1  C   UNL d   1     -39.171  14.044  20.490  0.00  0.00     0.102 A 
ATOM      2  C   UNL d   1     -38.491  13.673  20.194  0.00  0.00     0.201 A 
ATOM      3  C   UNL d   1     -39.726  14.380  19.979  0.00  0.00     0.008 A 
ATOM      4  C   UNL d   1     -38.941  13.986  18.868  0.00  0.00     0.009 A 
ATOM      5  C   UNL d   1     -38.387  13.650  19.378  0.00  0.00     0.043 A 
ATOM      6  C   UNL d   1     -39.605  14.348  19.168  0.00  0.00     0.001 A 
ATOM      7  O   UNL d   1     -37.943  13.340  20.699  0.00  0.00    -0.286 OA
ENDROOT
BRANCH   3   8
ATOM      8  C   UNL d   1     -40.395  14.745  20.286  0.00  0.00     0.000 A 
ATOM      9  C   UNL d   1     -40.372  15.556  20.437  0.00  0.00     0.000 A 
ATOM     10  C   UNL d   1     -41.049  15.916  20.746  0.00  0.00     0.000 A 
ATOM     11  C   UNL d   1     -41.719  15.497  20.900  0.00  0.00     0.000 A 
ATOM     12  C   UNL d   1     -41.729  14.674  20.742  0.00  0.00     0.000 A 
ATOM     13  C   UNL d   1     -41.061  14.304  20.434  0.00  0.00     0.000 A 
ENDBRANCH   3   8
BRANCH   1  14
ATOM     14  C   UNL d   1     -39.293  14.077  21.311  0.00  0.00     0.303 C 
ATOM     15  O   UNL d   1     -39.828  13.561  21.670  0.00  0.00    -0.259 OA
BRANCH  14  16
ATOM     16  O   UNL d   1     -38.880  14.625  21.772  0.00  0.00    -0.271 OA
BRANCH  16  17
ATOM     17  C   UNL d   1     -38.697  14.448  22.555  0.00  0.00     0.126 C 
ATOM     18  C   UNL d   1     -38.605  15.057  23.102  0.00  0.00     0.029 C 
ENDBRANCH  16  17
ENDBRANCH  14  16
ENDBRANCH   1  14
BRANCH   4  19
ATOM     19  C   UNL d   1     -38.816  13.952  18.050  0.00  0.00     0.030 A 
ATOM     20  S   UNL d   1     -38.628  14.581  17.557  0.00  0.00    -0.086 SA
ATOM     21  C   UNL d   1     -38.557  14.296  16.807  0.00  0.00     0.035 A 
ATOM     22  C   UNL d   1     -38.699  13.480  16.810  0.00  0.00     0.007 A 
ATOM     23  C   UNL d   1     -38.862  13.260  17.589  0.00  0.00     0.007 A 
ENDBRANCH   4  19
TORSDOF 5
ENDMDL
