MODEL 1
REMARK VINA RESULT:      -9.6      0.000      0.000
REMARK  6 active torsions:
REMARK  status: ('A' for Active; 'I' for Inactive)
REMARK    1  A    between atoms: C_3  and  S_1 
REMARK    2  A    between atoms: N_5  and  S_1 
REMARK    3  A    between atoms: S_2  and  N_6 
REMARK    4  A    between atoms: C_4  and  S_2 
REMARK    5  A    between atoms: O_25  and  C_15 
REMARK    6  A    between atoms: O_26  and  C_16 
ROOT
ATOM      1  N   UNL d   1      51.670  33.726  53.218  0.00  0.00    -0.226 N 
ATOM      2  N   UNL d   1      50.246  34.402  52.744  0.00  0.00    -0.226 N 
ATOM      3  C   UNL d   1      51.679  34.339  52.665  0.00  0.00     0.111 A 
ATOM      4  C   UNL d   1      50.250  33.787  53.298  0.00  0.00     0.111 A 
ATOM      5  C   UNL d   1      50.959  34.678  52.428  0.00  0.00     0.111 A 
ATOM      6  C   UNL d   1      50.958  33.449  53.535  0.00  0.00     0.111 A 
ENDROOT
BRANCH   1   7
ATOM      7  S   UNL d   1      52.394  33.384  53.457  0.00  0.00     0.273 S 
ATOM      8  O   UNL d   1      52.562  33.314  54.264  0.00  0.00    -0.200 OA
ATOM      9  O   UNL d   1      52.933  33.121  52.898  0.00  0.00    -0.200 OA
BRANCH   7  10
ATOM     10  C   UNL d   1      53.112  33.045  53.690  0.00  0.00     0.126 A 
ATOM     11  C   UNL d   1      53.295  32.278  53.466  0.00  0.00     0.106 A 
ATOM     12  C   UNL d   1      54.015  31.946  53.703  0.00  0.00     0.025 A 
ATOM     13  C   UNL d   1      54.544  32.386  54.161  0.00  0.00     0.002 A 
ATOM     14  C   UNL d   1      54.351  33.161  54.383  0.00  0.00     0.001 A 
ATOM     15  C   UNL d   1      53.640  33.493  54.151  0.00  0.00     0.015 A 
ATOM     16  C   UNL d   1      54.885  33.602  54.845  0.00  0.00     0.000 C 
BRANCH  11  17
ATOM     17  O   UNL d   1      52.770  31.841  53.011  0.00  0.00    -0.327 OA
ATOM     18  C   UNL d   1      52.899  31.032  52.899  0.00  0.00     0.181 C 
ENDBRANCH  11  17
ENDBRANCH   7  10
ENDBRANCH   1   7
BRANCH   2  19
ATOM     19  S   UNL d   1      49.532  34.743  52.505  0.00  0.00     0.273 S 
ATOM     20  O   UNL d   1      49.137  35.265  53.011  0.00  0.00    -0.200 OA
ATOM     21  O   UNL d   1      49.211  34.566  51.767  0.00  0.00    -0.200 OA
BRANCH  19  22
ATOM     22  C   UNL d   1      48.816  35.100  52.295  0.00  0.00     0.126 A 
ATOM     23  C   UNL d   1      48.474  35.657  52.795  0.00  0.00     0.106 A 
ATOM     24  C   UNL d   1      47.765  36.010  52.587  0.00  0.00     0.025 A 
ATOM     25  C   UNL d   1      47.395  35.808  51.878  0.00  0.00     0.002 A 
ATOM     26  C   UNL d   1      47.740  35.249  51.379  0.00  0.00     0.001 A 
ATOM     27  C   UNL d   1      48.457  34.896  51.596  0.00  0.00     0.015 A 
ATOM     28  C   UNL d   1      47.381  35.041  50.674  0.00  0.00     0.000 C 
BRANCH  23  29
ATOM     29  O   UNL d   1      48.844  35.859  53.504  0.00  0.00    -0.327 OA
ATOM     30  C   UNL d   1      48.472  36.374  54.030  0.00  0.00     0.181 C 
ENDBRANCH  23  29
ENDBRANCH  19  22
ENDBRANCH   2  19
TORSDOF 6
ENDMDL
MODEL 2
REMARK VINA RESULT:      -9.2      0.115      5.727
REMARK  6 active torsions:
REMARK  status: ('A' for Active; 'I' for Inactive)
REMARK    1  A    between atoms: C_3  and  S_1 
REMARK    2  A    between atoms: N_5  and  S_1 
REMARK    3  A    between atoms: S_2  and  N_6 
REMARK    4  A    between atoms: C_4  and  S_2 
REMARK    5  A    between atoms: O_25  and  C_15 
REMARK    6  A    between atoms: O_26  and  C_16 
ROOT
ATOM      1  N   UNL d   1      50.268  34.454  52.803  0.00  0.00    -0.226 N 
ATOM      2  N   UNL d   1      51.688  33.774  53.283  0.00  0.00    -0.226 N 
ATOM      3  C   UNL d   1      50.252  33.800  53.306  0.00  0.00     0.111 A 
ATOM      4  C   UNL d   1      51.691  34.430  52.779  0.00  0.00     0.111 A 
ATOM      5  C   UNL d   1      50.970  33.458  53.546  0.00  0.00     0.111 A 
ATOM      6  C   UNL d   1      50.985  34.770  52.539  0.00  0.00     0.111 A 
ENDROOT
BRANCH   1   7
ATOM      7  S   UNL d   1      49.546  34.798  52.561  0.00  0.00     0.273 S 
ATOM      8  O   UNL d   1      49.384  34.874  51.753  0.00  0.00    -0.200 OA
ATOM      9  O   UNL d   1      49.002  35.056  53.118  0.00  0.00    -0.200 OA
BRANCH   7  10
ATOM     10  C   UNL d   1      48.829  35.138  52.325  0.00  0.00     0.126 A 
ATOM     11  C   UNL d   1      48.482  35.722  52.783  0.00  0.00     0.106 A 
ATOM     12  C   UNL d   1      47.766  36.058  52.541  0.00  0.00     0.025 A 
ATOM     13  C   UNL d   1      47.405  35.805  51.841  0.00  0.00     0.002 A 
ATOM     14  C   UNL d   1      47.764  35.214  51.383  0.00  0.00     0.001 A 
ATOM     15  C   UNL d   1      48.472  34.879  51.620  0.00  0.00     0.015 A 
ATOM     16  C   UNL d   1      47.398  34.961  50.679  0.00  0.00     0.000 C 
BRANCH  11  17
ATOM     17  O   UNL d   1      48.840  35.974  53.478  0.00  0.00    -0.327 OA
ATOM     18  C   UNL d   1      48.483  36.563  53.934  0.00  0.00     0.181 C 
ENDBRANCH  11  17
ENDBRANCH   7  10
ENDBRANCH   1   7
BRANCH   2  19
ATOM     19  S   UNL d   1      52.400  33.431  53.525  0.00  0.00     0.273 S 
ATOM     20  O   UNL d   1      52.947  33.177  52.959  0.00  0.00    -0.200 OA
ATOM     21  O   UNL d   1      52.569  33.342  54.327  0.00  0.00    -0.200 OA
BRANCH  19  22
ATOM     22  C   UNL d   1      53.121  33.085  53.735  0.00  0.00     0.126 A 
ATOM     23  C   UNL d   1      53.306  32.330  53.466  0.00  0.00     0.106 A 
ATOM     24  C   UNL d   1      54.020  31.987  53.674  0.00  0.00     0.025 A 
ATOM     25  C   UNL d   1      54.552  32.398  54.153  0.00  0.00     0.002 A 
ATOM     26  C   UNL d   1      54.363  33.155  54.421  0.00  0.00     0.001 A 
ATOM     27  C   UNL d   1      53.640  33.494  54.206  0.00  0.00     0.015 A 
ATOM     28  C   UNL d   1      54.885  33.571  54.896  0.00  0.00     0.000 C 
BRANCH  23  29
ATOM     29  O   UNL d   1      52.774  31.919  52.988  0.00  0.00    -0.327 OA
ATOM     30  C   UNL d   1      52.868  31.108  52.871  0.00  0.00     0.181 C 
ENDBRANCH  23  29
ENDBRANCH  19  22
ENDBRANCH   2  19
TORSDOF 6
ENDMDL
MODEL 3
REMARK VINA RESULT:      -9.0      0.477      1.374
REMARK  6 active torsions:
REMARK  status: ('A' for Active; 'I' for Inactive)
REMARK    1  A    between atoms: C_3  and  S_1 
REMARK    2  A    between atoms: N_5  and  S_1 
REMARK    3  A    between atoms: S_2  and  N_6 
REMARK    4  A    between atoms: C_4  and  S_2 
REMARK    5  A    between atoms: O_25  and  C_15 
REMARK    6  A    between atoms: O_26  and  C_16 
ROOT
ATOM      1  N   UNL d   1      51.422  33.562  53.001  0.00  0.00    -0.226 N 
ATOM      2  N   UNL d   1      50.039  34.361  52.601  0.00  0.00    -0.226 N 
ATOM      3  C   UNL d   1      50.714  33.356  53.373  0.00  0.00     0.111 A 
ATOM      4  C   UNL d   1      50.755  34.559  52.235  0.00  0.00     0.111 A 
ATOM      5  C   UNL d   1      50.018  33.761  53.169  0.00  0.00     0.111 A 
ATOM      6  C   UNL d   1      51.444  34.162  52.433  0.00  0.00     0.111 A 
ENDROOT
BRANCH   1   7
ATOM      7  S   UNL d   1      52.122  33.155  53.206  0.00  0.00     0.273 S 
ATOM      8  O   UNL d   1      52.589  32.826  52.608  0.00  0.00    -0.200 OA
ATOM      9  O   UNL d   1      52.345  33.082  53.992  0.00  0.00    -0.200 OA
BRANCH   7  10
ATOM     10  C   UNL d   1      52.815  32.753  53.413  0.00  0.00     0.126 A 
ATOM     11  C   UNL d   1      53.406  33.140  53.828  0.00  0.00     0.106 A 
ATOM     12  C   UNL d   1      54.095  32.731  54.031  0.00  0.00     0.025 A 
ATOM     13  C   UNL d   1      54.187  31.938  53.816  0.00  0.00     0.002 A 
ATOM     14  C   UNL d   1      53.584  31.554  53.396  0.00  0.00     0.001 A 
ATOM     15  C   UNL d   1      52.900  31.955  53.193  0.00  0.00     0.015 A 
ATOM     16  C   UNL d   1      53.678  30.755  53.180  0.00  0.00     0.000 C 
BRANCH  11  17
ATOM     17  O   UNL d   1      53.316  33.928  54.043  0.00  0.00    -0.327 OA
ATOM     18  C   UNL d   1      53.900  34.299  54.494  0.00  0.00     0.181 C 
ENDBRANCH  11  17
ENDBRANCH   7  10
ENDBRANCH   1   7
BRANCH   2  19
ATOM     19  S   UNL d   1      49.344  34.761  52.401  0.00  0.00     0.273 S 
ATOM     20  O   UNL d   1      48.931  35.181  52.981  0.00  0.00    -0.200 OA
ATOM     21  O   UNL d   1      49.061  34.745  51.627  0.00  0.00    -0.200 OA
BRANCH  19  22
ATOM     22  C   UNL d   1      48.647  35.172  52.232  0.00  0.00     0.126 A 
ATOM     23  C   UNL d   1      48.377  35.751  52.751  0.00  0.00     0.106 A 
ATOM     24  C   UNL d   1      47.686  36.157  52.584  0.00  0.00     0.025 A 
ATOM     25  C   UNL d   1      47.262  35.986  51.897  0.00  0.00     0.002 A 
ATOM     26  C   UNL d   1      47.535  35.406  51.379  0.00  0.00     0.001 A 
ATOM     27  C   UNL d   1      48.234  34.999  51.554  0.00  0.00     0.015 A 
ATOM     28  C   UNL d   1      47.121  35.229  50.695  0.00  0.00     0.000 C 
BRANCH  23  29
ATOM     29  O   UNL d   1      48.800  35.921  53.438  0.00  0.00    -0.327 OA
ATOM     30  C   UNL d   1      48.511  36.480  53.971  0.00  0.00     0.181 C 
ENDBRANCH  23  29
ENDBRANCH  19  22
ENDBRANCH   2  19
TORSDOF 6
ENDMDL
