MODEL 1
REMARK VINA RESULT:      -2.4      0.000      0.000
REMARK  9 active torsions:
REMARK  status: ('A' for Active; 'I' for Inactive)
REMARK    1  A    between atoms: N_4  and  C_1 
REMARK       I    between atoms: C_7  and  N_4 
REMARK    2  A    between atoms: C_13  and  C_7 
REMARK    3  A    between atoms: C_8  and  C_14 
REMARK    4  A    between atoms: O_12  and  C_8 
REMARK    5  A    between atoms: S_11  and  C_13 
REMARK    6  A    between atoms: C_14  and  S_11 
REMARK    7  A    between atoms: C_16  and  O_12 
REMARK    8  A    between atoms: C_17  and  C_16 
REMARK    9  A    between atoms: C_18  and  C_17 
ROOT
ATOM      1  C   UNL d   1      32.156  17.037 -23.527  0.00  0.00     0.127 C 
ENDROOT
BRANCH   1   2
ATOM      2  S   UNL d   1      32.676  17.670 -23.427  0.00  0.00    -0.089 SA
BRANCH   2   3
ATOM      3  C   UNL d   1      32.546  18.219 -22.825  0.00  0.00     0.103 C 
BRANCH   3   4
ATOM      4  C   UNL d   1      32.888  18.964 -22.864  0.00  0.00     0.307 C 
ATOM      5  O   UNL d   1      33.019  19.320 -23.591  0.00  0.00    -0.258 OA
BRANCH   4   6
ATOM      6  O   UNL d   1      33.097  19.349 -22.173  0.00  0.00    -0.271 OA
BRANCH   6   7
ATOM      7  C   UNL d   1      32.835  20.117 -22.028  0.00  0.00     0.126 C 
BRANCH   7   8
ATOM      8  C   UNL d   1      33.079  20.514 -21.347  0.00  0.00     0.027 C 
BRANCH   8   9
ATOM      9  C   UNL d   1      32.558  21.021 -20.957  0.00  0.00     0.002 C 
ATOM     10  C   UNL d   1      32.796  21.766 -20.732  0.00  0.00     0.000 C 
ENDBRANCH   8   9
ENDBRANCH   7   8
ENDBRANCH   6   7
ENDBRANCH   4   6
ENDBRANCH   3   4
ENDBRANCH   2   3
ENDBRANCH   1   2
BRANCH   1  11
ATOM     11  C   UNL d   1      32.433  16.315 -23.812  0.00  0.00     0.275 C 
ATOM     12  N   UNL d   1      31.906  15.710 -23.968  0.00  0.00    -0.187 NA
ATOM     13  O   UNL d   1      33.241  16.205 -23.940  0.00  0.00    -0.266 OA
BRANCH  12  14
ATOM     14  C   UNL d   1      31.098  15.819 -23.841  0.00  0.00     0.194 A 
ATOM     15  N   UNL d   1      30.597  16.287 -24.298  0.00  0.00    -0.107 NA
ATOM     16  O   UNL d   1      29.842  16.236 -23.973  0.00  0.00    -0.210 OA
ATOM     17  C   UNL d   1      29.864  15.746 -23.322  0.00  0.00     0.128 A 
ATOM     18  C   UNL d   1      30.643  15.484 -23.235  0.00  0.00     0.068 A 
ATOM     19  C   UNL d   1      29.216  15.549 -22.837  0.00  0.00     0.029 C 
ENDBRANCH  12  14
ENDBRANCH   1  11
TORSDOF 9
ENDMDL
MODEL 2
REMARK VINA RESULT:      -1.3      2.982      5.743
REMARK  9 active torsions:
REMARK  status: ('A' for Active; 'I' for Inactive)
REMARK    1  A    between atoms: N_4  and  C_1 
REMARK       I    between atoms: C_7  and  N_4 
REMARK    2  A    between atoms: C_13  and  C_7 
REMARK    3  A    between atoms: C_8  and  C_14 
REMARK    4  A    between atoms: O_12  and  C_8 
REMARK    5  A    between atoms: S_11  and  C_13 
REMARK    6  A    between atoms: C_14  and  S_11 
REMARK    7  A    between atoms: C_16  and  O_12 
REMARK    8  A    between atoms: C_17  and  C_16 
REMARK    9  A    between atoms: C_18  and  C_17 
ROOT
ATOM      1  C   UNL d   1      32.948  21.547 -22.193  0.00  0.00     0.127 C 
ENDROOT
BRANCH   1   2
ATOM      2  S   UNL d   1      33.170  21.010 -22.779  0.00  0.00    -0.089 SA
BRANCH   2   3
ATOM      3  C   UNL d   1      33.241  20.209 -22.598  0.00  0.00     0.103 C 
BRANCH   3   4
ATOM      4  C   UNL d   1      33.236  19.648 -23.198  0.00  0.00     0.307 C 
ATOM      5  O   UNL d   1      33.240  19.884 -23.984  0.00  0.00    -0.258 OA
BRANCH   4   6
ATOM      6  O   UNL d   1      33.228  18.853 -23.006  0.00  0.00    -0.271 OA
BRANCH   6   7
ATOM      7  C   UNL d   1      32.620  18.365 -23.277  0.00  0.00     0.126 C 
BRANCH   7   8
ATOM      8  C   UNL d   1      32.712  17.546 -23.264  0.00  0.00     0.027 C 
BRANCH   8   9
ATOM      9  C   UNL d   1      32.061  17.056 -23.394  0.00  0.00     0.002 C 
ATOM     10  C   UNL d   1      32.078  16.494 -23.982  0.00  0.00     0.000 C 
ENDBRANCH   8   9
ENDBRANCH   7   8
ENDBRANCH   6   7
ENDBRANCH   4   6
ENDBRANCH   3   4
ENDBRANCH   2   3
ENDBRANCH   1   2
BRANCH   1  11
ATOM     11  C   UNL d   1      32.822  22.340 -22.383  0.00  0.00     0.275 C 
ATOM     12  N   UNL d   1      32.618  22.871 -21.797  0.00  0.00    -0.187 NA
ATOM     13  O   UNL d   1      32.903  22.594 -23.164  0.00  0.00    -0.266 OA
BRANCH  12  14
ATOM     14  C   UNL d   1      32.538  22.618 -21.016  0.00  0.00     0.194 A 
ATOM     15  N   UNL d   1      31.922  22.156 -20.720  0.00  0.00    -0.107 NA
ATOM     16  O   UNL d   1      32.064  22.036 -19.917  0.00  0.00    -0.210 OA
ATOM     17  C   UNL d   1      32.755  22.414 -19.708  0.00  0.00     0.128 A 
ATOM     18  C   UNL d   1      33.055  22.777 -20.388  0.00  0.00     0.068 A 
ATOM     19  C   UNL d   1      33.094  22.427 -18.947  0.00  0.00     0.029 C 
ENDBRANCH  12  14
ENDBRANCH   1  11
TORSDOF 9
ENDMDL
MODEL 3
REMARK VINA RESULT:      -0.6      3.908      6.748
REMARK  9 active torsions:
REMARK  status: ('A' for Active; 'I' for Inactive)
REMARK    1  A    between atoms: N_4  and  C_1 
REMARK       I    between atoms: C_7  and  N_4 
REMARK    2  A    between atoms: C_13  and  C_7 
REMARK    3  A    between atoms: C_8  and  C_14 
REMARK    4  A    between atoms: O_12  and  C_8 
REMARK    5  A    between atoms: S_11  and  C_13 
REMARK    6  A    between atoms: C_14  and  S_11 
REMARK    7  A    between atoms: C_16  and  O_12 
REMARK    8  A    between atoms: C_17  and  C_16 
REMARK    9  A    between atoms: C_18  and  C_17 
ROOT
ATOM      1  C   UNL d   1      32.545  22.269 -20.336  0.00  0.00     0.127 C 
ENDROOT
BRANCH   1   2
ATOM      2  S   UNL d   1      32.888  21.694 -20.819  0.00  0.00    -0.089 SA
BRANCH   2   3
ATOM      3  C   UNL d   1      32.527  20.956 -20.899  0.00  0.00     0.103 C 
BRANCH   3   4
ATOM      4  C   UNL d   1      32.966  20.308 -21.148  0.00  0.00     0.307 C 
ATOM      5  O   UNL d   1      33.240  19.761 -20.602  0.00  0.00    -0.258 OA
BRANCH   4   6
ATOM      6  O   UNL d   1      33.126  20.212 -21.944  0.00  0.00    -0.271 OA
BRANCH   6   7
ATOM      7  C   UNL d   1      32.716  19.649 -22.387  0.00  0.00     0.126 C 
BRANCH   7   8
ATOM      8  C   UNL d   1      32.900  19.537 -23.184  0.00  0.00     0.027 C 
BRANCH   8   9
ATOM      9  C   UNL d   1      33.124  18.791 -23.454  0.00  0.00     0.002 C 
ATOM     10  C   UNL d   1      32.566  18.267 -23.730  0.00  0.00     0.000 C 
ENDBRANCH   8   9
ENDBRANCH   7   8
ENDBRANCH   6   7
ENDBRANCH   4   6
ENDBRANCH   3   4
ENDBRANCH   2   3
ENDBRANCH   1   2
BRANCH   1  11
ATOM     11  C   UNL d   1      32.281  22.980 -20.662  0.00  0.00     0.275 C 
ATOM     12  N   UNL d   1      32.243  23.651 -20.197  0.00  0.00    -0.187 NA
ATOM     13  O   UNL d   1      32.056  23.010 -21.455  0.00  0.00    -0.266 OA
BRANCH  12  14
ATOM     14  C   UNL d   1      32.469  23.620 -19.404  0.00  0.00     0.194 A 
ATOM     15  N   UNL d   1      33.241  23.545 -19.124  0.00  0.00    -0.107 NA
ATOM     16  O   UNL d   1      33.209  23.538 -18.301  0.00  0.00    -0.210 OA
ATOM     17  C   UNL d   1      32.432  23.607 -18.063  0.00  0.00     0.128 A 
ATOM     18  C   UNL d   1      31.967  23.659 -18.745  0.00  0.00     0.068 A 
ATOM     19  C   UNL d   1      32.162  23.623 -17.275  0.00  0.00     0.029 C 
ENDBRANCH  12  14
ENDBRANCH   1  11
TORSDOF 9
ENDMDL
MODEL 4
REMARK VINA RESULT:      -0.3      1.736      2.536
REMARK  9 active torsions:
REMARK  status: ('A' for Active; 'I' for Inactive)
REMARK    1  A    between atoms: N_4  and  C_1 
REMARK       I    between atoms: C_7  and  N_4 
REMARK    2  A    between atoms: C_13  and  C_7 
REMARK    3  A    between atoms: C_8  and  C_14 
REMARK    4  A    between atoms: O_12  and  C_8 
REMARK    5  A    between atoms: S_11  and  C_13 
REMARK    6  A    between atoms: C_14  and  S_11 
REMARK    7  A    between atoms: C_16  and  O_12 
REMARK    8  A    between atoms: C_17  and  C_16 
REMARK    9  A    between atoms: C_18  and  C_17 
ROOT
ATOM      1  C   UNL d   1      32.741  19.258 -23.453  0.00  0.00     0.127 C 
ENDROOT
BRANCH   1   2
ATOM      2  S   UNL d   1      33.239  19.755 -23.021  0.00  0.00    -0.089 SA
BRANCH   2   3
ATOM      3  C   UNL d   1      32.941  20.450 -22.690  0.00  0.00     0.103 C 
BRANCH   3   4
ATOM      4  C   UNL d   1      33.030  20.595 -21.887  0.00  0.00     0.307 C 
ATOM      5  O   UNL d   1      33.176  19.976 -21.369  0.00  0.00    -0.258 OA
BRANCH   4   6
ATOM      6  O   UNL d   1      32.974  21.362 -21.608  0.00  0.00    -0.271 OA
BRANCH   6   7
ATOM      7  C   UNL d   1      33.228  21.548 -20.846  0.00  0.00     0.126 C 
BRANCH   7   8
ATOM      8  C   UNL d   1      33.043  22.282 -20.517  0.00  0.00     0.027 C 
BRANCH   8   9
ATOM      9  C   UNL d   1      33.229  22.440 -19.729  0.00  0.00     0.002 C 
ATOM     10  C   UNL d   1      32.747  22.916 -19.278  0.00  0.00     0.000 C 
ENDBRANCH   8   9
ENDBRANCH   7   8
ENDBRANCH   6   7
ENDBRANCH   4   6
ENDBRANCH   3   4
ENDBRANCH   2   3
ENDBRANCH   1   2
BRANCH   1  11
ATOM     11  C   UNL d   1      32.816  19.209 -24.274  0.00  0.00     0.275 C 
ATOM     12  N   UNL d   1      32.719  18.489 -24.648  0.00  0.00    -0.187 NA
ATOM     13  O   UNL d   1      32.988  19.887 -24.713  0.00  0.00    -0.266 OA
BRANCH  12  14
ATOM     14  C   UNL d   1      32.547  17.812 -24.209  0.00  0.00     0.194 A 
ATOM     15  N   UNL d   1      31.885  17.704 -23.731  0.00  0.00    -0.107 NA
ATOM     16  O   UNL d   1      31.938  16.951 -23.399  0.00  0.00    -0.210 OA
ATOM     17  C   UNL d   1      32.619  16.590 -23.663  0.00  0.00     0.128 A 
ATOM     18  C   UNL d   1      33.003  17.121 -24.167  0.00  0.00     0.068 A 
ATOM     19  C   UNL d   1      32.878  15.825 -23.458  0.00  0.00     0.029 C 
ENDBRANCH  12  14
ENDBRANCH   1  11
TORSDOF 9
ENDMDL
