MODEL 1
REMARK VINA RESULT:      50.8      0.000      0.000
REMARK  4 active torsions:
REMARK  status: ('A' for Active; 'I' for Inactive)
REMARK    1  A    between atoms: C_6  and  N_1 
REMARK    2  A    between atoms: C_11  and  C_6 
REMARK    3  A    between atoms: O_14  and  C_8 
REMARK    4  A    between atoms: O_15  and  C_9 
ROOT
ATOM      1  C   UNL d   1     -51.407  25.253  33.306  0.00  0.00     0.084 C 
ENDROOT
BRANCH   1   2
ATOM      2  N   UNL d   1     -51.748  24.507  33.395  0.00  0.00    -0.268 N 
ATOM      3  C   UNL d   1     -51.338  23.796  33.502  0.00  0.00     0.296 A 
ATOM      4  S   UNL d   1     -51.902  23.188  33.565  0.00  0.00    -0.025 SA
ATOM      5  O   UNL d   1     -50.519  23.709  33.539  0.00  0.00    -0.259 OA
ATOM      6  C   UNL d   1     -52.651  23.528  33.497  0.00  0.00     0.050 A 
ATOM      7  C   UNL d   1     -52.560  24.341  33.392  0.00  0.00     0.073 A 
ATOM      8  C   UNL d   1     -53.418  23.207  33.516  0.00  0.00     0.008 A 
ATOM      9  C   UNL d   1     -53.217  24.831  33.307  0.00  0.00     0.018 A 
ATOM     10  C   UNL d   1     -53.975  24.508  33.326  0.00  0.00     0.002 A 
ATOM     11  C   UNL d   1     -54.076  23.692  33.432  0.00  0.00     0.001 A 
ENDBRANCH   1   2
BRANCH   1  12
ATOM     12  C   UNL d   1     -51.293  25.738  33.970  0.00  0.00     0.020 A 
ATOM     13  C   UNL d   1     -50.779  26.371  33.920  0.00  0.00     0.028 A 
ATOM     14  C   UNL d   1     -50.664  26.852  34.575  0.00  0.00     0.116 A 
ATOM     15  C   UNL d   1     -51.070  26.696  35.288  0.00  0.00     0.116 A 
ATOM     16  C   UNL d   1     -51.588  26.053  35.325  0.00  0.00     0.026 A 
ATOM     17  C   UNL d   1     -51.698  25.572  34.660  0.00  0.00     0.004 A 
BRANCH  14  18
ATOM     18  O   UNL d   1     -50.147  27.492  34.533  0.00  0.00    -0.326 OA
ATOM     19  C   UNL d   1     -49.436  27.429  34.106  0.00  0.00     0.181 C 
ENDBRANCH  14  18
BRANCH  15  20
ATOM     20  O   UNL d   1     -50.933  27.197  35.926  0.00  0.00    -0.326 OA
ATOM     21  C   UNL d   1     -50.208  27.191  36.310  0.00  0.00     0.181 C 
ENDBRANCH  15  20
ENDBRANCH   1  12
TORSDOF 4
ENDMDL
