MODEL 1
REMARK VINA RESULT:      49.9      0.000      0.000
REMARK  6 active torsions:
REMARK  status: ('A' for Active; 'I' for Inactive)
REMARK    1  A    between atoms: C_7  and  C_1 
REMARK    2  A    between atoms: S_9  and  C_2 
REMARK    3  A    between atoms: C_11  and  C_4 
REMARK    4  A    between atoms: C_15  and  S_9 
REMARK    5  A    between atoms: C_12  and  C_15 
REMARK    6  A    between atoms: O_21  and  C_12 
ROOT
ATOM      1  C   UNL d   1     -57.405 -99.166 -44.640  0.00  0.00     0.045 A 
ATOM      2  C   UNL d   1     -56.971 -99.232 -43.949  0.00  0.00     0.112 A 
ATOM      3  C   UNL d   1     -58.600 -98.960 -43.869  0.00  0.00     0.057 A 
ATOM      4  C   UNL d   1     -58.218 -99.031 -44.609  0.00  0.00     0.008 A 
ATOM      5  C   UNL d   1     -58.166 -99.026 -43.178  0.00  0.00     0.085 A 
ATOM      6  N   UNL d   1     -57.339 -99.164 -43.211  0.00  0.00    -0.239 NA
ATOM      7  C   UNL d   1     -59.404 -98.826 -43.844  0.00  0.00     0.197 A 
ATOM      8  O   UNL d   1     -59.845 -98.759 -44.546  0.00  0.00    -0.286 OA
ATOM      9  C   UNL d   1     -58.525 -98.960 -42.446  0.00  0.00     0.019 A 
ATOM     10  C   UNL d   1     -59.775 -98.758 -43.111  0.00  0.00     0.042 A 
ATOM     11  C   UNL d   1     -59.341 -98.824 -42.420  0.00  0.00     0.005 A 
ENDROOT
BRANCH   4  12
ATOM     12  C   UNL d   1     -58.649 -98.965 -45.295  0.00  0.00     0.000 A 
ATOM     13  C   UNL d   1     -59.468 -99.033 -45.273  0.00  0.00     0.000 A 
ATOM     14  C   UNL d   1     -59.902 -98.967 -45.964  0.00  0.00     0.000 A 
ATOM     15  C   UNL d   1     -59.518 -98.833 -46.678  0.00  0.00     0.000 A 
ATOM     16  C   UNL d   1     -58.689 -98.763 -46.707  0.00  0.00     0.000 A 
ATOM     17  C   UNL d   1     -59.957 -98.766 -47.376  0.00  0.00     0.000 C 
ATOM     18  C   UNL d   1     -58.255 -98.829 -46.016  0.00  0.00     0.000 A 
ENDBRANCH   4  12
BRANCH   1  19
ATOM     19  C   UNL d   1     -57.018 -99.237 -45.383  0.00  0.00     0.124 C 
ATOM     20  N   UNL d   1     -56.359 -98.758 -45.547  0.00  0.00    -0.146 N 
ENDBRANCH   1  19
BRANCH   2  21
ATOM     21  S   UNL d   1     -56.126 -99.373 -43.965  0.00  0.00    -0.062 SA
BRANCH  21  22
ATOM     22  C   UNL d   1     -55.829-100.064 -43.650  0.00  0.00     0.105 C 
BRANCH  22  23
ATOM     23  C   UNL d   1     -55.660-100.707 -44.150  0.00  0.00     0.303 C 
ATOM     24  O   UNL d   1     -56.224-101.293 -44.293  0.00  0.00    -0.259 OA
BRANCH  23  25
ATOM     25  O   UNL d   1     -54.925-100.760 -44.504  0.00  0.00    -0.295 OA
ATOM     26  C   UNL d   1     -54.824-101.248 -45.169  0.00  0.00     0.185 C 
ENDBRANCH  23  25
ENDBRANCH  22  23
ENDBRANCH  21  22
ENDBRANCH   2  21
TORSDOF 6
ENDMDL
