MODEL 1
REMARK VINA RESULT:      -5.1      0.000      0.000
REMARK  4 active torsions:
REMARK  status: ('A' for Active; 'I' for Inactive)
REMARK    1  A    between atoms: C_2  and  N_1 
REMARK    2  A    between atoms: C_6  and  C_2 
REMARK    3  A    between atoms: C_7  and  C_2 
REMARK    4  A    between atoms: C_9  and  C_6 
ROOT
ATOM      1  C   UNL d   1     -42.018-122.161 -54.223  0.00  0.00     0.153 C 
ENDROOT
BRANCH   1   2
ATOM      2  N   UNL d   1     -41.704-122.497 -53.537  0.00  0.00    -0.224 N 
ATOM      3  N   UNL d   1     -41.663-122.162 -52.797  0.00  0.00    -0.165 NA
ATOM      4  C   UNL d   1     -41.309-122.694 -52.287  0.00  0.00     0.103 A 
ATOM      5  C   UNL d   1     -41.156-122.569 -51.453  0.00  0.00     0.022 C 
ATOM      6  C   UNL d   1     -41.123-123.376 -52.710  0.00  0.00     0.040 A 
ATOM      7  C   UNL d   1     -41.364-123.255 -53.473  0.00  0.00     0.085 A 
ATOM      8  C   UNL d   1     -41.278-123.817 -54.094  0.00  0.00     0.021 C 
ENDBRANCH   1   2
BRANCH   1   9
ATOM      9  C   UNL d   1     -41.839-122.480 -54.970  0.00  0.00     0.096 C 
BRANCH   9  10
ATOM     10  C   UNL d   1     -41.973-122.031 -55.644  0.00  0.00     0.213 C 
ATOM     11  O   UNL d   1     -41.387-121.546 -55.965  0.00  0.00    -0.644 OA
ATOM     12  O   UNL d   1     -42.703-122.038 -56.042  0.00  0.00    -0.644 OA
ENDBRANCH   9  10
ENDBRANCH   1   9
BRANCH   1  13
ATOM     13  C   UNL d   1     -42.510-121.509 -54.170  0.00  0.00     0.230 C 
ATOM     14  O   UNL d   1     -43.332-121.618 -54.159  0.00  0.00    -0.643 OA
ATOM     15  O   UNL d   1     -42.195-120.739 -54.128  0.00  0.00    -0.643 OA
ENDBRANCH   1  13
TORSDOF 4
ENDMDL
MODEL 2
REMARK VINA RESULT:      -4.6      1.200      1.837
REMARK  4 active torsions:
REMARK  status: ('A' for Active; 'I' for Inactive)
REMARK    1  A    between atoms: C_2  and  N_1 
REMARK    2  A    between atoms: C_6  and  C_2 
REMARK    3  A    between atoms: C_7  and  C_2 
REMARK    4  A    between atoms: C_9  and  C_6 
ROOT
ATOM      1  C   UNL d   1     -41.768-122.713 -53.568  0.00  0.00     0.153 C 
ENDROOT
BRANCH   1   2
ATOM      2  N   UNL d   1     -41.547-122.784 -52.775  0.00  0.00    -0.224 N 
ATOM      3  N   UNL d   1     -41.539-123.460 -52.324  0.00  0.00    -0.165 NA
ATOM      4  C   UNL d   1     -41.281-123.271 -51.571  0.00  0.00     0.103 A 
ATOM      5  C   UNL d   1     -41.189-123.816 -50.916  0.00  0.00     0.022 C 
ATOM      6  C   UNL d   1     -41.125-122.462 -51.545  0.00  0.00     0.040 A 
ATOM      7  C   UNL d   1     -41.287-122.165 -52.281  0.00  0.00     0.085 A 
ATOM      8  C   UNL d   1     -41.202-121.356 -52.497  0.00  0.00     0.021 C 
ENDBRANCH   1   2
BRANCH   1   9
ATOM      9  C   UNL d   1     -41.954-121.969 -53.889  0.00  0.00     0.096 C 
BRANCH   9  10
ATOM     10  C   UNL d   1     -42.318-121.925 -54.624  0.00  0.00     0.213 C 
ATOM     11  O   UNL d   1     -43.139-121.879 -54.699  0.00  0.00    -0.644 OA
ATOM     12  O   UNL d   1     -41.883-121.925 -55.333  0.00  0.00    -0.644 OA
ENDBRANCH   9  10
ENDBRANCH   1   9
BRANCH   1  13
ATOM     13  C   UNL d   1     -41.805-123.378 -54.043  0.00  0.00     0.230 C 
ATOM     14  O   UNL d   1     -41.125-123.630 -54.445  0.00  0.00    -0.643 OA
ATOM     15  O   UNL d   1     -42.515-123.804 -54.127  0.00  0.00    -0.643 OA
ENDBRANCH   1  13
TORSDOF 4
ENDMDL
MODEL 3
REMARK VINA RESULT:      -4.3      3.382      4.586
REMARK  4 active torsions:
REMARK  status: ('A' for Active; 'I' for Inactive)
REMARK    1  A    between atoms: C_2  and  N_1 
REMARK    2  A    between atoms: C_6  and  C_2 
REMARK    3  A    between atoms: C_7  and  C_2 
REMARK    4  A    between atoms: C_9  and  C_6 
ROOT
ATOM      1  C   UNL d   1     -42.162-122.952 -50.118  0.00  0.00     0.153 C 
ENDROOT
BRANCH   1   2
ATOM      2  N   UNL d   1     -42.195-123.113 -49.309  0.00  0.00    -0.224 N 
ATOM      3  N   UNL d   1     -41.574-123.132 -48.784  0.00  0.00    -0.165 NA
ATOM      4  C   UNL d   1     -41.862-123.313 -48.041  0.00  0.00     0.103 A 
ATOM      5  C   UNL d   1     -41.400-123.391 -47.323  0.00  0.00     0.022 C 
ATOM      6  C   UNL d   1     -42.679-123.411 -48.096  0.00  0.00     0.040 A 
ATOM      7  C   UNL d   1     -42.881-123.288 -48.871  0.00  0.00     0.085 A 
ATOM      8  C   UNL d   1     -43.666-123.334 -49.170  0.00  0.00     0.021 C 
ENDBRANCH   1   2
BRANCH   1   9
ATOM      9  C   UNL d   1     -42.398-122.211 -50.411  0.00  0.00     0.096 C 
BRANCH   9  10
ATOM     10  C   UNL d   1     -41.943-121.838 -50.984  0.00  0.00     0.213 C 
ATOM     11  O   UNL d   1     -42.121-121.899 -51.787  0.00  0.00    -0.644 OA
ATOM     12  O   UNL d   1     -41.277-121.378 -50.789  0.00  0.00    -0.644 OA
ENDBRANCH   9  10
ENDBRANCH   1   9
BRANCH   1  13
ATOM     13  C   UNL d   1     -41.895-123.525 -50.638  0.00  0.00     0.230 C 
ATOM     14  O   UNL d   1     -41.123-123.817 -50.562  0.00  0.00    -0.643 OA
ATOM     15  O   UNL d   1     -42.389-123.817 -51.241  0.00  0.00    -0.643 OA
ENDBRANCH   1  13
TORSDOF 4
ENDMDL
MODEL 4
REMARK VINA RESULT:      -2.2      2.026      3.235
REMARK  4 active torsions:
REMARK  status: ('A' for Active; 'I' for Inactive)
REMARK    1  A    between atoms: C_2  and  N_1 
REMARK    2  A    between atoms: C_6  and  C_2 
REMARK    3  A    between atoms: C_7  and  C_2 
REMARK    4  A    between atoms: C_9  and  C_6 
ROOT
ATOM      1  C   UNL d   1     -42.014-122.160 -52.019  0.00  0.00     0.153 C 
ENDROOT
BRANCH   1   2
ATOM      2  N   UNL d   1     -41.850-122.277 -52.820  0.00  0.00    -0.224 N 
ATOM      3  N   UNL d   1     -42.050-121.791 -53.441  0.00  0.00    -0.165 NA
ATOM      4  C   UNL d   1     -41.777-122.125 -54.135  0.00  0.00     0.103 A 
ATOM      5  C   UNL d   1     -41.866-121.799 -54.923  0.00  0.00     0.022 C 
ATOM      6  C   UNL d   1     -41.398-122.834 -53.952  0.00  0.00     0.040 A 
ATOM      7  C   UNL d   1     -41.444-122.926 -53.148  0.00  0.00     0.085 A 
ATOM      8  C   UNL d   1     -41.125-123.581 -52.726  0.00  0.00     0.021 C 
ENDBRANCH   1   2
BRANCH   1   9
ATOM      9  C   UNL d   1     -42.692-122.495 -51.673  0.00  0.00     0.096 C 
BRANCH   9  10
ATOM     10  C   UNL d   1     -42.925-122.255 -50.924  0.00  0.00     0.213 C 
ATOM     11  O   UNL d   1     -42.614-122.602 -50.242  0.00  0.00    -0.644 OA
ATOM     12  O   UNL d   1     -43.485-121.651 -50.807  0.00  0.00    -0.644 OA
ENDBRANCH   9  10
ENDBRANCH   1   9
BRANCH   1  13
ATOM     13  C   UNL d   1     -41.507-121.712 -51.560  0.00  0.00     0.230 C 
ATOM     14  O   UNL d   1     -41.375-120.917 -51.755  0.00  0.00    -0.643 OA
ATOM     15  O   UNL d   1     -41.123-122.043 -50.900  0.00  0.00    -0.643 OA
ENDBRANCH   1  13
TORSDOF 4
ENDMDL
