MODEL 1
REMARK VINA RESULT:      71.7      0.000      0.000
REMARK  2 active torsions:
REMARK  status: ('A' for Active; 'I' for Inactive)
REMARK    1  A    between atoms: N_2  and  C_1 
REMARK    2  A    between atoms: N_11  and  C_3 
ROOT
ATOM      1  C   UNL d   1     -58.168 -98.782 -44.996  0.00  0.00     0.142 A 
ATOM      2  C   UNL d   1     -57.522 -98.790 -44.483  0.00  0.00     0.124 A 
ATOM      3  C   UNL d   1     -58.931 -98.772 -44.690  0.00  0.00     0.215 A 
ATOM      4  C   UNL d   1     -57.635 -98.788 -43.667  0.00  0.00     0.213 A 
ATOM      5  C   UNL d   1     -59.055 -98.769 -43.873  0.00  0.00     0.044 A 
ATOM      6  C   UNL d   1     -58.401 -98.778 -43.364  0.00  0.00     0.044 A 
ATOM      7  O   UNL d   1     -59.582 -98.763 -45.197  0.00  0.00    -0.285 OA
ATOM      8  O   UNL d   1     -56.989 -98.797 -43.154  0.00  0.00    -0.285 OA
ATOM      9  C   UNL d   1     -59.811 -98.759 -43.568  0.00  0.00     0.003 A 
ATOM     10  C   UNL d   1     -58.522 -98.776 -42.544  0.00  0.00     0.003 A 
ATOM     11  C   UNL d   1     -59.288 -98.765 -42.247  0.00  0.00     0.000 A 
ATOM     12  C   UNL d   1     -59.937 -98.757 -42.763  0.00  0.00     0.000 A 
ENDROOT
BRANCH   1  13
ATOM     13  N   UNL d   1     -58.049 -98.784 -45.807  0.00  0.00    -0.206 N 
ATOM     14  N   UNL d   1     -57.316 -98.778 -46.188  0.00  0.00    -0.059 NA
ATOM     15  N   UNL d   1     -57.457 -98.783 -47.005  0.00  0.00    -0.129 NA
ATOM     16  C   UNL d   1     -58.278 -98.792 -47.117  0.00  0.00     0.122 A 
ATOM     17  C   UNL d   1     -58.641 -98.792 -46.372  0.00  0.00     0.104 A 
ATOM     18  C   UNL d   1     -58.731 -98.799 -47.805  0.00  0.00     0.022 A 
ATOM     19  C   UNL d   1     -59.455 -98.800 -46.315  0.00  0.00     0.021 A 
ATOM     20  C   UNL d   1     -59.929 -98.808 -46.999  0.00  0.00     0.002 A 
ATOM     21  C   UNL d   1     -59.562 -98.807 -47.740  0.00  0.00     0.002 A 
ENDBRANCH   1  13
BRANCH   2  22
ATOM     22  N   UNL d   1     -56.755 -98.801 -44.789  0.00  0.00    -0.296 N 
ATOM     23  C   UNL d   1     -56.108 -98.849 -44.281  0.00  0.00     0.107 A 
ATOM     24  C   UNL d   1     -55.350 -98.860 -44.580  0.00  0.00     0.142 A 
ATOM     25  O   UNL d   1     -55.225 -98.822 -45.399  0.00  0.00    -0.300 OA
ATOM     26  C   UNL d   1     -55.877 -98.774 -45.904  0.00  0.00     0.142 A 
ATOM     27  C   UNL d   1     -56.640 -98.763 -45.597  0.00  0.00     0.107 A 
ENDBRANCH   2  22
TORSDOF 2
ENDMDL
