MODEL 1
REMARK VINA RESULT:      36.7      0.000      0.000
REMARK  3 active torsions:
REMARK  status: ('A' for Active; 'I' for Inactive)
REMARK    1  A    between atoms: C_8  and  C_1 
REMARK    2  A    between atoms: N_4  and  C_2 
REMARK       I    between atoms: C_6  and  N_4 
REMARK    3  A    between atoms: C_9  and  C_6 
ROOT
ATOM      1  C   UNL d   1      13.939  12.285  -1.900  0.00  0.00     0.177 A 
ATOM      2  C   UNL d   1      13.868  13.065  -2.161  0.00  0.00     0.114 A 
ATOM      3  O   UNL d   1      13.702  11.779  -2.521  0.00  0.00    -0.301 OA
ATOM      4  C   UNL d   1      13.590  13.053  -2.936  0.00  0.00     0.043 A 
ATOM      5  C   UNL d   1      13.487  12.244  -3.160  0.00  0.00     0.102 A 
ATOM      6  C   UNL d   1      13.417  13.652  -3.469  0.00  0.00     0.004 A 
ATOM      7  C   UNL d   1      13.213  12.068  -3.912  0.00  0.00     0.025 A 
ATOM      8  C   UNL d   1      13.139  13.475  -4.230  0.00  0.00     0.000 A 
ATOM      9  C   UNL d   1      13.037  12.695  -4.454  0.00  0.00     0.002 A 
ENDROOT
BRANCH   2  10
ATOM     10  N   UNL d   1      14.055  13.746  -1.691  0.00  0.00    -0.206 NA
ATOM     11  C   UNL d   1      14.797  14.099  -1.764  0.00  0.00     0.279 C 
ATOM     12  O   UNL d   1      15.379  13.800  -2.297  0.00  0.00    -0.265 OA
BRANCH  11  13
ATOM     13  C   UNL d   1      14.989  14.767  -1.307  0.00  0.00     0.058 A 
ATOM     14  C   UNL d   1      15.147  14.716  -0.506  0.00  0.00     0.007 A 
ATOM     15  C   UNL d   1      15.337  15.396  -0.067  0.00  0.00     0.030 A 
ATOM     16  C   UNL d   1      15.367  16.130  -0.441  0.00  0.00     0.140 A 
ATOM     17  C   UNL d   1      15.212  16.194  -1.239  0.00  0.00     0.030 A 
ATOM     18  F   UNL d   1      15.554  16.811  -0.017  0.00  0.00    -0.204 F 
ATOM     19  C   UNL d   1      15.021  15.516  -1.682  0.00  0.00     0.007 A 
ENDBRANCH  11  13
ENDBRANCH   2  10
BRANCH   1  20
ATOM     20  C   UNL d   1      14.201  12.076  -1.149  0.00  0.00     0.321 C 
ATOM     21  O   UNL d   1      14.997  11.833  -1.037  0.00  0.00    -0.261 OA
ATOM     22  N   UNL d   1      13.681  12.102  -0.495  0.00  0.00    -0.101 N 
ENDBRANCH   1  20
TORSDOF 3
ENDMDL
