MODEL 1
REMARK VINA RESULT:      89.3      0.000      0.000
REMARK  4 active torsions:
REMARK  status: ('A' for Active; 'I' for Inactive)
REMARK    1  A    between atoms: C_6  and  S_1 
REMARK    2  A    between atoms: N_9  and  S_1 
REMARK    3  A    between atoms: C_17  and  N_9 
REMARK       I    between atoms: C_13  and  N_15 
REMARK    4  A    between atoms: N_15  and  C_18 
ROOT
ATOM      1  C   UNL d   1     -48.175  29.851  34.824  0.00  0.00     0.054 A 
ATOM      2  C   UNL d   1     -48.369  30.412  34.270  0.00  0.00     0.196 A 
ATOM      3  C   UNL d   1     -47.733  30.010  35.465  0.00  0.00     0.043 A 
ATOM      4  C   UNL d   1     -47.452  30.755  35.595  0.00  0.00     0.196 A 
ATOM      5  C   UNL d   1     -48.444  29.046  34.739  0.00  0.00     0.108 A 
ATOM      6  C   UNL d   1     -48.097  31.184  34.374  0.00  0.00     0.042 A 
ATOM      7  C   UNL d   1     -47.644  31.346  35.032  0.00  0.00     0.042 A 
ATOM      8  O   UNL d   1     -48.846  30.172  33.607  0.00  0.00    -0.286 OA
ATOM      9  O   UNL d   1     -46.981  30.919  36.281  0.00  0.00    -0.287 OA
ATOM     10  C   UNL d   1     -47.539  29.420  36.032  0.00  0.00     0.003 A 
ATOM     11  C   UNL d   1     -48.249  28.495  35.291  0.00  0.00     0.013 A 
ATOM     12  C   UNL d   1     -48.274  31.781  33.832  0.00  0.00     0.003 A 
ATOM     13  C   UNL d   1     -47.345  32.157  35.161  0.00  0.00     0.003 A 
ATOM     14  C   UNL d   1     -47.811  28.647  35.929  0.00  0.00     0.001 A 
ATOM     15  C   UNL d   1     -48.004  32.526  33.943  0.00  0.00     0.000 A 
ATOM     16  C   UNL d   1     -47.540  32.718  34.607  0.00  0.00     0.000 A 
ENDROOT
BRANCH   5  17
ATOM     17  S   UNL d   1     -48.926  28.819  34.063  0.00  0.00     0.285 S 
ATOM     18  O   UNL d   1     -48.251  28.695  33.629  0.00  0.00    -0.198 OA
ATOM     19  O   UNL d   1     -49.625  28.955  34.536  0.00  0.00    -0.198 OA
BRANCH  17  20
ATOM     20  N   UNL d   1     -49.378  28.607  33.430  0.00  0.00    -0.158 NA
BRANCH  20  21
ATOM     21  C   UNL d   1     -49.764  27.856  33.420  0.00  0.00     0.094 A 
ATOM     22  C   UNL d   1     -49.336  27.167  33.315  0.00  0.00     0.021 A 
ATOM     23  C   UNL d   1     -49.722  26.427  33.306  0.00  0.00     0.021 A 
ATOM     24  C   UNL d   1     -50.566  26.382  33.405  0.00  0.00     0.085 A 
ATOM     25  C   UNL d   1     -50.992  27.099  33.512  0.00  0.00     0.021 A 
ATOM     26  C   UNL d   1     -50.612  27.811  33.520  0.00  0.00     0.021 A 
BRANCH  24  27
ATOM     27  N   UNL d   1     -50.926  25.645  33.393  0.00  0.00    -0.208 NA
ATOM     28  C   UNL d   1     -51.751  25.549  33.350  0.00  0.00     0.279 C 
ATOM     29  O   UNL d   1     -52.224  26.264  33.318  0.00  0.00    -0.265 OA
ATOM     30  C   UNL d   1     -52.145  24.819  33.336  0.00  0.00     0.068 C 
ENDBRANCH  24  27
ENDBRANCH  20  21
ENDBRANCH  17  20
ENDBRANCH   5  17
TORSDOF 4
ENDMDL
MODEL 2
REMARK VINA RESULT:      90.2      3.296      5.058
REMARK  4 active torsions:
REMARK  status: ('A' for Active; 'I' for Inactive)
REMARK    1  A    between atoms: C_6  and  S_1 
REMARK    2  A    between atoms: N_9  and  S_1 
REMARK    3  A    between atoms: C_17  and  N_9 
REMARK       I    between atoms: C_13  and  N_15 
REMARK    4  A    between atoms: N_15  and  C_18 
ROOT
ATOM      1  C   UNL d   1     -50.745  25.725  33.408  0.00  0.00     0.054 A 
ATOM      2  C   UNL d   1     -51.318  26.300  33.412  0.00  0.00     0.196 A 
ATOM      3  C   UNL d   1     -49.968  25.888  33.377  0.00  0.00     0.043 A 
ATOM      4  C   UNL d   1     -49.710  26.652  33.347  0.00  0.00     0.196 A 
ATOM      5  C   UNL d   1     -50.958  24.899  33.439  0.00  0.00     0.108 A 
ATOM      6  C   UNL d   1     -51.087  27.092  33.381  0.00  0.00     0.042 A 
ATOM      7  C   UNL d   1     -50.290  27.258  33.349  0.00  0.00     0.042 A 
ATOM      8  O   UNL d   1     -52.132  26.053  33.446  0.00  0.00    -0.286 OA
ATOM      9  O   UNL d   1     -48.879  26.821  33.314  0.00  0.00    -0.287 OA
ATOM     10  C   UNL d   1     -49.383  25.283  33.374  0.00  0.00     0.003 A 
ATOM     11  C   UNL d   1     -50.386  24.335  33.436  0.00  0.00     0.013 A 
ATOM     12  C   UNL d   1     -51.642  27.703  33.383  0.00  0.00     0.003 A 
ATOM     13  C   UNL d   1     -50.023  28.089  33.317  0.00  0.00     0.003 A 
ATOM     14  C   UNL d   1     -49.613  24.491  33.405  0.00  0.00     0.001 A 
ATOM     15  C   UNL d   1     -51.406  28.468  33.353  0.00  0.00     0.000 A 
ATOM     16  C   UNL d   1     -50.597  28.664  33.320  0.00  0.00     0.000 A 
ENDROOT
BRANCH   5  17
ATOM     17  S   UNL d   1     -51.785  24.667  33.474  0.00  0.00     0.285 S 
ATOM     18  O   UNL d   1     -51.573  23.900  33.306  0.00  0.00    -0.198 OA
ATOM     19  O   UNL d   1     -51.990  25.477  33.649  0.00  0.00    -0.198 OA
BRANCH  17  20
ATOM     20  N   UNL d   1     -52.562  24.449  33.507  0.00  0.00    -0.158 NA
BRANCH  20  21
ATOM     21  C   UNL d   1     -52.905  24.222  34.243  0.00  0.00     0.094 A 
ATOM     22  C   UNL d   1     -52.980  24.761  34.854  0.00  0.00     0.021 A 
ATOM     23  C   UNL d   1     -53.321  24.531  35.581  0.00  0.00     0.021 A 
ATOM     24  C   UNL d   1     -53.594  23.733  35.693  0.00  0.00     0.085 A 
ATOM     25  C   UNL d   1     -53.510  23.191  35.057  0.00  0.00     0.021 A 
ATOM     26  C   UNL d   1     -53.180  23.420  34.356  0.00  0.00     0.021 A 
BRANCH  24  27
ATOM     27  N   UNL d   1     -53.926  23.527  36.415  0.00  0.00    -0.208 NA
ATOM     28  C   UNL d   1     -53.473  23.417  37.103  0.00  0.00     0.279 C 
ATOM     29  O   UNL d   1     -52.624  23.529  37.032  0.00  0.00    -0.265 OA
ATOM     30  C   UNL d   1     -53.777  23.209  37.846  0.00  0.00     0.068 C 
ENDBRANCH  24  27
ENDBRANCH  20  21
ENDBRANCH  17  20
ENDBRANCH   5  17
TORSDOF 4
ENDMDL
