MODEL 1
REMARK VINA RESULT:      -1.9      0.000      0.000
REMARK  2 active torsions:
REMARK  status: ('A' for Active; 'I' for Inactive)
REMARK    1  A    between atoms: C_10  and  C_4 
REMARK       I    between atoms: N_12  and  C_10 
REMARK       I    between atoms: C_11  and  N_13 
REMARK    2  A    between atoms: C_14  and  C_11 
ROOT
ATOM      1  C   UNL d   1      32.372  18.458 -24.257  0.00  0.00     0.154 A 
ATOM      2  C   UNL d   1      32.713  18.255 -23.536  0.00  0.00     0.093 A 
ATOM      3  N   UNL d   1      32.043  17.865 -24.741  0.00  0.00    -0.211 NA
ATOM      4  C   UNL d   1      32.819  19.578 -23.685  0.00  0.00     0.122 A 
ATOM      5  N   UNL d   1      32.437  19.272 -24.349  0.00  0.00    -0.285 N 
ATOM      6  C   UNL d   1      32.730  17.464 -23.290  0.00  0.00     0.269 A 
ATOM      7  N   UNL d   1      32.407  16.877 -23.765  0.00  0.00    -0.259 N 
ATOM      8  C   UNL d   1      32.059  17.076 -24.499  0.00  0.00     0.140 A 
ATOM      9  C   UNL d   1      32.987  18.944 -23.185  0.00  0.00     0.030 A 
ATOM     10  C   UNL d   1      32.422  16.088 -23.524  0.00  0.00     0.084 A 
ATOM     11  O   UNL d   1      33.074  17.263 -22.564  0.00  0.00    -0.266 OA
ATOM     12  C   UNL d   1      31.737  16.497 -24.973  0.00  0.00     0.064 A 
ATOM     13  C   UNL d   1      32.096  15.507 -24.005  0.00  0.00     0.018 A 
ATOM     14  C   UNL d   1      31.750  15.714 -24.737  0.00  0.00    -0.008 A 
ATOM     15  C   UNL d   1      32.165  19.709 -24.999  0.00  0.00     0.101 C 
ENDROOT
BRANCH   4  16
ATOM     16  C   UNL d   1      32.999  20.374 -23.546  0.00  0.00     0.281 C 
ATOM     17  N   UNL d   1      32.936  20.681 -22.784  0.00  0.00    -0.268 N 
ATOM     18  C   UNL d   1      33.116  21.477 -22.645  0.00  0.00     0.102 A 
ATOM     19  C   UNL d   1      32.694  20.201 -22.160  0.00  0.00     0.102 A 
ATOM     20  C   UNL d   1      33.054  21.792 -21.881  0.00  0.00     0.102 A 
ATOM     21  N   UNL d   1      32.812  21.308 -21.263  0.00  0.00    -0.267 N 
ATOM     22  C   UNL d   1      32.750  21.619 -20.500  0.00  0.00     0.288 C 
ATOM     23  C   UNL d   1      32.634  20.513 -21.414  0.00  0.00     0.102 A 
ATOM     24  O   UNL d   1      32.508  21.135 -19.881  0.00  0.00    -0.264 OA
ATOM     25  O   UNL d   1      33.241  20.854 -24.169  0.00  0.00    -0.265 OA
BRANCH  22  26
ATOM     26  C   UNL d   1      32.933  22.416 -20.373  0.00  0.00     0.156 A 
ATOM     27  O   UNL d   1      32.999  22.991 -20.962  0.00  0.00    -0.300 OA
ATOM     28  C   UNL d   1      33.186  23.702 -20.608  0.00  0.00     0.123 A 
ATOM     29  C   UNL d   1      33.240  23.583 -19.791  0.00  0.00     0.029 A 
ATOM     30  C   UNL d   1      33.083  22.785 -19.652  0.00  0.00     0.032 A 
ENDBRANCH  22  26
ENDBRANCH   4  16
TORSDOF 2
ENDMDL
