MODEL 1
REMARK VINA RESULT:      -4.5      0.000      0.000
REMARK  6 active torsions:
REMARK  status: ('A' for Active; 'I' for Inactive)
REMARK    1  A    between atoms: O_8  and  S_1 
REMARK    2  A    between atoms: C_9  and  S_1 
REMARK    3  A    between atoms: C_7  and  C_2 
REMARK    4  A    between atoms: C_20  and  C_7 
REMARK    5  A    between atoms: C_14  and  O_8 
REMARK    6  A    between atoms: O_24  and  C_21 
ROOT
ATOM      1  C   UNL d   1     -44.170  12.632  21.849  0.00  0.00     0.139 A 
ATOM      2  C   UNL d   1     -45.217  12.655  22.669  0.00  0.00     0.064 A 
ATOM      3  C   UNL d   1     -44.585  12.195  22.414  0.00  0.00     0.220 A 
ATOM      4  C   UNL d   1     -45.199  13.374  22.266  0.00  0.00     0.105 A 
ATOM      5  O   UNL d   1     -44.549  13.359  21.757  0.00  0.00    -0.304 OA
ATOM      6  C   UNL d   1     -45.770  13.936  22.417  0.00  0.00     0.050 A 
ATOM      7  C   UNL d   1     -45.810  12.506  23.221  0.00  0.00     0.007 A 
ATOM      8  C   UNL d   1     -46.363  13.788  22.969  0.00  0.00     0.116 A 
ATOM      9  O   UNL d   1     -44.391  11.436  22.669  0.00  0.00    -0.284 OA
ATOM     10  C   UNL d   1     -46.381  13.075  23.368  0.00  0.00     0.026 A 
ENDROOT
BRANCH   8  11
ATOM     11  O   UNL d   1     -46.937  14.358  23.118  0.00  0.00    -0.227 OA
BRANCH  11  12
ATOM     12  S   UNL d   1     -47.690  14.281  22.791  0.00  0.00     0.304 S 
ATOM     13  O   UNL d   1     -47.895  13.765  23.385  0.00  0.00    -0.193 OA
ATOM     14  O   UNL d   1     -47.495  14.800  22.186  0.00  0.00    -0.193 OA
BRANCH  12  15
ATOM     15  C   UNL d   1     -48.453  14.200  22.464  0.00  0.00     0.111 A 
ATOM     16  C   UNL d   1     -49.096  14.563  22.836  0.00  0.00     0.015 A 
ATOM     17  C   UNL d   1     -49.852  14.483  22.513  0.00  0.00     0.025 A 
ATOM     18  C   UNL d   1     -49.963  14.040  21.819  0.00  0.00     0.094 A 
ATOM     19  C   UNL d   1     -49.310  13.681  21.456  0.00  0.00     0.025 A 
ATOM     20  C   UNL d   1     -48.556  13.763  21.782  0.00  0.00     0.015 A 
BRANCH  18  21
ATOM     21  O   UNL d   1     -50.713  13.963  21.503  0.00  0.00    -0.328 OA
ATOM     22  C   UNL d   1     -51.064  13.223  21.461  0.00  0.00     0.181 C 
ENDBRANCH  18  21
ENDBRANCH  12  15
ENDBRANCH  11  12
ENDBRANCH   8  11
BRANCH   1  23
ATOM     23  C   UNL d   1     -43.495  12.388  21.443  0.00  0.00     0.029 C 
BRANCH  23  24
ATOM     24  C   UNL d   1     -42.854  12.903  21.344  0.00  0.00     0.021 A 
ATOM     25  C   UNL d   1     -42.266  12.924  21.915  0.00  0.00     0.099 A 
ATOM     26  N   UNL d   1     -41.627  13.429  21.830  0.00  0.00    -0.242 NA
ATOM     27  C   UNL d   1     -41.574  13.923  21.159  0.00  0.00     0.099 A 
ATOM     28  C   UNL d   1     -42.170  13.897  20.586  0.00  0.00     0.021 A 
ATOM     29  C   UNL d   1     -42.810  13.383  20.685  0.00  0.00     0.003 A 
ENDBRANCH  23  24
ENDBRANCH   1  23
TORSDOF 6
ENDMDL
MODEL 2
REMARK VINA RESULT:      -3.7      2.366      4.433
REMARK  6 active torsions:
REMARK  status: ('A' for Active; 'I' for Inactive)
REMARK    1  A    between atoms: O_8  and  S_1 
REMARK    2  A    between atoms: C_9  and  S_1 
REMARK    3  A    between atoms: C_7  and  C_2 
REMARK    4  A    between atoms: C_20  and  C_7 
REMARK    5  A    between atoms: C_14  and  O_8 
REMARK    6  A    between atoms: O_24  and  C_21 
ROOT
ATOM      1  C   UNL d   1     -40.845  14.755  20.003  0.00  0.00     0.139 A 
ATOM      2  C   UNL d   1     -41.312  14.029  21.014  0.00  0.00     0.064 A 
ATOM      3  C   UNL d   1     -40.752  14.594  20.807  0.00  0.00     0.220 A 
ATOM      4  C   UNL d   1     -41.753  13.838  20.344  0.00  0.00     0.105 A 
ATOM      5  O   UNL d   1     -41.463  14.289  19.716  0.00  0.00    -0.304 OA
ATOM      6  C   UNL d   1     -42.351  13.286  20.398  0.00  0.00     0.050 A 
ATOM      7  C   UNL d   1     -41.477  13.664  21.734  0.00  0.00     0.007 A 
ATOM      8  C   UNL d   1     -42.516  12.921  21.117  0.00  0.00     0.116 A 
ATOM      9  O   UNL d   1     -40.194  14.942  21.304  0.00  0.00    -0.284 OA
ATOM     10  C   UNL d   1     -42.079  13.110  21.781  0.00  0.00     0.026 A 
ENDROOT
BRANCH   8  11
ATOM     11  O   UNL d   1     -43.120  12.365  21.166  0.00  0.00    -0.227 OA
BRANCH  11  12
ATOM     12  S   UNL d   1     -43.814  12.544  21.574  0.00  0.00     0.304 S 
ATOM     13  O   UNL d   1     -43.521  12.173  22.236  0.00  0.00    -0.193 OA
ATOM     14  O   UNL d   1     -44.121  12.922  20.913  0.00  0.00    -0.193 OA
BRANCH  12  15
ATOM     15  C   UNL d   1     -44.514  12.723  21.991  0.00  0.00     0.111 A 
ATOM     16  C   UNL d   1     -44.803  12.188  22.551  0.00  0.00     0.015 A 
ATOM     17  C   UNL d   1     -45.496  12.364  22.964  0.00  0.00     0.025 A 
ATOM     18  C   UNL d   1     -45.899  13.076  22.816  0.00  0.00     0.094 A 
ATOM     19  C   UNL d   1     -45.598  13.604  22.252  0.00  0.00     0.025 A 
ATOM     20  C   UNL d   1     -44.906  13.424  21.841  0.00  0.00     0.015 A 
BRANCH  18  21
ATOM     21  O   UNL d   1     -46.584  13.247  23.227  0.00  0.00    -0.328 OA
ATOM     22  C   UNL d   1     -47.314  13.130  22.870  0.00  0.00     0.181 C 
ENDBRANCH  18  21
ENDBRANCH  12  15
ENDBRANCH  11  12
ENDBRANCH   8  11
BRANCH   1  23
ATOM     23  C   UNL d   1     -40.400  15.288  19.558  0.00  0.00     0.029 C 
BRANCH  23  24
ATOM     24  C   UNL d   1     -40.427  15.272  18.730  0.00  0.00     0.021 A 
ATOM     25  C   UNL d   1     -40.915  15.800  18.336  0.00  0.00     0.099 A 
ATOM     26  N   UNL d   1     -40.952  15.795  17.517  0.00  0.00    -0.242 NA
ATOM     27  C   UNL d   1     -40.491  15.250  17.085  0.00  0.00     0.099 A 
ATOM     28  C   UNL d   1     -40.001  14.719  17.487  0.00  0.00     0.021 A 
ATOM     29  C   UNL d   1     -39.974  14.736  18.314  0.00  0.00     0.003 A 
ENDBRANCH  23  24
ENDBRANCH   1  23
TORSDOF 6
ENDMDL
MODEL 3
REMARK VINA RESULT:      -3.6      2.414      5.893
REMARK  6 active torsions:
REMARK  status: ('A' for Active; 'I' for Inactive)
REMARK    1  A    between atoms: O_8  and  S_1 
REMARK    2  A    between atoms: C_9  and  S_1 
REMARK    3  A    between atoms: C_7  and  C_2 
REMARK    4  A    between atoms: C_20  and  C_7 
REMARK    5  A    between atoms: C_14  and  O_8 
REMARK    6  A    between atoms: O_24  and  C_21 
ROOT
ATOM      1  C   UNL d   1     -49.194  13.552  22.091  0.00  0.00     0.139 A 
ATOM      2  C   UNL d   1     -48.115  12.785  21.963  0.00  0.00     0.064 A 
ATOM      3  C   UNL d   1     -48.917  12.836  21.789  0.00  0.00     0.220 A 
ATOM      4  C   UNL d   1     -47.891  13.466  22.371  0.00  0.00     0.105 A 
ATOM      5  O   UNL d   1     -48.562  13.942  22.451  0.00  0.00    -0.304 OA
ATOM      6  C   UNL d   1     -47.118  13.557  22.611  0.00  0.00     0.050 A 
ATOM      7  C   UNL d   1     -47.559  12.201  21.799  0.00  0.00     0.007 A 
ATOM      8  C   UNL d   1     -46.561  12.973  22.447  0.00  0.00     0.116 A 
ATOM      9  O   UNL d   1     -49.372  12.278  21.387  0.00  0.00    -0.284 OA
ATOM     10  C   UNL d   1     -46.783  12.299  22.043  0.00  0.00     0.026 A 
ENDROOT
BRANCH   8  11
ATOM     11  O   UNL d   1     -45.781  13.069  22.691  0.00  0.00    -0.227 OA
BRANCH  11  12
ATOM     12  S   UNL d   1     -45.319  12.409  22.869  0.00  0.00     0.304 S 
ATOM     13  O   UNL d   1     -44.859  12.556  22.215  0.00  0.00    -0.193 OA
ATOM     14  O   UNL d   1     -45.777  12.251  23.532  0.00  0.00    -0.193 OA
BRANCH  12  15
ATOM     15  C   UNL d   1     -44.849  11.743  23.045  0.00  0.00     0.111 A 
ATOM     16  C   UNL d   1     -45.159  11.140  23.518  0.00  0.00     0.015 A 
ATOM     17  C   UNL d   1     -44.695  10.480  23.692  0.00  0.00     0.025 A 
ATOM     18  C   UNL d   1     -43.922  10.424  23.393  0.00  0.00     0.094 A 
ATOM     19  C   UNL d   1     -43.623  11.036  22.919  0.00  0.00     0.025 A 
ATOM     20  C   UNL d   1     -44.090  11.694  22.747  0.00  0.00     0.015 A 
BRANCH  18  21
ATOM     21  O   UNL d   1     -43.465   9.769  23.568  0.00  0.00    -0.328 OA
ATOM     22  C   UNL d   1     -43.805   9.022  23.566  0.00  0.00     0.181 C 
ENDBRANCH  18  21
ENDBRANCH  12  15
ENDBRANCH  11  12
ENDBRANCH   8  11
BRANCH   1  23
ATOM     23  C   UNL d   1     -49.968  13.835  22.045  0.00  0.00     0.029 C 
BRANCH  23  24
ATOM     24  C   UNL d   1     -50.212  14.473  22.512  0.00  0.00     0.021 A 
ATOM     25  C   UNL d   1     -50.060  15.237  22.257  0.00  0.00     0.099 A 
ATOM     26  N   UNL d   1     -50.296  15.878  22.709  0.00  0.00    -0.242 NA
ATOM     27  C   UNL d   1     -50.691  15.752  23.433  0.00  0.00     0.099 A 
ATOM     28  C   UNL d   1     -50.842  14.979  23.686  0.00  0.00     0.021 A 
ATOM     29  C   UNL d   1     -50.598  14.342  23.219  0.00  0.00     0.003 A 
ENDBRANCH  23  24
ENDBRANCH   1  23
TORSDOF 6
ENDMDL
MODEL 4
REMARK VINA RESULT:      -3.5      3.001      6.575
REMARK  6 active torsions:
REMARK  status: ('A' for Active; 'I' for Inactive)
REMARK    1  A    between atoms: O_8  and  S_1 
REMARK    2  A    between atoms: C_9  and  S_1 
REMARK    3  A    between atoms: C_7  and  C_2 
REMARK    4  A    between atoms: C_20  and  C_7 
REMARK    5  A    between atoms: C_14  and  O_8 
REMARK    6  A    between atoms: O_24  and  C_21 
ROOT
ATOM      1  C   UNL d   1     -44.053  12.911  21.621  0.00  0.00     0.139 A 
ATOM      2  C   UNL d   1     -42.725  12.949  21.565  0.00  0.00     0.064 A 
ATOM      3  C   UNL d   1     -43.368  12.465  21.734  0.00  0.00     0.220 A 
ATOM      4  C   UNL d   1     -43.007  13.693  21.348  0.00  0.00     0.105 A 
ATOM      5  O   UNL d   1     -43.831  13.669  21.383  0.00  0.00    -0.304 OA
ATOM      6  C   UNL d   1     -42.479  14.283  21.151  0.00  0.00     0.050 A 
ATOM      7  C   UNL d   1     -41.915  12.804  21.582  0.00  0.00     0.007 A 
ATOM      8  C   UNL d   1     -41.669  14.137  21.168  0.00  0.00     0.116 A 
ATOM      9  O   UNL d   1     -43.343  11.676  21.974  0.00  0.00    -0.284 OA
ATOM     10  C   UNL d   1     -41.390  13.400  21.383  0.00  0.00     0.026 A 
ENDROOT
BRANCH   8  11
ATOM     11  O   UNL d   1     -41.141  14.735  20.968  0.00  0.00    -0.227 OA
BRANCH  11  12
ATOM     12  S   UNL d   1     -40.917  14.843  20.181  0.00  0.00     0.304 S 
ATOM     13  O   UNL d   1     -41.502  15.400  20.091  0.00  0.00    -0.193 OA
ATOM     14  O   UNL d   1     -40.322  14.282  20.260  0.00  0.00    -0.193 OA
BRANCH  12  15
ATOM     15  C   UNL d   1     -40.694  14.956  19.385  0.00  0.00     0.111 A 
ATOM     16  C   UNL d   1     -40.522  14.299  18.914  0.00  0.00     0.015 A 
ATOM     17  C   UNL d   1     -40.301  14.409  18.126  0.00  0.00     0.025 A 
ATOM     18  C   UNL d   1     -40.254  15.176  17.811  0.00  0.00     0.094 A 
ATOM     19  C   UNL d   1     -40.429  15.826  18.294  0.00  0.00     0.025 A 
ATOM     20  C   UNL d   1     -40.649  15.712  19.081  0.00  0.00     0.015 A 
BRANCH  18  21
ATOM     21  O   UNL d   1     -40.035  15.281  17.030  0.00  0.00    -0.328 OA
ATOM     22  C   UNL d   1     -39.273  15.526  16.850  0.00  0.00     0.181 C 
ENDBRANCH  18  21
ENDBRANCH  12  15
ENDBRANCH  11  12
ENDBRANCH   8  11
BRANCH   1  23
ATOM     23  C   UNL d   1     -44.829  12.649  21.727  0.00  0.00     0.029 C 
BRANCH  23  24
ATOM     24  C   UNL d   1     -45.336  13.037  22.253  0.00  0.00     0.021 A 
ATOM     25  C   UNL d   1     -45.452  12.724  23.002  0.00  0.00     0.099 A 
ATOM     26  N   UNL d   1     -45.952  13.099  23.533  0.00  0.00    -0.242 NA
ATOM     27  C   UNL d   1     -46.343  13.800  23.309  0.00  0.00     0.099 A 
ATOM     28  C   UNL d   1     -46.223  14.112  22.553  0.00  0.00     0.021 A 
ATOM     29  C   UNL d   1     -45.716  13.724  22.028  0.00  0.00     0.003 A 
ENDBRANCH  23  24
ENDBRANCH   1  23
TORSDOF 6
ENDMDL
MODEL 5
REMARK VINA RESULT:      -3.4      2.122      5.955
REMARK  6 active torsions:
REMARK  status: ('A' for Active; 'I' for Inactive)
REMARK    1  A    between atoms: O_8  and  S_1 
REMARK    2  A    between atoms: C_9  and  S_1 
REMARK    3  A    between atoms: C_7  and  C_2 
REMARK    4  A    between atoms: C_20  and  C_7 
REMARK    5  A    between atoms: C_14  and  O_8 
REMARK    6  A    between atoms: O_24  and  C_21 
ROOT
ATOM      1  C   UNL d   1     -48.456  13.942  22.233  0.00  0.00     0.139 A 
ATOM      2  C   UNL d   1     -47.180  13.974  22.604  0.00  0.00     0.064 A 
ATOM      3  C   UNL d   1     -47.883  14.400  22.612  0.00  0.00     0.220 A 
ATOM      4  C   UNL d   1     -47.312  13.255  22.222  0.00  0.00     0.105 A 
ATOM      5  O   UNL d   1     -48.105  13.236  21.992  0.00  0.00    -0.304 OA
ATOM      6  C   UNL d   1     -46.699  12.724  22.137  0.00  0.00     0.050 A 
ATOM      7  C   UNL d   1     -46.432  14.153  22.898  0.00  0.00     0.007 A 
ATOM      8  C   UNL d   1     -45.951  12.903  22.432  0.00  0.00     0.116 A 
ATOM      9  O   UNL d   1     -48.004  15.147  22.937  0.00  0.00    -0.284 OA
ATOM     10  C   UNL d   1     -45.820  13.615  22.810  0.00  0.00     0.026 A 
ENDROOT
BRANCH   8  11
ATOM     11  O   UNL d   1     -45.336  12.364  22.344  0.00  0.00    -0.227 OA
BRANCH  11  12
ATOM     12  S   UNL d   1     -44.613  12.609  22.031  0.00  0.00     0.304 S 
ATOM     13  O   UNL d   1     -44.313  12.684  22.783  0.00  0.00    -0.193 OA
ATOM     14  O   UNL d   1     -44.905  12.537  21.267  0.00  0.00    -0.193 OA
BRANCH  12  15
ATOM     15  C   UNL d   1     -43.881  12.857  21.719  0.00  0.00     0.111 A 
ATOM     16  C   UNL d   1     -43.229  12.349  21.754  0.00  0.00     0.015 A 
ATOM     17  C   UNL d   1     -42.504  12.594  21.445  0.00  0.00     0.025 A 
ATOM     18  C   UNL d   1     -42.431  13.347  21.102  0.00  0.00     0.094 A 
ATOM     19  C   UNL d   1     -43.091  13.847  21.073  0.00  0.00     0.025 A 
ATOM     20  C   UNL d   1     -43.815  13.599  21.383  0.00  0.00     0.015 A 
BRANCH  18  21
ATOM     21  O   UNL d   1     -41.711  13.586  20.798  0.00  0.00    -0.328 OA
ATOM     22  C   UNL d   1     -41.332  14.241  21.114  0.00  0.00     0.181 C 
ENDBRANCH  18  21
ENDBRANCH  12  15
ENDBRANCH  11  12
ENDBRANCH   8  11
BRANCH   1  23
ATOM     23  C   UNL d   1     -49.246  14.151  22.113  0.00  0.00     0.029 C 
BRANCH  23  24
ATOM     24  C   UNL d   1     -49.854  13.623  22.304  0.00  0.00     0.021 A 
ATOM     25  C   UNL d   1     -50.158  13.134  21.721  0.00  0.00     0.099 A 
ATOM     26  N   UNL d   1     -50.760  12.607  21.896  0.00  0.00    -0.242 NA
ATOM     27  C   UNL d   1     -51.064  12.569  22.672  0.00  0.00     0.099 A 
ATOM     28  C   UNL d   1     -50.755  13.064  23.257  0.00  0.00     0.021 A 
ATOM     29  C   UNL d   1     -50.147  13.591  23.065  0.00  0.00     0.003 A 
ENDBRANCH  23  24
ENDBRANCH   1  23
TORSDOF 6
ENDMDL
MODEL 6
REMARK VINA RESULT:      -3.4      2.237      5.985
REMARK  6 active torsions:
REMARK  status: ('A' for Active; 'I' for Inactive)
REMARK    1  A    between atoms: O_8  and  S_1 
REMARK    2  A    between atoms: C_9  and  S_1 
REMARK    3  A    between atoms: C_7  and  C_2 
REMARK    4  A    between atoms: C_20  and  C_7 
REMARK    5  A    between atoms: C_14  and  O_8 
REMARK    6  A    between atoms: O_24  and  C_21 
ROOT
ATOM      1  C   UNL d   1     -45.861  12.883  22.854  0.00  0.00     0.139 A 
ATOM      2  C   UNL d   1     -44.690  12.323  22.565  0.00  0.00     0.064 A 
ATOM      3  C   UNL d   1     -45.333  12.288  23.075  0.00  0.00     0.220 A 
ATOM      4  C   UNL d   1     -44.814  12.937  22.027  0.00  0.00     0.105 A 
ATOM      5  O   UNL d   1     -45.542  13.284  22.207  0.00  0.00    -0.304 OA
ATOM      6  C   UNL d   1     -44.254  13.092  21.455  0.00  0.00     0.050 A 
ATOM      7  C   UNL d   1     -44.003  11.871  22.523  0.00  0.00     0.007 A 
ATOM      8  C   UNL d   1     -43.568  12.640  21.413  0.00  0.00     0.116 A 
ATOM      9  O   UNL d   1     -45.442  11.759  23.698  0.00  0.00    -0.284 OA
ATOM     10  C   UNL d   1     -43.445  12.033  21.946  0.00  0.00     0.026 A 
ENDROOT
BRANCH   8  11
ATOM     11  O   UNL d   1     -43.006  12.800  20.834  0.00  0.00    -0.227 OA
BRANCH  11  12
ATOM     12  S   UNL d   1     -42.407  13.349  20.980  0.00  0.00     0.304 S 
ATOM     13  O   UNL d   1     -41.932  12.755  21.267  0.00  0.00    -0.193 OA
ATOM     14  O   UNL d   1     -42.877  13.958  20.693  0.00  0.00    -0.193 OA
BRANCH  12  15
ATOM     15  C   UNL d   1     -41.799  13.900  21.130  0.00  0.00     0.111 A 
ATOM     16  C   UNL d   1     -41.051  13.631  21.354  0.00  0.00     0.015 A 
ATOM     17  C   UNL d   1     -40.449  14.175  21.502  0.00  0.00     0.025 A 
ATOM     18  C   UNL d   1     -40.595  14.989  21.426  0.00  0.00     0.094 A 
ATOM     19  C   UNL d   1     -41.351  15.247  21.200  0.00  0.00     0.025 A 
ATOM     20  C   UNL d   1     -41.950  14.699  21.053  0.00  0.00     0.015 A 
BRANCH  18  21
ATOM     21  O   UNL d   1     -39.997  15.525  21.573  0.00  0.00    -0.328 OA
ATOM     22  C   UNL d   1     -39.294  15.270  21.911  0.00  0.00     0.181 C 
ENDBRANCH  18  21
ENDBRANCH  12  15
ENDBRANCH  11  12
ENDBRANCH   8  11
BRANCH   1  23
ATOM     23  C   UNL d   1     -46.584  13.052  23.214  0.00  0.00     0.029 C 
BRANCH  23  24
ATOM     24  C   UNL d   1     -47.173  13.465  22.802  0.00  0.00     0.021 A 
ATOM     25  C   UNL d   1     -47.234  14.276  22.900  0.00  0.00     0.099 A 
ATOM     26  N   UNL d   1     -47.812  14.697  22.499  0.00  0.00    -0.242 NA
ATOM     27  C   UNL d   1     -48.339  14.297  21.990  0.00  0.00     0.099 A 
ATOM     28  C   UNL d   1     -48.272  13.478  21.896  0.00  0.00     0.021 A 
ATOM     29  C   UNL d   1     -47.684  13.066  22.307  0.00  0.00     0.003 A 
ENDBRANCH  23  24
ENDBRANCH   1  23
TORSDOF 6
ENDMDL
MODEL 7
REMARK VINA RESULT:      -2.5      1.463      2.177
REMARK  6 active torsions:
REMARK  status: ('A' for Active; 'I' for Inactive)
REMARK    1  A    between atoms: O_8  and  S_1 
REMARK    2  A    between atoms: C_9  and  S_1 
REMARK    3  A    between atoms: C_7  and  C_2 
REMARK    4  A    between atoms: C_20  and  C_7 
REMARK    5  A    between atoms: C_14  and  O_8 
REMARK    6  A    between atoms: O_24  and  C_21 
ROOT
ATOM      1  C   UNL d   1     -44.634  12.426  22.503  0.00  0.00     0.139 A 
ATOM      2  C   UNL d   1     -45.400  13.513  22.467  0.00  0.00     0.064 A 
ATOM      3  C   UNL d   1     -44.689  13.194  22.204  0.00  0.00     0.220 A 
ATOM      4  C   UNL d   1     -45.786  12.949  22.929  0.00  0.00     0.105 A 
ATOM      5  O   UNL d   1     -45.310  12.275  22.950  0.00  0.00    -0.304 OA
ATOM      6  C   UNL d   1     -46.509  13.125  23.261  0.00  0.00     0.050 A 
ATOM      7  C   UNL d   1     -45.744  14.250  22.343  0.00  0.00     0.007 A 
ATOM      8  C   UNL d   1     -46.854  13.863  23.137  0.00  0.00     0.116 A 
ATOM      9  O   UNL d   1     -44.128  13.564  21.727  0.00  0.00    -0.284 OA
ATOM     10  C   UNL d   1     -46.471  14.422  22.680  0.00  0.00     0.026 A 
ENDROOT
BRANCH   8  11
ATOM     11  O   UNL d   1     -47.584  14.037  23.475  0.00  0.00    -0.227 OA
BRANCH  11  12
ATOM     12  S   UNL d   1     -48.279  13.851  23.072  0.00  0.00     0.304 S 
ATOM     13  O   UNL d   1     -48.287  14.594  22.742  0.00  0.00    -0.193 OA
ATOM     14  O   UNL d   1     -48.283  13.098  23.399  0.00  0.00    -0.193 OA
BRANCH  12  15
ATOM     15  C   UNL d   1     -48.983  13.668  22.664  0.00  0.00     0.111 A 
ATOM     16  C   UNL d   1     -49.385  14.265  22.256  0.00  0.00     0.015 A 
ATOM     17  C   UNL d   1     -50.081  14.085  21.851  0.00  0.00     0.025 A 
ATOM     18  C   UNL d   1     -50.375  13.308  21.854  0.00  0.00     0.094 A 
ATOM     19  C   UNL d   1     -49.963  12.719  22.267  0.00  0.00     0.025 A 
ATOM     20  C   UNL d   1     -49.267  12.903  22.671  0.00  0.00     0.015 A 
BRANCH  18  21
ATOM     21  O   UNL d   1     -51.065  13.133  21.452  0.00  0.00    -0.328 OA
ATOM     22  C   UNL d   1     -51.063  13.106  20.632  0.00  0.00     0.181 C 
ENDBRANCH  18  21
ENDBRANCH  12  15
ENDBRANCH  11  12
ENDBRANCH   8  11
BRANCH   1  23
ATOM     23  C   UNL d   1     -44.012  11.899  22.379  0.00  0.00     0.029 C 
BRANCH  23  24
ATOM     24  C   UNL d   1     -43.959  11.200  22.820  0.00  0.00     0.021 A 
ATOM     25  C   UNL d   1     -43.235  10.980  23.136  0.00  0.00     0.099 A 
ATOM     26  N   UNL d   1     -43.168  10.291  23.574  0.00  0.00    -0.242 NA
ATOM     27  C   UNL d   1     -43.839   9.812  23.698  0.00  0.00     0.099 A 
ATOM     28  C   UNL d   1     -44.567  10.038  23.377  0.00  0.00     0.021 A 
ATOM     29  C   UNL d   1     -44.620  10.736  22.937  0.00  0.00     0.003 A 
ENDBRANCH  23  24
ENDBRANCH   1  23
TORSDOF 6
ENDMDL
MODEL 8
REMARK VINA RESULT:      -1.6      3.687      6.174
REMARK  6 active torsions:
REMARK  status: ('A' for Active; 'I' for Inactive)
REMARK    1  A    between atoms: O_8  and  S_1 
REMARK    2  A    between atoms: C_9  and  S_1 
REMARK    3  A    between atoms: C_7  and  C_2 
REMARK    4  A    between atoms: C_20  and  C_7 
REMARK    5  A    between atoms: C_14  and  O_8 
REMARK    6  A    between atoms: O_24  and  C_21 
ROOT
ATOM      1  C   UNL d   1     -40.346  14.467  17.676  0.00  0.00     0.139 A 
ATOM      2  C   UNL d   1     -40.691  15.073  18.809  0.00  0.00     0.064 A 
ATOM      3  C   UNL d   1     -40.521  15.199  18.015  0.00  0.00     0.220 A 
ATOM      4  C   UNL d   1     -40.622  14.266  18.967  0.00  0.00     0.105 A 
ATOM      5  O   UNL d   1     -40.408  13.891  18.264  0.00  0.00    -0.304 OA
ATOM      6  C   UNL d   1     -40.762  13.989  19.721  0.00  0.00     0.050 A 
ATOM      7  C   UNL d   1     -40.900  15.594  19.411  0.00  0.00     0.007 A 
ATOM      8  C   UNL d   1     -40.972  14.511  20.323  0.00  0.00     0.116 A 
ATOM      9  O   UNL d   1     -40.523  15.922  17.618  0.00  0.00    -0.284 OA
ATOM     10  C   UNL d   1     -41.040  15.310  20.166  0.00  0.00     0.026 A 
ENDROOT
BRANCH   8  11
ATOM     11  O   UNL d   1     -41.112  14.226  21.082  0.00  0.00    -0.227 OA
BRANCH  11  12
ATOM     12  S   UNL d   1     -41.827  13.854  21.258  0.00  0.00     0.304 S 
ATOM     13  O   UNL d   1     -41.436  13.149  21.358  0.00  0.00    -0.193 OA
ATOM     14  O   UNL d   1     -42.234  14.561  21.159  0.00  0.00    -0.193 OA
BRANCH  12  15
ATOM     15  C   UNL d   1     -42.548  13.474  21.437  0.00  0.00     0.111 A 
ATOM     16  C   UNL d   1     -43.242  13.920  21.488  0.00  0.00     0.015 A 
ATOM     17  C   UNL d   1     -43.955  13.544  21.664  0.00  0.00     0.025 A 
ATOM     18  C   UNL d   1     -43.974  12.723  21.790  0.00  0.00     0.094 A 
ATOM     19  C   UNL d   1     -43.270  12.288  21.736  0.00  0.00     0.025 A 
ATOM     20  C   UNL d   1     -42.559  12.667  21.559  0.00  0.00     0.015 A 
BRANCH  18  21
ATOM     21  O   UNL d   1     -44.682  12.355  21.965  0.00  0.00    -0.328 OA
ATOM     22  C   UNL d   1     -45.387  12.768  21.886  0.00  0.00     0.181 C 
ENDBRANCH  18  21
ENDBRANCH  12  15
ENDBRANCH  11  12
ENDBRANCH   8  11
BRANCH   1  23
ATOM     23  C   UNL d   1     -40.143  14.329  16.889  0.00  0.00     0.029 C 
BRANCH  23  24
ATOM     24  C   UNL d   1     -39.407  14.004  16.694  0.00  0.00     0.021 A 
ATOM     25  C   UNL d   1     -38.879  14.448  16.251  0.00  0.00     0.099 A 
ATOM     26  N   UNL d   1     -38.147  14.139  16.051  0.00  0.00    -0.242 NA
ATOM     27  C   UNL d   1     -37.940  13.370  16.299  0.00  0.00     0.099 A 
ATOM     28  C   UNL d   1     -38.476  12.926  16.746  0.00  0.00     0.021 A 
ATOM     29  C   UNL d   1     -39.212  13.251  16.940  0.00  0.00     0.003 A 
ENDBRANCH  23  24
ENDBRANCH   1  23
TORSDOF 6
ENDMDL
