MODEL 1
REMARK VINA RESULT:      21.9      0.000      0.000
REMARK  6 active torsions:
REMARK  status: ('A' for Active; 'I' for Inactive)
REMARK    1  A    between atoms: N_13  and  C_2 
REMARK    2  A    between atoms: C_22  and  C_5 
REMARK    3  A    between atoms: C_23  and  C_6 
REMARK    4  A    between atoms: C_7  and  S_17 
REMARK       I    between atoms: C_16  and  N_13 
REMARK    5  A    between atoms: C_25  and  C_16 
REMARK    6  A    between atoms: S_17  and  C_25 
ROOT
ATOM      1  C   UNL d   1     -42.226-122.997 -49.644  0.00  0.00     0.092 A 
ATOM      2  C   UNL d   1     -43.481-122.334 -49.772  0.00  0.00     0.057 A 
ATOM      3  C   UNL d   1     -42.937-122.738 -49.311  0.00  0.00     0.016 A 
ATOM      4  C   UNL d   1     -42.068-122.848 -50.435  0.00  0.00     0.120 A 
ATOM      5  N   UNL d   1     -42.613-122.442 -50.902  0.00  0.00    -0.239 NA
ATOM      6  C   UNL d   1     -43.323-122.183 -50.569  0.00  0.00     0.081 A 
ATOM      7  C   UNL d   1     -44.186-122.079 -49.434  0.00  0.00     0.193 A 
ATOM      8  C   UNL d   1     -41.681-123.404 -49.176  0.00  0.00     0.103 C 
ATOM      9  N   UNL d   1     -41.129-123.811 -48.719  0.00  0.00    -0.191 NA
ATOM     10  C   UNL d   1     -44.580-121.517 -50.700  0.00  0.00     0.042 A 
ATOM     11  C   UNL d   1     -44.746-121.666 -49.899  0.00  0.00     0.019 A 
ATOM     12  C   UNL d   1     -43.867-121.777 -51.037  0.00  0.00    -0.003 A 
ATOM     13  O   UNL d   1     -44.349-122.228 -48.636  0.00  0.00    -0.287 OA
ATOM     14  C   UNL d   1     -44.629-121.268 -51.483  0.00  0.00     0.009 C 
ATOM     15  C   UNL d   1     -45.293-121.260 -50.358  0.00  0.00     0.009 C 
ENDROOT
BRANCH   4  16
ATOM     16  S   UNL d   1     -41.358-123.107 -50.768  0.00  0.00    -0.062 SA
BRANCH  16  17
ATOM     17  C   UNL d   1     -41.365-123.628 -51.410  0.00  0.00     0.100 C 
BRANCH  17  18
ATOM     18  C   UNL d   1     -41.356-123.329 -52.180  0.00  0.00     0.302 C 
ATOM     19  N   UNL d   1     -41.551-123.810 -52.813  0.00  0.00    -0.018 NA
ATOM     20  O   UNL d   1     -41.149-122.546 -52.313  0.00  0.00    -0.264 OA
BRANCH  19  21
ATOM     21  C   UNL d   1     -41.541-123.506 -53.594  0.00  0.00     0.760 A 
ATOM     22  N   UNL d   1     -41.951-122.845 -53.861  0.00  0.00    -0.051 NA
ATOM     23  C   UNL d   1     -41.781-122.751 -54.656  0.00  0.00     0.147 A 
ATOM     24  S   UNL d   1     -41.271-123.349 -54.877  0.00  0.00     0.052 SA
ATOM     25  N   UNL d   1     -41.123-123.817 -54.217  0.00  0.00    -0.019 NA
BRANCH  23  26
ATOM     26  C   UNL d   1     -42.054-122.171 -55.176  0.00  0.00     0.026 A 
ATOM     27  C   UNL d   1     -42.864-122.043 -55.261  0.00  0.00     0.002 A 
ATOM     28  C   UNL d   1     -43.136-121.460 -55.783  0.00  0.00     0.000 A 
ATOM     29  C   UNL d   1     -42.609-121.010 -56.217  0.00  0.00     0.000 A 
ATOM     30  C   UNL d   1     -41.800-121.137 -56.133  0.00  0.00     0.000 A 
ATOM     31  C   UNL d   1     -41.519-121.722 -55.609  0.00  0.00     0.002 A 
ENDBRANCH  23  26
ENDBRANCH  19  21
ENDBRANCH  17  18
ENDBRANCH  16  17
ENDBRANCH   4  16
BRANCH   3  32
ATOM     32  C   UNL d   1     -43.094-122.888 -48.520  0.00  0.00     0.001 A 
ATOM     33  C   UNL d   1     -43.368-123.633 -48.289  0.00  0.00     0.000 A 
ATOM     34  C   UNL d   1     -43.525-123.783 -47.498  0.00  0.00     0.000 A 
ATOM     35  C   UNL d   1     -43.413-123.198 -46.929  0.00  0.00     0.000 A 
ATOM     36  C   UNL d   1     -43.139-122.453 -47.159  0.00  0.00     0.000 A 
ATOM     37  C   UNL d   1     -42.979-122.297 -47.956  0.00  0.00     0.000 A 
ENDBRANCH   3  32
TORSDOF 6
ENDMDL
