MODEL 1
REMARK VINA RESULT:      43.5      0.000      0.000
REMARK  4 active torsions:
REMARK  status: ('A' for Active; 'I' for Inactive)
REMARK    1  A    between atoms: C_2  and  C_1 
REMARK    2  A    between atoms: C_11  and  N_5 
REMARK    3  A    between atoms: C_14  and  C_11 
REMARK    4  A    between atoms: C_17  and  C_14 
ROOT
ATOM      1  C   UNL d   1     -56.465 -99.790 -44.516  0.00  0.00     0.112 A 
ATOM      2  C   UNL d   1     -56.115-100.443 -44.174  0.00  0.00     0.176 A 
ATOM      3  N   UNL d   1     -55.340-100.501 -44.471  0.00  0.00    -0.285 N 
ATOM      4  C   UNL d   1     -55.919 -99.440 -45.022  0.00  0.00     0.219 A 
ATOM      5  C   UNL d   1     -55.229 -99.885 -44.988  0.00  0.00     0.124 A 
ATOM      6  O   UNL d   1     -56.033 -98.768 -45.482  0.00  0.00    -0.285 OA
ATOM      7  N   UNL d   1     -56.466-100.964 -43.624  0.00  0.00    -0.128 N 
ENDROOT
BRANCH   1   8
ATOM      8  C   UNL d   1     -57.243 -99.551 -44.355  0.00  0.00     0.169 A 
ATOM      9  N   UNL d   1     -57.635 -99.401 -43.648  0.00  0.00    -0.225 NA
ATOM     10  C   UNL d   1     -58.408 -99.179 -43.831  0.00  0.00     0.101 A 
ATOM     11  C   UNL d   1     -59.046 -98.967 -43.357  0.00  0.00     0.021 A 
ATOM     12  C   UNL d   1     -58.489 -99.194 -44.653  0.00  0.00     0.101 A 
ATOM     13  C   UNL d   1     -59.770 -98.768 -43.703  0.00  0.00     0.002 A 
ATOM     14  C   UNL d   1     -59.852 -98.782 -44.525  0.00  0.00     0.002 A 
ATOM     15  C   UNL d   1     -59.209 -98.996 -45.000  0.00  0.00     0.021 A 
ATOM     16  N   UNL d   1     -57.766 -99.424 -44.971  0.00  0.00    -0.225 NA
ENDBRANCH   1   8
BRANCH   3  17
ATOM     17  C   UNL d   1     -54.785-101.081 -44.276  0.00  0.00     0.082 C 
BRANCH  17  18
ATOM     18  C   UNL d   1     -54.713-101.340 -43.496  0.00  0.00     0.019 C 
BRANCH  18  19
ATOM     19  C   UNL d   1     -54.800-102.137 -43.314  0.00  0.00     0.002 C 
ATOM     20  C   UNL d   1     -54.787-102.706 -43.913  0.00  0.00     0.000 C 
ATOM     21  C   UNL d   1     -54.901-102.371 -42.527  0.00  0.00     0.000 C 
ENDBRANCH  18  19
ENDBRANCH  17  18
ENDBRANCH   3  17
TORSDOF 4
ENDMDL
