MODEL 1
REMARK VINA RESULT:      83.7      0.000      0.000
REMARK  2 active torsions:
REMARK  status: ('A' for Active; 'I' for Inactive)
REMARK    1  A    between atoms: C_6  and  C_1 
REMARK       I    between atoms: N_10  and  C_6 
REMARK    2  A    between atoms: C_12  and  N_10 
ROOT
ATOM      1  C   UNL d   1     -49.898  26.926  33.864  0.00  0.00     0.108 A 
ATOM      2  C   UNL d   1     -50.313  25.681  33.680  0.00  0.00     0.044 A 
ATOM      3  C   UNL d   1     -50.979  26.173  33.746  0.00  0.00     0.112 A 
ATOM      4  S   UNL d   1     -50.709  26.944  33.860  0.00  0.00    -0.061 SA
ATOM      5  C   UNL d   1     -49.639  26.153  33.754  0.00  0.00     0.116 A 
ATOM      6  N   UNL d   1     -51.738  25.838  33.692  0.00  0.00    -0.239 NA
ATOM      7  C   UNL d   1     -51.169  24.545  33.509  0.00  0.00     0.056 A 
ATOM      8  C   UNL d   1     -51.835  25.037  33.575  0.00  0.00     0.081 A 
ATOM      9  C   UNL d   1     -50.416  24.861  33.561  0.00  0.00     0.008 A 
ATOM     10  C   UNL d   1     -51.261  23.740  33.392  0.00  0.00     0.193 A 
ATOM     11  C   UNL d   1     -52.692  23.900  33.403  0.00  0.00     0.042 A 
ATOM     12  C   UNL d   1     -52.583  24.717  33.522  0.00  0.00    -0.003 A 
ATOM     13  C   UNL d   1     -52.026  23.408  33.337  0.00  0.00     0.019 A 
ATOM     14  O   UNL d   1     -50.589  23.244  33.325  0.00  0.00    -0.287 OA
ATOM     15  N   UNL d   1     -48.838  25.892  33.723  0.00  0.00    -0.147 N 
ATOM     16  C   UNL d   1     -53.497  24.002  33.411  0.00  0.00     0.009 C 
ATOM     17  C   UNL d   1     -53.288  23.338  33.317  0.00  0.00     0.009 C 
ENDROOT
BRANCH   1  18
ATOM     18  C   UNL d   1     -49.421  27.592  33.965  0.00  0.00     0.287 C 
ATOM     19  N   UNL d   1     -49.294  27.920  34.716  0.00  0.00    -0.208 NA
ATOM     20  O   UNL d   1     -49.070  27.929  33.307  0.00  0.00    -0.265 OA
BRANCH  19  21
ATOM     21  C   UNL d   1     -48.821  28.580  34.815  0.00  0.00     0.085 A 
ATOM     22  C   UNL d   1     -48.270  28.626  35.427  0.00  0.00     0.018 A 
ATOM     23  C   UNL d   1     -47.801  29.281  35.525  0.00  0.00     0.002 A 
ATOM     24  C   UNL d   1     -48.184  27.993  35.965  0.00  0.00     0.002 C 
ATOM     25  C   UNL d   1     -47.891  29.917  34.982  0.00  0.00     0.000 A 
ATOM     26  C   UNL d   1     -48.439  29.868  34.375  0.00  0.00     0.002 A 
ATOM     27  C   UNL d   1     -47.437  30.604  35.041  0.00  0.00     0.000 C 
ATOM     28  C   UNL d   1     -48.899  29.206  34.292  0.00  0.00     0.018 A 
ATOM     29  C   UNL d   1     -49.463  29.154  33.669  0.00  0.00     0.002 C 
ENDBRANCH  19  21
ENDBRANCH   1  18
TORSDOF 2
ENDMDL
