MODEL 1
REMARK VINA RESULT:      55.8      0.000      0.000
REMARK  4 active torsions:
REMARK  status: ('A' for Active; 'I' for Inactive)
REMARK    1  A    between atoms: C_6  and  C_1 
REMARK    2  A    between atoms: C_8  and  N_3 
REMARK       I    between atoms: N_7  and  C_6 
REMARK    3  A    between atoms: C_9  and  N_7 
REMARK    4  A    between atoms: O_19  and  C_16 
ROOT
ATOM      1  C   UNL d   1     -50.386  26.279  33.862  0.00  0.00     0.199 A 
ATOM      2  C   UNL d   1     -50.213  26.847  34.432  0.00  0.00     0.211 A 
ATOM      3  N   UNL d   1     -49.494  27.198  34.238  0.00  0.00    -0.191 N 
ATOM      4  N   UNL d   1     -49.220  26.845  33.542  0.00  0.00    -0.058 NA
ATOM      5  N   UNL d   1     -49.765  26.278  33.306  0.00  0.00    -0.122 NA
ATOM      6  N   UNL d   1     -50.681  27.030  35.084  0.00  0.00    -0.125 N 
ENDROOT
BRANCH   1   7
ATOM      7  C   UNL d   1     -51.056  25.795  33.842  0.00  0.00     0.302 C 
ATOM      8  N   UNL d   1     -51.033  25.081  33.419  0.00  0.00    -0.204 NA
ATOM      9  O   UNL d   1     -51.742  26.019  34.240  0.00  0.00    -0.263 OA
BRANCH   8  10
ATOM     10  C   UNL d   1     -51.706  24.602  33.404  0.00  0.00     0.112 A 
ATOM     11  C   UNL d   1     -51.620  23.785  33.471  0.00  0.00     0.158 A 
ATOM     12  F   UNL d   1     -50.874  23.452  33.551  0.00  0.00    -0.203 F 
ATOM     13  C   UNL d   1     -52.295  23.297  33.456  0.00  0.00     0.031 A 
ATOM     14  C   UNL d   1     -53.037  23.635  33.375  0.00  0.00     0.002 A 
ATOM     15  C   UNL d   1     -53.122  24.456  33.308  0.00  0.00     0.002 A 
ATOM     16  C   UNL d   1     -52.450  24.936  33.323  0.00  0.00     0.021 A 
ENDBRANCH   8  10
ENDBRANCH   1   7
BRANCH   3  17
ATOM     17  C   UNL d   1     -49.115  27.795  34.661  0.00  0.00     0.086 A 
ATOM     18  C   UNL d   1     -48.993  28.533  34.313  0.00  0.00     0.021 A 
ATOM     19  C   UNL d   1     -48.613  29.130  34.736  0.00  0.00     0.026 A 
ATOM     20  C   UNL d   1     -48.356  28.989  35.508  0.00  0.00     0.094 A 
ATOM     21  C   UNL d   1     -48.478  28.251  35.855  0.00  0.00     0.026 A 
ATOM     22  C   UNL d   1     -48.857  27.654  35.431  0.00  0.00     0.021 A 
BRANCH  20  23
ATOM     23  O   UNL d   1     -47.976  29.586  35.931  0.00  0.00    -0.328 OA
ATOM     24  C   UNL d   1     -47.206  29.806  35.734  0.00  0.00     0.181 C 
ENDBRANCH  20  23
ENDBRANCH   3  17
TORSDOF 4
ENDMDL
