MODEL 1
REMARK VINA RESULT:      52.8      0.000      0.000
REMARK  4 active torsions:
REMARK  status: ('A' for Active; 'I' for Inactive)
REMARK    1  A    between atoms: N_7  and  C_1 
REMARK    2  A    between atoms: C_12  and  N_4 
REMARK    3  A    between atoms: S_6  and  N_7 
REMARK    4  A    between atoms: C_11  and  S_6 
ROOT
ATOM      1  C   UNL d   1     -50.341  26.200  33.321  0.00  0.00     0.169 A 
ATOM      2  C   UNL d   1     -51.104  25.872  33.318  0.00  0.00     0.299 A 
ATOM      3  N   UNL d   1     -50.224  24.868  33.338  0.00  0.00    -0.238 N 
ATOM      4  N   UNL d   1     -51.036  25.062  33.329  0.00  0.00    -0.209 N 
ATOM      5  C   UNL d   1     -49.811  25.617  33.332  0.00  0.00     0.105 A 
ATOM      6  O   UNL d   1     -51.825  26.314  33.307  0.00  0.00    -0.263 OA
ATOM      7  C   UNL d   1     -49.900  24.116  33.350  0.00  0.00     0.120 C 
ATOM      8  C   UNL d   1     -48.966  25.724  33.338  0.00  0.00     0.022 C 
ENDROOT
BRANCH   1   9
ATOM      9  N   UNL d   1     -50.142  27.038  33.312  0.00  0.00    -0.152 NA
BRANCH   9  10
ATOM     10  S   UNL d   1     -49.713  27.377  33.927  0.00  0.00     0.285 S 
ATOM     11  O   UNL d   1     -50.129  26.921  34.471  0.00  0.00    -0.198 OA
ATOM     12  O   UNL d   1     -49.281  27.851  33.359  0.00  0.00    -0.198 OA
BRANCH  10  13
ATOM     13  C   UNL d   1     -49.278  27.724  34.533  0.00  0.00     0.105 A 
ATOM     14  C   UNL d   1     -49.220  27.353  35.275  0.00  0.00     0.013 A 
ATOM     15  C   UNL d   1     -48.782  27.696  35.896  0.00  0.00     0.001 A 
ATOM     16  C   UNL d   1     -48.408  28.407  35.761  0.00  0.00     0.000 A 
ATOM     17  C   UNL d   1     -48.462  28.794  35.005  0.00  0.00     0.001 A 
ATOM     18  C   UNL d   1     -48.884  28.462  34.409  0.00  0.00     0.013 A 
ENDBRANCH  10  13
ENDBRANCH   9  10
ENDBRANCH   1   9
BRANCH   4  19
ATOM     19  C   UNL d   1     -51.673  24.536  33.330  0.00  0.00     0.085 A 
ATOM     20  C   UNL d   1     -51.551  23.721  33.306  0.00  0.00     0.019 A 
ATOM     21  C   UNL d   1     -52.193  23.195  33.307  0.00  0.00     0.002 A 
ATOM     22  C   UNL d   1     -52.950  23.480  33.332  0.00  0.00     0.000 A 
ATOM     23  C   UNL d   1     -53.072  24.291  33.357  0.00  0.00     0.002 A 
ATOM     24  C   UNL d   1     -52.441  24.819  33.356  0.00  0.00     0.019 A 
ENDBRANCH   4  19
TORSDOF 4
ENDMDL
