MODEL 1
REMARK VINA RESULT:      -7.6      0.000      0.000
REMARK  6 active torsions:
REMARK  status: ('A' for Active; 'I' for Inactive)
REMARK    1  A    between atoms: C_6  and  C_1 
REMARK    2  A    between atoms: C_8  and  C_6 
REMARK    3  A    between atoms: O_14  and  C_10 
REMARK    4  A    between atoms: C_12  and  C_20 
REMARK    5  A    between atoms: O_21  and  C_12 
REMARK    6  A    between atoms: C_20  and  O_14 
ROOT
ATOM      1  C   UNL d   1     -49.244  13.027  22.774  0.00  0.00     0.141 A 
ATOM      2  C   UNL d   1     -48.032  12.562  23.111  0.00  0.00     0.105 A 
ATOM      3  O   UNL d   1     -48.454  13.248  22.885  0.00  0.00    -0.304 OA
ATOM      4  C   UNL d   1     -48.556  11.932  23.139  0.00  0.00     0.064 A 
ATOM      5  C   UNL d   1     -49.317  12.209  22.930  0.00  0.00     0.220 A 
ATOM      6  C   UNL d   1     -47.232  12.445  23.294  0.00  0.00     0.046 A 
ATOM      7  C   UNL d   1     -48.285  11.177  23.350  0.00  0.00     0.007 A 
ATOM      8  C   UNL d   1     -46.969  11.697  23.503  0.00  0.00     0.102 A 
ATOM      9  O   UNL d   1     -50.008  11.762  22.886  0.00  0.00    -0.284 OA
ATOM     10  C   UNL d   1     -47.493  11.066  23.531  0.00  0.00     0.025 A 
ATOM     11  C   UNL d   1     -46.705  13.080  23.267  0.00  0.00     0.004 C 
ENDROOT
BRANCH   1  12
ATOM     12  C   UNL d   1     -49.863  13.531  22.546  0.00  0.00     0.053 C 
BRANCH  12  13
ATOM     13  C   UNL d   1     -49.907  14.289  22.849  0.00  0.00     0.102 A 
ATOM     14  O   UNL d   1     -49.534  14.953  22.540  0.00  0.00    -0.305 OA
ATOM     15  C   UNL d   1     -49.727  15.600  23.016  0.00  0.00     0.123 A 
ATOM     16  C   UNL d   1     -50.223  15.329  23.623  0.00  0.00     0.029 A 
ATOM     17  C   UNL d   1     -50.330  14.526  23.517  0.00  0.00     0.027 A 
ENDBRANCH  12  13
ENDBRANCH   1  12
BRANCH   8  18
ATOM     18  O   UNL d   1     -46.175  11.578  23.685  0.00  0.00    -0.300 OA
BRANCH  18  19
ATOM     19  C   UNL d   1     -45.847  10.820  23.657  0.00  0.00     0.191 C 
BRANCH  19  20
ATOM     20  C   UNL d   1     -45.025  10.721  23.600  0.00  0.00     0.321 C 
ATOM     21  O   UNL d   1     -44.541  11.370  23.445  0.00  0.00    -0.257 OA
BRANCH  20  22
ATOM     22  O   UNL d   1     -44.693   9.982  23.698  0.00  0.00    -0.294 OA
ATOM     23  C   UNL d   1     -43.880   9.881  23.656  0.00  0.00     0.185 C 
ENDBRANCH  20  22
ENDBRANCH  19  20
ENDBRANCH  18  19
ENDBRANCH   8  18
TORSDOF 6
ENDMDL
MODEL 2
REMARK VINA RESULT:      -7.5      1.594      2.428
REMARK  6 active torsions:
REMARK  status: ('A' for Active; 'I' for Inactive)
REMARK    1  A    between atoms: C_6  and  C_1 
REMARK    2  A    between atoms: C_8  and  C_6 
REMARK    3  A    between atoms: O_14  and  C_10 
REMARK    4  A    between atoms: C_12  and  C_20 
REMARK    5  A    between atoms: O_21  and  C_12 
REMARK    6  A    between atoms: C_20  and  O_14 
ROOT
ATOM      1  C   UNL d   1     -48.825  13.909  23.183  0.00  0.00     0.141 A 
ATOM      2  C   UNL d   1     -47.598  13.396  23.007  0.00  0.00     0.105 A 
ATOM      3  O   UNL d   1     -48.384  13.209  23.223  0.00  0.00    -0.304 OA
ATOM      4  C   UNL d   1     -47.559  14.197  22.836  0.00  0.00     0.064 A 
ATOM      5  C   UNL d   1     -48.319  14.530  22.942  0.00  0.00     0.220 A 
ATOM      6  C   UNL d   1     -46.918  12.925  22.947  0.00  0.00     0.046 A 
ATOM      7  C   UNL d   1     -46.839  14.537  22.604  0.00  0.00     0.007 A 
ATOM      8  C   UNL d   1     -46.208  13.266  22.716  0.00  0.00     0.102 A 
ATOM      9  O   UNL d   1     -48.531  15.318  22.832  0.00  0.00    -0.284 OA
ATOM     10  C   UNL d   1     -46.169  14.067  22.546  0.00  0.00     0.025 A 
ATOM     11  C   UNL d   1     -46.958  12.119  23.118  0.00  0.00     0.004 C 
ENDROOT
BRANCH   1  12
ATOM     12  C   UNL d   1     -49.634  13.985  23.351  0.00  0.00     0.053 C 
BRANCH  12  13
ATOM     13  C   UNL d   1     -50.150  13.378  23.164  0.00  0.00     0.102 A 
ATOM     14  O   UNL d   1     -50.340  13.125  22.406  0.00  0.00    -0.305 OA
ATOM     15  C   UNL d   1     -50.879  12.503  22.471  0.00  0.00     0.123 A 
ATOM     16  C   UNL d   1     -51.022  12.375  23.278  0.00  0.00     0.029 A 
ATOM     17  C   UNL d   1     -50.573  12.913  23.698  0.00  0.00     0.027 A 
ENDBRANCH  12  13
ENDBRANCH   1  12
BRANCH   8  18
ATOM     18  O   UNL d   1     -45.532  12.801  22.656  0.00  0.00    -0.300 OA
BRANCH  18  19
ATOM     19  C   UNL d   1     -44.893  13.048  22.194  0.00  0.00     0.191 C 
BRANCH  19  20
ATOM     20  C   UNL d   1     -44.266  12.528  22.034  0.00  0.00     0.321 C 
ATOM     21  O   UNL d   1     -44.088  11.921  22.564  0.00  0.00    -0.257 OA
BRANCH  20  22
ATOM     22  O   UNL d   1     -43.824  12.615  21.354  0.00  0.00    -0.294 OA
ATOM     23  C   UNL d   1     -43.021  12.777  21.396  0.00  0.00     0.185 C 
ENDBRANCH  20  22
ENDBRANCH  19  20
ENDBRANCH  18  19
ENDBRANCH   8  18
TORSDOF 6
ENDMDL
