MODEL 1
REMARK VINA RESULT:      12.2      0.000      0.000
REMARK  2 active torsions:
REMARK  status: ('A' for Active; 'I' for Inactive)
REMARK    1  A    between atoms: N_8  and  C_7 
REMARK    2  A    between atoms: C_9  and  N_8 
ROOT
ATOM      1  N   UNL d   1      58.322  49.672  51.232  0.00  0.00    -0.245 NA
ENDROOT
BRANCH   1   2
ATOM      2  C   UNL d   1      57.723  49.682  50.674  0.00  0.00     0.093 A 
ATOM      3  C   UNL d   1      56.916  49.683  50.826  0.00  0.00     0.118 A 
ATOM      4  S   UNL d   1      56.526  49.695  50.095  0.00  0.00     0.213 S 
ATOM      5  C   UNL d   1      57.089  49.703  49.498  0.00  0.00     0.100 A 
ATOM      6  O   UNL d   1      56.200  49.708  49.339  0.00  0.00    -0.217 OA
ATOM      7  O   UNL d   1      56.035  49.687  50.752  0.00  0.00    -0.217 OA
ATOM      8  C   UNL d   1      57.831  49.695  49.856  0.00  0.00     0.032 A 
ENDBRANCH   1   2
BRANCH   1   9
ATOM      9  C   UNL d   1      59.110  49.672  50.983  0.00  0.00     0.082 A 
ATOM     10  C   UNL d   1      59.718  49.636  51.540  0.00  0.00     0.030 A 
ATOM     11  C   UNL d   1      60.496  49.636  51.298  0.00  0.00     0.059 A 
ATOM     12 CL   UNL d   1      61.159  49.603  51.775  0.00  0.00    -0.082 Cl
ATOM     13  C   UNL d   1      60.677  49.672  50.493  0.00  0.00     0.011 A 
ATOM     14  C   UNL d   1      60.070  49.708  49.935  0.00  0.00     0.002 A 
ATOM     15  C   UNL d   1      59.280  49.708  50.184  0.00  0.00     0.019 A 
ENDBRANCH   1   9
TORSDOF 2
ENDMDL
MODEL 2
REMARK VINA RESULT:      13.9      2.638      3.622
REMARK  2 active torsions:
REMARK  status: ('A' for Active; 'I' for Inactive)
REMARK    1  A    between atoms: N_8  and  C_7 
REMARK    2  A    between atoms: C_9  and  N_8 
ROOT
ATOM      1  N   UNL d   1      58.864  49.708  49.893  0.00  0.00    -0.245 NA
ENDROOT
BRANCH   1   2
ATOM      2  C   UNL d   1      59.446  49.590  50.456  0.00  0.00     0.093 A 
ATOM      3  C   UNL d   1      60.215  49.336  50.315  0.00  0.00     0.118 A 
ATOM      4  S   UNL d   1      60.602  49.297  51.047  0.00  0.00     0.213 S 
ATOM      5  C   UNL d   1      60.075  49.526  51.634  0.00  0.00     0.100 A 
ATOM      6  O   UNL d   1      60.927  49.281  51.803  0.00  0.00    -0.217 OA
ATOM      7  O   UNL d   1      61.058  49.084  50.401  0.00  0.00    -0.217 OA
ATOM      8  C   UNL d   1      59.359  49.707  51.268  0.00  0.00     0.032 A 
ENDBRANCH   1   2
BRANCH   1   9
ATOM      9  C   UNL d   1      58.069  49.683  50.119  0.00  0.00     0.082 A 
ATOM     10  C   UNL d   1      57.478  49.657  49.544  0.00  0.00     0.030 A 
ATOM     11  C   UNL d   1      56.694  49.632  49.764  0.00  0.00     0.059 A 
ATOM     12 CL   UNL d   1      56.045  49.605  49.267  0.00  0.00    -0.082 Cl
ATOM     13  C   UNL d   1      56.489  49.633  50.564  0.00  0.00     0.011 A 
ATOM     14  C   UNL d   1      57.080  49.659  51.139  0.00  0.00     0.002 A 
ATOM     15  C   UNL d   1      57.876  49.684  50.914  0.00  0.00     0.019 A 
ENDBRANCH   1   9
TORSDOF 2
ENDMDL
