MODEL 1
REMARK VINA RESULT:      16.8      0.000      0.000
REMARK  5 active torsions:
REMARK  status: ('A' for Active; 'I' for Inactive)
REMARK    1  A    between atoms: C_6  and  N_1 
REMARK    2  A    between atoms: C_5  and  C_6 
REMARK       I    between atoms: N_7  and  C_5 
REMARK    3  A    between atoms: C_8  and  N_7 
REMARK    4  A    between atoms: O_19  and  C_9 
REMARK    5  A    between atoms: O_20  and  C_17 
ROOT
ATOM      1  C   UNL d   1      45.883 -16.237  44.156  0.00  0.00     0.297 C 
ATOM      2  N   UNL d   1      46.287 -16.941  44.309  0.00  0.00    -0.205 NA
ATOM      3  O   UNL d   1      45.532 -16.115  43.420  0.00  0.00    -0.264 OA
ENDROOT
BRANCH   1   4
ATOM      4  C   UNL d   1      45.831 -15.659  44.736  0.00  0.00     0.148 C 
BRANCH   4   5
ATOM      5  N   UNL d   1      45.415 -14.961  44.589  0.00  0.00    -0.235 N 
ATOM      6  C   UNL d   1      45.824 -14.283  44.331  0.00  0.00     0.273 A 
ATOM      7  C   UNL d   1      45.408 -13.586  44.184  0.00  0.00     0.086 A 
ATOM      8  O   UNL d   1      46.647 -14.314  44.225  0.00  0.00    -0.266 OA
ATOM      9  C   UNL d   1      45.808 -12.908  43.928  0.00  0.00     0.012 C 
ATOM     10  S   UNL d   1      44.582 -13.567  44.294  0.00  0.00    -0.077 SA
ATOM     11  C   UNL d   1      44.188 -14.237  44.548  0.00  0.00     0.097 A 
ATOM     12  C   UNL d   1      44.604 -14.934  44.695  0.00  0.00     0.274 A 
ATOM     13  O   UNL d   1      44.199 -15.620  44.954  0.00  0.00    -0.266 OA
ENDBRANCH   4   5
ENDBRANCH   1   4
BRANCH   2  14
ATOM     14  C   UNL d   1      46.338 -17.521  43.724  0.00  0.00     0.107 A 
ATOM     15  C   UNL d   1      46.438 -18.303  43.934  0.00  0.00     0.114 A 
ATOM     16  C   UNL d   1      46.490 -18.880  43.368  0.00  0.00     0.050 A 
ATOM     17  C   UNL d   1      46.440 -18.672  42.562  0.00  0.00     0.096 A 
ATOM     18  C   UNL d   1      46.340 -17.889  42.352  0.00  0.00     0.026 A 
ATOM     19  C   UNL d   1      46.288 -17.307  42.945  0.00  0.00     0.023 A 
BRANCH  15  20
ATOM     20  O   UNL d   1      46.490 -18.524  44.744  0.00  0.00    -0.327 OA
ATOM     21  C   UNL d   1      46.424 -19.324  44.955  0.00  0.00     0.181 C 
ENDBRANCH  15  20
BRANCH  17  22
ATOM     22  O   UNL d   1      46.493 -19.268  41.977  0.00  0.00    -0.328 OA
ATOM     23  C   UNL d   1      46.218 -19.131  41.211  0.00  0.00     0.181 C 
ENDBRANCH  17  22
ENDBRANCH   2  14
TORSDOF 5
ENDMDL
