MODEL 1
REMARK VINA RESULT:      28.3      0.000      0.000
REMARK  5 active torsions:
REMARK  status: ('A' for Active; 'I' for Inactive)
REMARK    1  A    between atoms: C_2  and  S_1 
REMARK    2  A    between atoms: N_4  and  S_1 
REMARK    3  A    between atoms: C_11  and  N_4 
REMARK    4  A    between atoms: O_14  and  C_5 
REMARK    5  A    between atoms: O_15  and  C_7 
ROOT
ATOM      1  C   UNL d   1      14.315  13.057  -1.562  0.00  0.00     0.129 A 
ATOM      2  C   UNL d   1      14.148  13.859  -1.668  0.00  0.00     0.040 A 
ATOM      3  C   UNL d   1      14.805  12.823  -0.947  0.00  0.00     0.107 A 
ATOM      4  C   UNL d   1      15.132  13.376  -0.436  0.00  0.00     0.034 A 
ATOM      5  C   UNL d   1      14.473  14.421  -1.158  0.00  0.00     0.101 A 
ATOM      6  C   UNL d   1      14.966  14.178  -0.542  0.00  0.00     0.059 A 
ATOM      7 BR   UNL d   1      15.289  14.747  -0.033  0.00  0.00    -0.047 Br
ENDROOT
BRANCH   1   8
ATOM      8  S   UNL d   1      13.987  12.504  -2.074  0.00  0.00     0.287 S 
ATOM      9  O   UNL d   1      14.722  12.168  -2.198  0.00  0.00    -0.198 OA
ATOM     10  O   UNL d   1      13.244  12.841  -1.951  0.00  0.00    -0.198 OA
BRANCH   8  11
ATOM     11  N   UNL d   1      13.652  11.952  -2.587  0.00  0.00    -0.157 NA
BRANCH  11  12
ATOM     12  C   UNL d   1      13.504  12.158  -3.372  0.00  0.00     0.113 A 
ATOM     13  C   UNL d   1      13.934  11.811  -3.975  0.00  0.00     0.119 A 
ATOM     14  N   UNL d   1      13.786  12.018  -4.760  0.00  0.00    -0.241 NA
ATOM     15  C   UNL d   1      13.199  12.579  -4.941  0.00  0.00     0.099 A 
ATOM     16  C   UNL d   1      12.769  12.926  -4.326  0.00  0.00     0.022 A 
ATOM     17  C   UNL d   1      12.917  12.719  -3.541  0.00  0.00     0.023 A 
ENDBRANCH  11  12
ENDBRANCH   8  11
ENDBRANCH   1   8
BRANCH   3  18
ATOM     18  O   UNL d   1      14.972  12.020  -0.841  0.00  0.00    -0.327 OA
ATOM     19  C   UNL d   1      15.498  11.782  -0.252  0.00  0.00     0.181 C 
ENDBRANCH   3  18
BRANCH   5  20
ATOM     20  O   UNL d   1      14.306  15.224  -1.265  0.00  0.00    -0.328 OA
ATOM     21  C   UNL d   1      14.797  15.688  -1.737  0.00  0.00     0.181 C 
ENDBRANCH   5  20
TORSDOF 5
ENDMDL
MODEL 2
REMARK VINA RESULT:      29.2      2.066      3.663
REMARK  5 active torsions:
REMARK  status: ('A' for Active; 'I' for Inactive)
REMARK    1  A    between atoms: C_2  and  S_1 
REMARK    2  A    between atoms: N_4  and  S_1 
REMARK    3  A    between atoms: C_11  and  N_4 
REMARK    4  A    between atoms: O_14  and  C_5 
REMARK    5  A    between atoms: O_15  and  C_7 
ROOT
ATOM      1  C   UNL d   1      14.458  12.944  -1.335  0.00  0.00     0.129 A 
ATOM      2  C   UNL d   1      14.404  13.335  -2.060  0.00  0.00     0.040 A 
ATOM      3  C   UNL d   1      14.189  12.172  -1.270  0.00  0.00     0.107 A 
ATOM      4  C   UNL d   1      13.867  11.782  -1.917  0.00  0.00     0.034 A 
ATOM      5  C   UNL d   1      14.081  12.950  -2.715  0.00  0.00     0.101 A 
ATOM      6  C   UNL d   1      13.813  12.173  -2.643  0.00  0.00     0.059 A 
ATOM      7 BR   UNL d   1      13.490  11.792  -3.304  0.00  0.00    -0.047 Br
ENDROOT
BRANCH   1   8
ATOM      8  S   UNL d   1      14.780  13.334  -0.688  0.00  0.00     0.287 S 
ATOM      9  O   UNL d   1      14.411  14.029  -0.908  0.00  0.00    -0.198 OA
ATOM     10  O   UNL d   1      15.155  12.634  -0.462  0.00  0.00    -0.198 OA
BRANCH   8  11
ATOM     11  N   UNL d   1      15.108  13.719  -0.035  0.00  0.00    -0.157 NA
BRANCH  11  12
ATOM     12  C   UNL d   1      15.299  14.520  -0.085  0.00  0.00     0.113 A 
ATOM     13  C   UNL d   1      14.708  15.078  -0.179  0.00  0.00     0.119 A 
ATOM     14  N   UNL d   1      14.900  15.878  -0.229  0.00  0.00    -0.241 NA
ATOM     15  C   UNL d   1      15.695  16.122  -0.184  0.00  0.00     0.099 A 
ATOM     16  C   UNL d   1      16.286  15.552  -0.089  0.00  0.00     0.022 A 
ATOM     17  C   UNL d   1      16.094  14.751  -0.039  0.00  0.00     0.023 A 
ENDBRANCH  11  12
ENDBRANCH   8  11
ENDBRANCH   1   8
BRANCH   3  18
ATOM     18  O   UNL d   1      14.244  11.780  -0.544  0.00  0.00    -0.327 OA
ATOM     19  C   UNL d   1      13.605  11.788  -0.021  0.00  0.00     0.181 C 
ENDBRANCH   3  18
BRANCH   5  20
ATOM     20  O   UNL d   1      14.027  13.342  -3.442  0.00  0.00    -0.328 OA
ATOM     21  C   UNL d   1      13.288  13.548  -3.746  0.00  0.00     0.181 C 
ENDBRANCH   5  20
TORSDOF 5
ENDMDL
