MODEL 1
REMARK VINA RESULT:      38.8      0.000      0.000
REMARK  6 active torsions:
REMARK  status: ('A' for Active; 'I' for Inactive)
REMARK    1  A    between atoms: C_13  and  S_1 
REMARK    2  A    between atoms: C_2  and  C_6 
REMARK       I    between atoms: N_3  and  C_2 
REMARK    3  A    between atoms: C_4  and  N_3 
REMARK    4  A    between atoms: N_5  and  C_6 
REMARK       I    between atoms: C_7  and  N_5 
REMARK    5  A    between atoms: C_6  and  C_9 
REMARK    6  A    between atoms: C_9  and  C_13 
ROOT
ATOM      1  C   UNL d   1      14.499  14.436  -2.300  0.00  0.00     0.297 C 
ATOM      2  N   UNL d   1      14.009  13.830  -2.564  0.00  0.00    -0.207 NA
ATOM      3  O   UNL d   1      14.681  15.069  -2.804  0.00  0.00    -0.264 OA
ENDROOT
BRANCH   1   4
ATOM      4  C   UNL d   1      14.811  14.414  -1.530  0.00  0.00     0.143 C 
BRANCH   4   5
ATOM      5  N   UNL d   1      15.108  13.706  -1.228  0.00  0.00    -0.203 NA
ATOM      6  C   UNL d   1      14.835  13.420  -0.506  0.00  0.00     0.280 C 
ATOM      7  O   UNL d   1      14.265  13.840  -0.087  0.00  0.00    -0.265 OA
ATOM      8  C   UNL d   1      15.132  12.712  -0.204  0.00  0.00     0.068 C 
ENDBRANCH   4   5
BRANCH   4   9
ATOM      9  C   UNL d   1      14.824  15.097  -1.070  0.00  0.00     0.036 C 
BRANCH   9  10
ATOM     10  C   UNL d   1      15.479  15.595  -1.094  0.00  0.00     0.096 C 
BRANCH  10  11
ATOM     11  S   UNL d   1      15.403  16.383  -0.866  0.00  0.00     0.192 S 
ATOM     12  O   UNL d   1      15.542  17.161  -0.601  0.00  0.00    -0.222 OA
ATOM     13  O   UNL d   1      16.210  16.213  -0.764  0.00  0.00    -0.222 OA
ATOM     14  C   UNL d   1      14.666  16.749  -0.896  0.00  0.00     0.145 C 
ENDBRANCH  10  11
ENDBRANCH   9  10
ENDBRANCH   4   9
ENDBRANCH   1   4
BRANCH   2  15
ATOM     15  C   UNL d   1      13.699  13.854  -3.331  0.00  0.00     0.085 A 
ATOM     16  C   UNL d   1      13.387  13.167  -3.677  0.00  0.00     0.018 A 
ATOM     17  C   UNL d   1      13.077  13.183  -4.439  0.00  0.00     0.002 A 
ATOM     18  C   UNL d   1      13.391  12.464  -3.245  0.00  0.00     0.002 A 
ATOM     19  C   UNL d   1      12.769  12.507  -4.784  0.00  0.00     0.000 A 
ATOM     20  C   UNL d   1      13.078  13.902  -4.869  0.00  0.00     0.000 A 
ATOM     21  C   UNL d   1      12.770  11.794  -4.353  0.00  0.00     0.000 A 
ATOM     22  C   UNL d   1      13.081  11.779  -3.589  0.00  0.00     0.000 A 
ATOM     23  C   UNL d   1      13.389  14.577  -4.518  0.00  0.00     0.002 A 
ATOM     24  C   UNL d   1      13.696  14.558  -3.760  0.00  0.00     0.019 A 
ENDBRANCH   2  15
TORSDOF 6
ENDMDL
MODEL 2
REMARK VINA RESULT:      40.5      1.177      2.118
REMARK  6 active torsions:
REMARK  status: ('A' for Active; 'I' for Inactive)
REMARK    1  A    between atoms: C_13  and  S_1 
REMARK    2  A    between atoms: C_2  and  C_6 
REMARK       I    between atoms: N_3  and  C_2 
REMARK    3  A    between atoms: C_4  and  N_3 
REMARK    4  A    between atoms: N_5  and  C_6 
REMARK       I    between atoms: C_7  and  N_5 
REMARK    5  A    between atoms: C_6  and  C_9 
REMARK    6  A    between atoms: C_9  and  C_13 
ROOT
ATOM      1  C   UNL d   1      14.401  14.607  -2.202  0.00  0.00     0.297 C 
ATOM      2  N   UNL d   1      14.052  13.915  -2.479  0.00  0.00    -0.207 NA
ATOM      3  O   UNL d   1      14.332  15.308  -2.639  0.00  0.00    -0.264 OA
ENDROOT
BRANCH   1   4
ATOM      4  C   UNL d   1      14.822  14.603  -1.486  0.00  0.00     0.143 C 
BRANCH   4   5
ATOM      5  N   UNL d   1      15.321  15.232  -1.300  0.00  0.00    -0.203 NA
ATOM      6  C   UNL d   1      15.265  15.599  -0.564  0.00  0.00     0.280 C 
ATOM      7  O   UNL d   1      14.711  15.337  -0.016  0.00  0.00    -0.265 OA
ATOM      8  C   UNL d   1      15.765  16.229  -0.379  0.00  0.00     0.068 C 
ENDBRANCH   4   5
BRANCH   4   9
ATOM      9  C   UNL d   1      14.740  13.971  -0.962  0.00  0.00     0.036 C 
BRANCH   9  10
ATOM     10  C   UNL d   1      14.867  13.202  -1.226  0.00  0.00     0.096 C 
BRANCH  10  11
ATOM     11  S   UNL d   1      14.718  12.567  -0.723  0.00  0.00     0.192 S 
ATOM     12  O   UNL d   1      14.785  11.916  -0.207  0.00  0.00    -0.222 OA
ATOM     13  O   UNL d   1      15.546  12.614  -0.758  0.00  0.00    -0.222 OA
ATOM     14  C   UNL d   1      13.941  12.352  -0.556  0.00  0.00     0.145 C 
ENDBRANCH  10  11
ENDBRANCH   9  10
ENDBRANCH   4   9
ENDBRANCH   1   4
BRANCH   2  15
ATOM     15  C   UNL d   1      13.633  13.921  -3.193  0.00  0.00     0.085 A 
ATOM     16  C   UNL d   1      13.410  13.207  -3.553  0.00  0.00     0.018 A 
ATOM     17  C   UNL d   1      12.994  13.205  -4.263  0.00  0.00     0.002 A 
ATOM     18  C   UNL d   1      13.612  12.495  -3.188  0.00  0.00     0.002 A 
ATOM     19  C   UNL d   1      12.772  12.503  -4.621  0.00  0.00     0.000 A 
ATOM     20  C   UNL d   1      12.794  13.935  -4.624  0.00  0.00     0.000 A 
ATOM     21  C   UNL d   1      12.972  11.780  -4.258  0.00  0.00     0.000 A 
ATOM     22  C   UNL d   1      13.390  11.783  -3.546  0.00  0.00     0.000 A 
ATOM     23  C   UNL d   1      13.019  14.636  -4.261  0.00  0.00     0.002 A 
ATOM     24  C   UNL d   1      13.433  14.635  -3.555  0.00  0.00     0.019 A 
ENDBRANCH   2  15
TORSDOF 6
ENDMDL
MODEL 3
REMARK VINA RESULT:      41.1      1.867      3.794
REMARK  6 active torsions:
REMARK  status: ('A' for Active; 'I' for Inactive)
REMARK    1  A    between atoms: C_13  and  S_1 
REMARK    2  A    between atoms: C_2  and  C_6 
REMARK       I    between atoms: N_3  and  C_2 
REMARK    3  A    between atoms: C_4  and  N_3 
REMARK    4  A    between atoms: N_5  and  C_6 
REMARK       I    between atoms: C_7  and  N_5 
REMARK    5  A    between atoms: C_6  and  C_9 
REMARK    6  A    between atoms: C_9  and  C_13 
ROOT
ATOM      1  C   UNL d   1      14.366  13.733  -2.951  0.00  0.00     0.297 C 
ATOM      2  N   UNL d   1      14.060  14.402  -2.581  0.00  0.00    -0.207 NA
ATOM      3  O   UNL d   1      14.967  13.813  -3.517  0.00  0.00    -0.264 OA
ENDROOT
BRANCH   1   4
ATOM      4  C   UNL d   1      14.074  12.980  -2.758  0.00  0.00     0.143 C 
BRANCH   4   5
ATOM      5  N   UNL d   1      13.393  12.697  -3.129  0.00  0.00    -0.203 NA
ATOM      6  C   UNL d   1      13.450  12.100  -3.693  0.00  0.00     0.280 C 
ATOM      7  O   UNL d   1      14.186  11.786  -3.886  0.00  0.00    -0.265 OA
ATOM      8  C   UNL d   1      12.770  11.816  -4.064  0.00  0.00     0.068 C 
ENDBRANCH   4   5
BRANCH   4   9
ATOM      9  C   UNL d   1      14.462  12.517  -2.197  0.00  0.00     0.036 C 
BRANCH   9  10
ATOM     10  C   UNL d   1      14.030  12.151  -1.600  0.00  0.00     0.096 C 
BRANCH  10  11
ATOM     11  S   UNL d   1      14.327  12.135  -0.831  0.00  0.00     0.192 S 
ATOM     12  O   UNL d   1      14.797  12.024  -0.153  0.00  0.00    -0.222 OA
ATOM     13  O   UNL d   1      14.922  11.785  -1.291  0.00  0.00    -0.222 OA
ATOM     14  C   UNL d   1      13.878  12.442  -0.213  0.00  0.00     0.145 C 
ENDBRANCH  10  11
ENDBRANCH   9  10
ENDBRANCH   4   9
ENDBRANCH   1   4
BRANCH   2  15
ATOM     15  C   UNL d   1      14.353  15.151  -2.774  0.00  0.00     0.085 A 
ATOM     16  C   UNL d   1      14.699  15.628  -2.190  0.00  0.00     0.018 A 
ATOM     17  C   UNL d   1      14.992  16.375  -2.375  0.00  0.00     0.002 A 
ATOM     18  C   UNL d   1      14.745  15.344  -1.417  0.00  0.00     0.002 A 
ATOM     19  C   UNL d   1      15.334  16.849  -1.801  0.00  0.00     0.000 A 
ATOM     20  C   UNL d   1      14.939  16.654  -3.163  0.00  0.00     0.000 A 
ATOM     21  C   UNL d   1      15.384  16.568  -1.018  0.00  0.00     0.000 A 
ATOM     22  C   UNL d   1      15.090  15.819  -0.834  0.00  0.00     0.000 A 
ATOM     23  C   UNL d   1      14.595  16.175  -3.735  0.00  0.00     0.002 A 
ATOM     24  C   UNL d   1      14.304  15.432  -3.548  0.00  0.00     0.019 A 
ENDBRANCH   2  15
TORSDOF 6
ENDMDL
