MODEL 1
REMARK VINA RESULT:      -9.1      0.000      0.000
REMARK  1 active torsions:
REMARK  status: ('A' for Active; 'I' for Inactive)
REMARK    1  A    between atoms: C_4  and  C_1 
ROOT
ATOM      1  C   UNL d   1      53.930  32.399  54.031  0.00  0.00     0.036 A 
ATOM      2  C   UNL d   1      54.600  32.788  53.735  0.00  0.00     0.061 A 
ATOM      3  C   UNL d   1      53.708  32.533  54.809  0.00  0.00     0.004 A 
ATOM      4  C   UNL d   1      55.031  33.293  54.204  0.00  0.00     0.023 A 
ATOM      5  C   UNL d   1      54.798  33.421  54.989  0.00  0.00     0.059 A 
ATOM      6 CL   UNL d   1      54.822  32.653  52.957  0.00  0.00    -0.082 Cl
ATOM      7  C   UNL d   1      54.144  33.047  55.292  0.00  0.00     0.011 A 
ATOM      8 CL   UNL d   1      55.238  33.932  55.456  0.00  0.00    -0.082 Cl
ENDROOT
BRANCH   1   9
ATOM      9  C   UNL d   1      53.487  31.885  53.562  0.00  0.00     0.136 A 
ATOM     10  S   UNL d   1      53.455  31.062  53.622  0.00  0.00    -0.024 SA
ATOM     11  C   UNL d   1      52.943  30.774  53.043  0.00  0.00     0.236 A 
ATOM     12  N   UNL d   1      52.748  29.984  52.904  0.00  0.00    -0.118 N 
ATOM     13  N   UNL d   1      52.646  31.429  52.607  0.00  0.00    -0.119 NA
ATOM     14  N   UNL d   1      52.981  32.112  52.926  0.00  0.00    -0.139 NA
ENDBRANCH   1   9
TORSDOF 1
ENDMDL
MODEL 2
REMARK VINA RESULT:      -8.4      1.850      3.172
REMARK  1 active torsions:
REMARK  status: ('A' for Active; 'I' for Inactive)
REMARK    1  A    between atoms: C_4  and  C_1 
ROOT
ATOM      1  C   UNL d   1      53.670  31.668  53.668  0.00  0.00     0.036 A 
ATOM      2  C   UNL d   1      53.021  31.770  53.162  0.00  0.00     0.061 A 
ATOM      3  C   UNL d   1      53.884  30.907  53.885  0.00  0.00     0.004 A 
ATOM      4  C   UNL d   1      52.603  31.131  52.884  0.00  0.00     0.023 A 
ATOM      5  C   UNL d   1      52.828  30.366  53.110  0.00  0.00     0.059 A 
ATOM      6 CL   UNL d   1      52.806  32.533  52.946  0.00  0.00    -0.082 Cl
ATOM      7  C   UNL d   1      53.462  30.251  53.604  0.00  0.00     0.011 A 
ATOM      8 CL   UNL d   1      52.402  29.726  52.825  0.00  0.00    -0.082 Cl
ENDROOT
BRANCH   1   9
ATOM      9  C   UNL d   1      54.099  32.312  53.955  0.00  0.00     0.136 A 
ATOM     10  S   UNL d   1      54.029  32.663  54.699  0.00  0.00    -0.024 SA
ATOM     11  C   UNL d   1      54.564  33.288  54.748  0.00  0.00     0.236 A 
ATOM     12  N   UNL d   1      54.681  33.790  55.392  0.00  0.00    -0.118 N 
ATOM     13  N   UNL d   1      54.982  33.334  54.019  0.00  0.00    -0.119 NA
ATOM     14  N   UNL d   1      54.695  32.733  53.531  0.00  0.00    -0.139 NA
ENDBRANCH   1   9
TORSDOF 1
ENDMDL
MODEL 3
REMARK VINA RESULT:      -8.3      2.686      3.320
REMARK  1 active torsions:
REMARK  status: ('A' for Active; 'I' for Inactive)
REMARK    1  A    between atoms: C_4  and  C_1 
ROOT
ATOM      1  C   UNL d   1      52.515  33.626  53.515  0.00  0.00     0.036 A 
ATOM      2  C   UNL d   1      52.374  34.383  53.206  0.00  0.00     0.061 A 
ATOM      3  C   UNL d   1      51.902  33.082  53.519  0.00  0.00     0.004 A 
ATOM      4  C   UNL d   1      51.643  34.585  52.912  0.00  0.00     0.023 A 
ATOM      5  C   UNL d   1      51.030  34.026  52.922  0.00  0.00     0.059 A 
ATOM      6 CL   UNL d   1      52.987  34.928  53.201  0.00  0.00    -0.082 Cl
ATOM      7  C   UNL d   1      51.155  33.282  53.221  0.00  0.00     0.011 A 
ATOM      8 CL   UNL d   1      50.296  34.237  52.624  0.00  0.00    -0.082 Cl
ENDROOT
BRANCH   1   9
ATOM      9  C   UNL d   1      53.254  33.414  53.814  0.00  0.00     0.136 A 
ATOM     10  S   UNL d   1      53.524  33.520  54.587  0.00  0.00    -0.024 SA
ATOM     11  C   UNL d   1      54.294  33.228  54.641  0.00  0.00     0.236 A 
ATOM     12  N   UNL d   1      54.775  33.220  55.311  0.00  0.00    -0.118 N 
ATOM     13  N   UNL d   1      54.515  32.931  53.885  0.00  0.00    -0.119 NA
ATOM     14  N   UNL d   1      53.875  33.046  53.377  0.00  0.00    -0.139 NA
ENDBRANCH   1   9
TORSDOF 1
ENDMDL
MODEL 4
REMARK VINA RESULT:      -8.2      1.959      2.276
REMARK  1 active torsions:
REMARK  status: ('A' for Active; 'I' for Inactive)
REMARK    1  A    between atoms: C_4  and  C_1 
ROOT
ATOM      1  C   UNL d   1      53.034  33.590  53.958  0.00  0.00     0.036 A 
ATOM      2  C   UNL d   1      53.585  32.983  53.833  0.00  0.00     0.061 A 
ATOM      3  C   UNL d   1      53.204  34.166  54.516  0.00  0.00     0.004 A 
ATOM      4  C   UNL d   1      54.281  32.957  54.253  0.00  0.00     0.023 A 
ATOM      5  C   UNL d   1      54.442  33.544  54.814  0.00  0.00     0.059 A 
ATOM      6 CL   UNL d   1      53.416  32.406  53.274  0.00  0.00    -0.082 Cl
ATOM      7  C   UNL d   1      53.911  34.145  54.948  0.00  0.00     0.011 A 
ATOM      8 CL   UNL d   1      55.145  33.511  55.234  0.00  0.00    -0.082 Cl
ENDROOT
BRANCH   1   9
ATOM      9  C   UNL d   1      52.326  33.624  53.536  0.00  0.00     0.136 A 
ATOM     10  S   UNL d   1      52.148  34.129  52.908  0.00  0.00    -0.024 SA
ATOM     11  C   UNL d   1      51.379  33.972  52.653  0.00  0.00     0.236 A 
ATOM     12  N   UNL d   1      50.976  34.347  52.038  0.00  0.00    -0.118 N 
ATOM     13  N   UNL d   1      51.066  33.355  53.129  0.00  0.00    -0.119 NA
ATOM     14  N   UNL d   1      51.648  33.140  53.673  0.00  0.00    -0.139 NA
ENDBRANCH   1   9
TORSDOF 1
ENDMDL
MODEL 5
REMARK VINA RESULT:      -7.9      2.347      3.180
REMARK  1 active torsions:
REMARK  status: ('A' for Active; 'I' for Inactive)
REMARK    1  A    between atoms: C_4  and  C_1 
ROOT
ATOM      1  C   UNL d   1      53.142  32.829  53.492  0.00  0.00     0.036 A 
ATOM      2  C   UNL d   1      52.553  32.346  53.165  0.00  0.00     0.061 A 
ATOM      3  C   UNL d   1      53.838  32.481  53.751  0.00  0.00     0.004 A 
ATOM      4  C   UNL d   1      52.659  31.543  53.100  0.00  0.00     0.023 A 
ATOM      5  C   UNL d   1      53.366  31.202  53.365  0.00  0.00     0.059 A 
ATOM      6 CL   UNL d   1      51.856  32.695  52.906  0.00  0.00    -0.082 Cl
ATOM      7  C   UNL d   1      53.952  31.662  53.688  0.00  0.00     0.011 A 
ATOM      8 CL   UNL d   1      53.466  30.390  53.297  0.00  0.00    -0.082 Cl
ENDROOT
BRANCH   1   9
ATOM      9  C   UNL d   1      53.042  33.646  53.561  0.00  0.00     0.136 A 
ATOM     10  S   UNL d   1      53.022  34.085  54.260  0.00  0.00    -0.024 SA
ATOM     11  C   UNL d   1      52.911  34.880  54.070  0.00  0.00     0.236 A 
ATOM     12  N   UNL d   1      52.858  35.512  54.597  0.00  0.00    -0.118 N 
ATOM     13  N   UNL d   1      52.859  34.944  53.233  0.00  0.00    -0.119 NA
ATOM     14  N   UNL d   1      52.940  34.185  52.920  0.00  0.00    -0.139 NA
ENDBRANCH   1   9
TORSDOF 1
ENDMDL
