MODEL 1
REMARK VINA RESULT:     -10.0      0.000      0.000
REMARK  3 active torsions:
REMARK  status: ('A' for Active; 'I' for Inactive)
REMARK    1  A    between atoms: C_2  and  C_1 
REMARK    2  A    between atoms: C_5  and  C_2 
REMARK    3  A    between atoms: C_4  and  C_3 
ROOT
ATOM      1  C   UNL d   1      53.337  33.211  53.854  0.00  0.00     0.045 A 
ATOM      2  C   UNL d   1      53.843  32.651  54.187  0.00  0.00     0.068 A 
ATOM      3  C   UNL d   1      53.282  33.967  54.173  0.00  0.00     0.003 A 
ATOM      4  C   UNL d   1      54.298  32.852  54.848  0.00  0.00     0.006 A 
ATOM      5  C   UNL d   1      53.732  34.170  54.829  0.00  0.00     0.000 A 
ATOM      6  C   UNL d   1      54.246  33.606  55.171  0.00  0.00     0.000 A 
ENDROOT
BRANCH   1   7
ATOM      7  C   UNL d   1      52.878  33.011  53.189  0.00  0.00     0.196 C 
ATOM      8  O   UNL d   1      53.153  32.442  52.662  0.00  0.00    -0.287 OA
BRANCH   7   9
ATOM      9  C   UNL d   1      52.152  33.381  53.059  0.00  0.00     0.039 A 
ATOM     10  C   UNL d   1      51.466  33.100  53.436  0.00  0.00     0.005 A 
ATOM     11  C   UNL d   1      50.740  33.475  53.301  0.00  0.00     0.030 A 
ATOM     12  C   UNL d   1      50.697  34.122  52.799  0.00  0.00     0.140 A 
ATOM     13  C   UNL d   1      51.375  34.400  52.426  0.00  0.00     0.030 A 
ATOM     14  F   UNL d   1      49.962  34.490  52.672  0.00  0.00    -0.204 F 
ATOM     15  C   UNL d   1      52.103  34.034  52.552  0.00  0.00     0.005 A 
ENDBRANCH   7   9
ENDBRANCH   1   7
BRANCH   2  16
ATOM     16  C   UNL d   1      53.890  31.898  53.859  0.00  0.00     0.211 C 
ATOM     17  O   UNL d   1      53.410  31.289  54.148  0.00  0.00    -0.644 OA
ATOM     18  O   UNL d   1      54.416  31.762  53.243  0.00  0.00    -0.644 OA
ENDBRANCH   2  16
TORSDOF 3
ENDMDL
MODEL 2
REMARK VINA RESULT:      -9.8      1.750      3.123
REMARK  3 active torsions:
REMARK  status: ('A' for Active; 'I' for Inactive)
REMARK    1  A    between atoms: C_2  and  C_1 
REMARK    2  A    between atoms: C_5  and  C_2 
REMARK    3  A    between atoms: C_4  and  C_3 
ROOT
ATOM      1  C   UNL d   1      52.965  32.986  53.272  0.00  0.00     0.045 A 
ATOM      2  C   UNL d   1      52.335  32.557  52.956  0.00  0.00     0.068 A 
ATOM      3  C   UNL d   1      52.917  33.805  53.347  0.00  0.00     0.003 A 
ATOM      4  C   UNL d   1      51.651  32.953  52.712  0.00  0.00     0.006 A 
ATOM      5  C   UNL d   1      52.240  34.201  53.105  0.00  0.00     0.000 A 
ATOM      6  C   UNL d   1      51.599  33.771  52.784  0.00  0.00     0.000 A 
ENDROOT
BRANCH   1   7
ATOM      7  C   UNL d   1      53.653  32.590  53.518  0.00  0.00     0.196 C 
ATOM      8  O   UNL d   1      53.857  31.874  53.169  0.00  0.00    -0.287 OA
BRANCH   7   9
ATOM      9  C   UNL d   1      54.130  32.914  54.110  0.00  0.00     0.039 A 
ATOM     10  C   UNL d   1      53.937  32.801  54.910  0.00  0.00     0.005 A 
ATOM     11  C   UNL d   1      54.418  33.128  55.499  0.00  0.00     0.030 A 
ATOM     12  C   UNL d   1      55.084  33.562  55.295  0.00  0.00     0.140 A 
ATOM     13  C   UNL d   1      55.275  33.674  54.503  0.00  0.00     0.030 A 
ATOM     14  F   UNL d   1      55.559  33.885  55.895  0.00  0.00    -0.204 F 
ATOM     15  C   UNL d   1      54.803  33.353  53.908  0.00  0.00     0.005 A 
ENDBRANCH   7   9
ENDBRANCH   1   7
BRANCH   2  16
ATOM     16  C   UNL d   1      52.394  31.739  52.887  0.00  0.00     0.211 C 
ATOM     17  O   UNL d   1      52.118  31.251  53.495  0.00  0.00    -0.644 OA
ATOM     18  O   UNL d   1      52.729  31.419  52.209  0.00  0.00    -0.644 OA
ENDBRANCH   2  16
TORSDOF 3
ENDMDL
MODEL 3
REMARK VINA RESULT:      -9.5      1.899      2.846
REMARK  3 active torsions:
REMARK  status: ('A' for Active; 'I' for Inactive)
REMARK    1  A    between atoms: C_2  and  C_1 
REMARK    2  A    between atoms: C_5  and  C_2 
REMARK    3  A    between atoms: C_4  and  C_3 
ROOT
ATOM      1  C   UNL d   1      53.508  32.904  53.863  0.00  0.00     0.045 A 
ATOM      2  C   UNL d   1      53.172  33.632  54.058  0.00  0.00     0.068 A 
ATOM      3  C   UNL d   1      54.112  32.586  54.323  0.00  0.00     0.003 A 
ATOM      4  C   UNL d   1      53.445  34.045  54.721  0.00  0.00     0.006 A 
ATOM      5  C   UNL d   1      54.385  32.993  54.981  0.00  0.00     0.000 A 
ATOM      6  C   UNL d   1      54.048  33.731  55.183  0.00  0.00     0.000 A 
ENDROOT
BRANCH   1   7
ATOM      7  C   UNL d   1      53.235  32.487  53.197  0.00  0.00     0.196 C 
ATOM      8  O   UNL d   1      53.056  32.896  52.506  0.00  0.00    -0.287 OA
BRANCH   7   9
ATOM      9  C   UNL d   1      53.144  31.667  53.229  0.00  0.00     0.039 A 
ATOM     10  C   UNL d   1      52.385  31.332  53.283  0.00  0.00     0.005 A 
ATOM     11  C   UNL d   1      52.301  30.509  53.315  0.00  0.00     0.030 A 
ATOM     12  C   UNL d   1      52.962  30.025  53.293  0.00  0.00     0.140 A 
ATOM     13  C   UNL d   1      53.713  30.356  53.239  0.00  0.00     0.030 A 
ATOM     14  F   UNL d   1      52.864  29.200  53.325  0.00  0.00    -0.204 F 
ATOM     15  C   UNL d   1      53.810  31.174  53.207  0.00  0.00     0.005 A 
ENDBRANCH   7   9
ENDBRANCH   1   7
BRANCH   2  16
ATOM     16  C   UNL d   1      52.568  33.939  53.591  0.00  0.00     0.211 C 
ATOM     17  O   UNL d   1      51.777  33.773  53.773  0.00  0.00    -0.644 OA
ATOM     18  O   UNL d   1      52.761  34.410  52.947  0.00  0.00    -0.644 OA
ENDBRANCH   2  16
TORSDOF 3
ENDMDL
