MODEL 1
REMARK VINA RESULT:      76.1      0.000      0.000
REMARK  7 active torsions:
REMARK  status: ('A' for Active; 'I' for Inactive)
REMARK    1  A    between atoms: C_2  and  S_1 
REMARK    2  A    between atoms: N_3  and  S_1 
REMARK    3  A    between atoms: C_16  and  N_3 
REMARK    4  A    between atoms: C_4  and  C_8 
REMARK       I    between atoms: N_5  and  C_4 
REMARK    5  A    between atoms: C_17  and  N_5 
REMARK    6  A    between atoms: C_20  and  C_16 
REMARK    7  A    between atoms: C_18  and  C_17 
ROOT
ATOM      1  C   UNL d   1     -55.038-101.588 -41.197  0.00  0.00     0.058 A 
ATOM      2  C   UNL d   1     -54.712-102.341 -41.100  0.00  0.00     0.005 A 
ATOM      3  C   UNL d   1     -55.496-101.262 -40.594  0.00  0.00     0.005 A 
ATOM      4  C   UNL d   1     -55.302-102.440 -39.802  0.00  0.00     0.020 A 
ATOM      5  C   UNL d   1     -54.843-102.766 -40.406  0.00  0.00     0.002 A 
ATOM      6  C   UNL d   1     -55.627-101.693 -39.892  0.00  0.00     0.002 A 
ENDROOT
BRANCH   4   7
ATOM      7  C   UNL d   1     -55.430-102.866 -39.112  0.00  0.00     0.112 C 
BRANCH   7   8
ATOM      8  N   UNL d   1     -55.978-102.600 -38.563  0.00  0.00    -0.157 NA
BRANCH   8   9
ATOM      9  S   UNL d   1     -55.742-102.119 -37.930  0.00  0.00     0.285 S 
ATOM     10  O   UNL d   1     -56.332-101.581 -38.116  0.00  0.00    -0.198 OA
ATOM     11  O   UNL d   1     -55.152-102.661 -37.747  0.00  0.00    -0.198 OA
BRANCH   9  12
ATOM     12  C   UNL d   1     -55.500-101.646 -37.297  0.00  0.00     0.105 A 
ATOM     13  C   UNL d   1     -55.494-101.949 -36.535  0.00  0.00     0.012 A 
ATOM     14  C   UNL d   1     -55.253-101.477 -35.908  0.00  0.00     0.001 A 
ATOM     15  C   UNL d   1     -55.736-102.738 -36.410  0.00  0.00     0.001 C 
ATOM     16  C   UNL d   1     -55.014-100.693 -36.040  0.00  0.00     0.000 A 
ATOM     17  C   UNL d   1     -55.022-100.394 -36.811  0.00  0.00     0.001 A 
ATOM     18  C   UNL d   1     -55.264-100.869 -37.441  0.00  0.00     0.013 A 
ATOM     19  C   UNL d   1     -54.783 -99.611 -36.943  0.00  0.00     0.000 C 
ENDBRANCH   9  12
ENDBRANCH   8   9
ENDBRANCH   7   8
ENDBRANCH   4   7
BRANCH   1  20
ATOM     20  C   UNL d   1     -54.907-101.164 -41.888  0.00  0.00     0.279 C 
ATOM     21  N   UNL d   1     -54.969-101.538 -42.615  0.00  0.00    -0.205 NA
ATOM     22  O   UNL d   1     -54.714-100.361 -41.847  0.00  0.00    -0.265 OA
BRANCH  21  23
ATOM     23  C   UNL d   1     -54.838-101.114 -43.312  0.00  0.00     0.121 C 
BRANCH  23  24
ATOM     24  C   UNL d   1     -55.474-100.950 -43.810  0.00  0.00     0.101 A 
ATOM     25  N   UNL d   1     -55.867-101.570 -44.179  0.00  0.00    -0.242 NA
ATOM     26  C   UNL d   1     -56.499-101.400 -44.673  0.00  0.00     0.099 A 
ATOM     27  C   UNL d   1     -56.739-100.626 -44.800  0.00  0.00     0.021 A 
ATOM     28  C   UNL d   1     -56.334-100.010 -44.421  0.00  0.00     0.003 A 
ATOM     29  C   UNL d   1     -55.700-100.178 -43.925  0.00  0.00     0.021 A 
ENDBRANCH  23  24
ENDBRANCH  21  23
ENDBRANCH   1  20
TORSDOF 7
ENDMDL
