MODEL 1
REMARK VINA RESULT:      -2.5      0.000      0.000
REMARK  3 active torsions:
REMARK  status: ('A' for Active; 'I' for Inactive)
REMARK    1  A    between atoms: C_8  and  N_2 
REMARK    2  A    between atoms: C_14  and  C_8 
REMARK    3  A    between atoms: N_13  and  C_14 
ROOT
ATOM      1  C   UNL d   1      33.213  21.418 -22.457  0.00  0.00     0.166 A 
ATOM      2  N   UNL d   1      33.227  21.009 -23.202  0.00  0.00    -0.288 N 
ATOM      3  C   UNL d   1      33.206  22.263 -22.564  0.00  0.00     0.117 A 
ATOM      4  C   UNL d   1      33.215  22.367 -23.383  0.00  0.00     0.037 A 
ATOM      5  C   UNL d   1      33.229  21.583 -23.770  0.00  0.00     0.067 A 
ATOM      6  N   UNL d   1      33.206  21.136 -21.708  0.00  0.00    -0.225 NA
ATOM      7  N   UNL d   1      33.191  22.812 -21.922  0.00  0.00    -0.241 NA
ATOM      8  C   UNL d   1      33.192  21.698 -21.059  0.00  0.00     0.101 A 
ATOM      9  C   UNL d   1      33.184  22.536 -21.164  0.00  0.00     0.099 A 
ATOM     10  C   UNL d   1      33.240  21.524 -24.601  0.00  0.00     0.018 A 
ATOM     11  C   UNL d   1      33.214  23.069 -23.814  0.00  0.00     0.003 A 
ATOM     12  C   UNL d   1      33.225  22.997 -24.640  0.00  0.00     0.000 A 
ATOM     13  C   UNL d   1      33.239  22.227 -25.033  0.00  0.00     0.002 A 
ATOM     14  C   UNL d   1      33.184  21.420 -20.296  0.00  0.00     0.021 A 
ATOM     15  C   UNL d   1      33.170  23.084 -20.518  0.00  0.00     0.021 A 
ATOM     16  C   UNL d   1      33.224  23.684 -25.096  0.00  0.00     0.000 C 
ATOM     17  C   UNL d   1      33.170  21.970 -19.655  0.00  0.00     0.002 A 
ATOM     18  C   UNL d   1      33.163  22.811 -19.768  0.00  0.00     0.002 A 
ENDROOT
BRANCH   2  19
ATOM     19  C   UNL d   1      33.238  20.219 -23.363  0.00  0.00     0.101 C 
BRANCH  19  20
ATOM     20  C   UNL d   1      32.554  19.792 -23.305  0.00  0.00     0.100 C 
BRANCH  20  21
ATOM     21  N   UNL d   1      32.767  19.043 -23.472  0.00  0.00    -0.298 N 
ATOM     22  C   UNL d   1      32.838  18.808 -24.224  0.00  0.00     0.107 A 
ATOM     23  C   UNL d   1      33.052  18.058 -24.396  0.00  0.00     0.142 A 
ATOM     24  O   UNL d   1      33.196  17.539 -23.794  0.00  0.00    -0.300 OA
ATOM     25  C   UNL d   1      33.125  17.775 -23.038  0.00  0.00     0.142 A 
ATOM     26  C   UNL d   1      32.912  18.523 -22.875  0.00  0.00     0.107 A 
ENDBRANCH  20  21
ENDBRANCH  19  20
ENDBRANCH   2  19
TORSDOF 3
ENDMDL
