MODEL 1
REMARK VINA RESULT:      25.5      0.000      0.000
REMARK  1 active torsions:
REMARK  status: ('A' for Active; 'I' for Inactive)
REMARK    1  A    between atoms: C_9  and  C_1 
ROOT
ATOM      1  C   UNL d   1     -54.815-101.751 -37.749  0.00  0.00     0.064 A 
ATOM      2  C   UNL d   1     -54.763-101.237 -38.401  0.00  0.00     0.199 A 
ATOM      3  C   UNL d   1     -54.765-101.559 -39.167  0.00  0.00     0.062 A 
ATOM      4  C   UNL d   1     -54.867-102.564 -37.861  0.00  0.00     0.126 A 
ATOM      5  C   UNL d   1     -54.817-102.372 -39.279  0.00  0.00     0.106 A 
ATOM      6  O   UNL d   1     -54.868-102.878 -38.626  0.00  0.00    -0.305 OA
ATOM      7  C   UNL d   1     -54.714-101.046 -39.812  0.00  0.00     0.009 A 
ATOM      8  C   UNL d   1     -54.819-102.687 -40.038  0.00  0.00     0.067 A 
ATOM      9  O   UNL d   1     -54.712-100.428 -38.289  0.00  0.00    -0.286 OA
ATOM     10  C   UNL d   1     -54.768-102.181 -40.690  0.00  0.00     0.198 A 
ATOM     11  C   UNL d   1     -54.716-101.368 -40.578  0.00  0.00     0.042 A 
ATOM     12  O   UNL d   1     -54.769-102.493 -41.476  0.00  0.00    -0.286 OA
ENDROOT
BRANCH   1  13
ATOM     13  C   UNL d   1     -54.813-101.428 -36.986  0.00  0.00     0.005 A 
ATOM     14  C   UNL d   1     -54.723-100.623 -36.874  0.00  0.00     0.000 A 
ATOM     15  C   UNL d   1     -54.721-100.301 -36.106  0.00  0.00     0.000 A 
ATOM     16  C   UNL d   1     -54.812-100.810 -35.464  0.00  0.00     0.000 A 
ATOM     17  C   UNL d   1     -54.902-101.616 -35.576  0.00  0.00     0.000 A 
ATOM     18  C   UNL d   1     -54.904-101.939 -36.335  0.00  0.00     0.000 A 
ENDBRANCH   1  13
TORSDOF 1
ENDMDL
