MODEL 1
REMARK VINA RESULT:      66.9      0.000      0.000
REMARK  2 active torsions:
REMARK  status: ('A' for Active; 'I' for Inactive)
REMARK    1  A    between atoms: C_3  and  C_1 
REMARK       I    between atoms: N_6  and  C_3 
REMARK    2  A    between atoms: C_9  and  N_7 
ROOT
ATOM      1  C   UNL d   1     -50.378  25.222  33.407  0.00  0.00     0.270 C 
ATOM      2  N   UNL d   1     -50.461  26.032  33.428  0.00  0.00    -0.269 N 
ATOM      3  N   UNL d   1     -50.650  27.696  33.474  0.00  0.00    -0.286 N 
ATOM      4  O   UNL d   1     -49.610  24.887  33.311  0.00  0.00    -0.266 OA
ATOM      5  C   UNL d   1     -51.225  26.365  33.523  0.00  0.00     0.102 A 
ATOM      6  C   UNL d   1     -49.806  26.545  33.358  0.00  0.00     0.102 A 
ATOM      7  C   UNL d   1     -51.306  27.200  33.545  0.00  0.00     0.101 A 
ATOM      8  C   UNL d   1     -49.886  27.362  33.379  0.00  0.00     0.101 A 
ENDROOT
BRANCH   1   9
ATOM      9  C   UNL d   1     -51.045  24.716  33.479  0.00  0.00     0.120 A 
ATOM     10  C   UNL d   1     -50.932  23.901  33.680  0.00  0.00     0.305 A 
ATOM     11  O   UNL d   1     -51.584  23.410  33.750  0.00  0.00    -0.273 OA
ATOM     12  O   UNL d   1     -50.152  23.604  33.807  0.00  0.00    -0.259 OA
ATOM     13  C   UNL d   1     -52.346  23.691  33.628  0.00  0.00     0.103 A 
ATOM     14  C   UNL d   1     -52.460  24.506  33.427  0.00  0.00     0.023 A 
ATOM     15  C   UNL d   1     -53.005  23.199  33.697  0.00  0.00     0.025 A 
ATOM     16  C   UNL d   1     -51.805  24.996  33.358  0.00  0.00     0.012 A 
ATOM     17  C   UNL d   1     -53.226  24.785  33.306  0.00  0.00     0.002 A 
ATOM     18  C   UNL d   1     -53.874  24.296  33.375  0.00  0.00     0.000 A 
ATOM     19  C   UNL d   1     -53.760  23.481  33.576  0.00  0.00     0.002 A 
ENDBRANCH   1   9
BRANCH   3  20
ATOM     20  C   UNL d   1     -50.739  28.512  33.496  0.00  0.00     0.148 A 
ATOM     21  N   UNL d   1     -51.478  28.845  33.713  0.00  0.00    -0.227 NA
ATOM     22  C   UNL d   1     -51.580  29.671  33.739  0.00  0.00     0.101 A 
ATOM     23  C   UNL d   1     -50.936  30.158  33.546  0.00  0.00     0.021 A 
ATOM     24  C   UNL d   1     -50.197  29.825  33.329  0.00  0.00     0.005 A 
ATOM     25  C   UNL d   1     -50.108  29.008  33.307  0.00  0.00     0.037 A 
ENDBRANCH   3  20
TORSDOF 2
ENDMDL
