MODEL 1
REMARK VINA RESULT:      -6.8      0.000      0.000
REMARK  3 active torsions:
REMARK  status: ('A' for Active; 'I' for Inactive)
REMARK    1  A    between atoms: C_13  and  C_2 
REMARK    2  A    between atoms: C_10  and  C_4 
REMARK    3  A    between atoms: N_7  and  C_10 
ROOT
ATOM      1  N   UNL d   1     -41.636-123.360 -53.256  0.00  0.00    -0.121 NA
ATOM      2  C   UNL d   1     -41.681-122.591 -53.541  0.00  0.00     0.204 A 
ATOM      3  O   UNL d   1     -41.495-122.079 -52.923  0.00  0.00    -0.267 OA
ATOM      4  C   UNL d   1     -41.334-122.534 -52.250  0.00  0.00     0.222 A 
ATOM      5  N   UNL d   1     -41.422-123.330 -52.459  0.00  0.00    -0.119 NA
ENDROOT
BRANCH   4   6
ATOM      6  C   UNL d   1     -41.123-122.250 -51.505  0.00  0.00     0.127 C 
BRANCH   6   7
ATOM      7  N   UNL d   1     -41.504-122.536 -50.832  0.00  0.00    -0.300 N 
ATOM      8  C   UNL d   1     -41.141-123.119 -50.379  0.00  0.00     0.081 A 
ATOM      9  C   UNL d   1     -41.514-123.407 -49.710  0.00  0.00     0.053 A 
ATOM     10  C   UNL d   1     -42.253-123.113 -49.490  0.00  0.00     0.239 A 
ATOM     11  C   UNL d   1     -42.617-122.524 -49.949  0.00  0.00     0.053 A 
ATOM     12  O   UNL d   1     -42.994-122.784 -49.312  0.00  0.00    -0.298 OA
ATOM     13  O   UNL d   1     -41.932-123.695 -49.004  0.00  0.00    -0.298 OA
ATOM     14  C   UNL d   1     -42.236-122.238 -50.621  0.00  0.00     0.081 A 
ATOM     15  C   UNL d   1     -43.240-123.167 -48.623  0.00  0.00     0.146 A 
ATOM     16  C   UNL d   1     -42.494-123.803 -48.412  0.00  0.00     0.146 A 
ENDBRANCH   6   7
ENDBRANCH   4   6
BRANCH   2  17
ATOM     17  C   UNL d   1     -41.878-122.370 -54.313  0.00  0.00     0.043 A 
ATOM     18  C   UNL d   1     -42.657-122.153 -54.493  0.00  0.00     0.004 A 
ATOM     19  C   UNL d   1     -42.859-121.934 -55.253  0.00  0.00     0.000 A 
ATOM     20  C   UNL d   1     -42.282-121.928 -55.849  0.00  0.00     0.000 A 
ATOM     21  C   UNL d   1     -41.504-122.145 -55.669  0.00  0.00     0.000 A 
ATOM     22  C   UNL d   1     -41.306-122.364 -54.905  0.00  0.00     0.004 A 
ENDBRANCH   2  17
TORSDOF 3
ENDMDL
MODEL 2
REMARK VINA RESULT:      -6.2      1.073      4.976
REMARK  3 active torsions:
REMARK  status: ('A' for Active; 'I' for Inactive)
REMARK    1  A    between atoms: C_13  and  C_2 
REMARK    2  A    between atoms: C_10  and  C_4 
REMARK    3  A    between atoms: N_7  and  C_10 
ROOT
ATOM      1  N   UNL d   1     -42.888-122.365 -50.117  0.00  0.00    -0.121 NA
ATOM      2  C   UNL d   1     -42.266-122.692 -49.691  0.00  0.00     0.204 A 
ATOM      3  O   UNL d   1     -41.574-122.580 -50.123  0.00  0.00    -0.267 OA
ATOM      4  C   UNL d   1     -41.767-122.181 -50.823  0.00  0.00     0.222 A 
ATOM      5  N   UNL d   1     -42.584-122.048 -50.817  0.00  0.00    -0.119 NA
ENDROOT
BRANCH   4   6
ATOM      6  C   UNL d   1     -41.245-121.955 -51.420  0.00  0.00     0.127 C 
BRANCH   6   7
ATOM      7  N   UNL d   1     -41.332-122.259 -52.181  0.00  0.00    -0.300 N 
ATOM      8  C   UNL d   1     -41.629-121.776 -52.778  0.00  0.00     0.081 A 
ATOM      9  C   UNL d   1     -41.717-122.072 -53.535  0.00  0.00     0.053 A 
ATOM     10  C   UNL d   1     -41.509-122.853 -53.701  0.00  0.00     0.239 A 
ATOM     11  C   UNL d   1     -41.209-123.339 -53.097  0.00  0.00     0.053 A 
ATOM     12  O   UNL d   1     -41.285-123.644 -53.816  0.00  0.00    -0.298 OA
ATOM     13  O   UNL d   1     -41.802-122.411 -54.332  0.00  0.00    -0.298 OA
ATOM     14  C   UNL d   1     -41.123-123.035 -52.336  0.00  0.00     0.081 A 
ATOM     15  C   UNL d   1     -41.430-123.795 -54.615  0.00  0.00     0.146 A 
ATOM     16  C   UNL d   1     -41.791-122.930 -54.971  0.00  0.00     0.146 A 
ENDBRANCH   6   7
ENDBRANCH   4   6
BRANCH   2  17
ATOM     17  C   UNL d   1     -42.325-123.067 -48.957  0.00  0.00     0.043 A 
ATOM     18  C   UNL d   1     -43.031-123.443 -48.743  0.00  0.00     0.004 A 
ATOM     19  C   UNL d   1     -43.097-123.816 -48.020  0.00  0.00     0.000 A 
ATOM     20  C   UNL d   1     -42.455-123.817 -47.495  0.00  0.00     0.000 A 
ATOM     21  C   UNL d   1     -41.749-123.441 -47.708  0.00  0.00     0.000 A 
ATOM     22  C   UNL d   1     -41.688-123.068 -48.435  0.00  0.00     0.004 A 
ENDBRANCH   2  17
TORSDOF 3
ENDMDL
MODEL 3
REMARK VINA RESULT:      -4.0      1.337      2.062
REMARK  3 active torsions:
REMARK  status: ('A' for Active; 'I' for Inactive)
REMARK    1  A    between atoms: C_13  and  C_2 
REMARK    2  A    between atoms: C_10  and  C_4 
REMARK    3  A    between atoms: N_7  and  C_10 
ROOT
ATOM      1  N   UNL d   1     -41.944-122.165 -51.519  0.00  0.00    -0.121 NA
ATOM      2  C   UNL d   1     -41.757-122.793 -52.015  0.00  0.00     0.204 A 
ATOM      3  O   UNL d   1     -41.816-123.488 -51.579  0.00  0.00    -0.267 OA
ATOM      4  C   UNL d   1     -42.041-123.292 -50.807  0.00  0.00     0.222 A 
ATOM      5  N   UNL d   1     -42.120-122.469 -50.771  0.00  0.00    -0.119 NA
ENDROOT
BRANCH   4   6
ATOM      6  C   UNL d   1     -42.164-123.817 -50.183  0.00  0.00     0.127 C 
BRANCH   6   7
ATOM      7  N   UNL d   1     -42.062-123.564 -49.405  0.00  0.00    -0.300 N 
ATOM      8  C   UNL d   1     -42.693-123.215 -49.008  0.00  0.00     0.081 A 
ATOM      9  C   UNL d   1     -42.598-122.962 -48.235  0.00  0.00     0.053 A 
ATOM     10  C   UNL d   1     -41.872-123.057 -47.855  0.00  0.00     0.239 A 
ATOM     11  C   UNL d   1     -41.237-123.410 -48.258  0.00  0.00     0.053 A 
ATOM     12  O   UNL d   1     -41.123-123.176 -47.518  0.00  0.00    -0.298 OA
ATOM     13  O   UNL d   1     -42.471-122.702 -47.415  0.00  0.00    -0.298 OA
ATOM     14  C   UNL d   1     -41.339-123.663 -49.036  0.00  0.00     0.081 A 
ATOM     15  C   UNL d   1     -41.181-122.875 -46.752  0.00  0.00     0.146 A 
ATOM     16  C   UNL d   1     -42.126-122.545 -46.684  0.00  0.00     0.146 A 
ENDBRANCH   6   7
ENDBRANCH   4   6
BRANCH   2  17
ATOM     17  C   UNL d   1     -41.547-122.734 -52.813  0.00  0.00     0.043 A 
ATOM     18  C   UNL d   1     -41.425-121.989 -53.152  0.00  0.00     0.004 A 
ATOM     19  C   UNL d   1     -41.217-121.924 -53.939  0.00  0.00     0.000 A 
ATOM     20  C   UNL d   1     -41.128-122.607 -54.402  0.00  0.00     0.000 A 
ATOM     21  C   UNL d   1     -41.251-123.352 -54.062  0.00  0.00     0.000 A 
ATOM     22  C   UNL d   1     -41.459-123.412 -53.272  0.00  0.00     0.004 A 
ENDBRANCH   2  17
TORSDOF 3
ENDMDL
