MODEL 1
REMARK VINA RESULT:      76.3      0.000      0.000
REMARK  3 active torsions:
REMARK  status: ('A' for Active; 'I' for Inactive)
REMARK    1  A    between atoms: C_7  and  C_8 
REMARK       I    between atoms: N_10  and  C_7 
REMARK    2  A    between atoms: C_19  and  N_10 
REMARK    3  A    between atoms: C_11  and  C_19 
ROOT
ATOM      1  C   UNL d   1      60.733  47.142  50.604  0.00  0.00     0.039 A 
ATOM      2  C   UNL d   1      60.755  46.320  50.674  0.00  0.00     0.196 A 
ATOM      3  C   UNL d   1      61.341  47.370  50.095  0.00  0.00     0.003 A 
ATOM      4  C   UNL d   1      61.378  46.040  50.207  0.00  0.00     0.039 A 
ATOM      5  C   UNL d   1      61.737  46.690  49.851  0.00  0.00     0.003 A 
ATOM      6  C   UNL d   1      60.245  47.710  50.933  0.00  0.00     0.008 A 
ATOM      7  C   UNL d   1      60.355  48.502  50.760  0.00  0.00     0.058 A 
ATOM      8  C   UNL d   1      61.460  48.172  49.913  0.00  0.00     0.000 A 
ATOM      9  O   UNL d   1      60.247  45.855  51.129  0.00  0.00    -0.287 OA
ATOM     10  C   UNL d   1      60.961  48.739  50.251  0.00  0.00     0.005 A 
ATOM     11  C   UNL d   1      61.659  45.283  50.063  0.00  0.00     0.003 A 
ATOM     12  C   UNL d   1      62.382  46.581  49.348  0.00  0.00     0.000 A 
ATOM     13  C   UNL d   1      62.302  45.171  49.563  0.00  0.00     0.000 A 
ATOM     14  C   UNL d   1      62.666  45.819  49.203  0.00  0.00     0.000 A 
ENDROOT
BRANCH   7  15
ATOM     15  C   UNL d   1      59.860  49.074  51.094  0.00  0.00     0.279 C 
ATOM     16  N   UNL d   1      59.078  49.131  50.852  0.00  0.00    -0.204 NA
ATOM     17  O   UNL d   1      60.152  49.586  51.669  0.00  0.00    -0.265 OA
BRANCH  16  18
ATOM     18  C   UNL d   1      58.577  49.701  51.182  0.00  0.00     0.127 C 
BRANCH  18  19
ATOM     19  C   UNL d   1      57.776  49.700  51.004  0.00  0.00     0.119 A 
ATOM     20  O   UNL d   1      57.163  49.692  51.551  0.00  0.00    -0.304 OA
ATOM     21  C   UNL d   1      56.449  49.695  51.138  0.00  0.00     0.123 A 
ATOM     22  C   UNL d   1      56.628  49.704  50.329  0.00  0.00     0.029 A 
ATOM     23  C   UNL d   1      57.450  49.707  50.247  0.00  0.00     0.028 A 
ENDBRANCH  18  19
ENDBRANCH  16  18
ENDBRANCH   7  15
TORSDOF 3
ENDMDL
