MODEL 1
REMARK VINA RESULT:      -8.1      0.000      0.000
REMARK  3 active torsions:
REMARK  status: ('A' for Active; 'I' for Inactive)
REMARK    1  A    between atoms: C_4  and  C_1 
REMARK    2  A    between atoms: C_9  and  N_2 
REMARK    3  A    between atoms: C_8  and  C_13 
ROOT
ATOM      1  N   UNL d   1     -48.100  13.401  22.454  0.00  0.00    -0.273 N 
ATOM      2  C   UNL d   1     -46.757  13.350  22.543  0.00  0.00     0.056 A 
ATOM      3  C   UNL d   1     -47.843  14.064  22.889  0.00  0.00     0.265 A 
ATOM      4  C   UNL d   1     -47.434  12.967  22.245  0.00  0.00     0.086 A 
ATOM      5  C   UNL d   1     -47.020  14.032  22.942  0.00  0.00     0.066 A 
ATOM      6  O   UNL d   1     -48.336  14.649  23.208  0.00  0.00    -0.267 OA
ENDROOT
BRANCH   1   7
ATOM      7  C   UNL d   1     -48.880  13.250  22.291  0.00  0.00     0.067 A 
ATOM      8  C   UNL d   1     -49.322  12.790  22.803  0.00  0.00     0.021 A 
ATOM      9  C   UNL d   1     -50.123  12.626  22.649  0.00  0.00     0.073 A 
ATOM     10  C   UNL d   1     -50.479  12.940  21.958  0.00  0.00     0.004 A 
ATOM     11  C   UNL d   1     -50.036  13.400  21.446  0.00  0.00     0.001 A 
ATOM     12  C   UNL d   1     -49.234  13.557  21.610  0.00  0.00     0.018 A 
BRANCH   9  13
ATOM     13  C   UNL d   1     -50.549  12.168  23.167  0.00  0.00     0.419 C 
ATOM     14  F   UNL d   1     -50.985  11.690  23.698  0.00  0.00    -0.166 F 
ATOM     15  F   UNL d   1     -50.845  12.841  23.531  0.00  0.00    -0.166 F 
ATOM     16  F   UNL d   1     -50.258  11.479  22.810  0.00  0.00    -0.166 F 
ENDBRANCH   9  13
ENDBRANCH   1   7
BRANCH   2  17
ATOM     17  C   UNL d   1     -45.998  13.064  22.433  0.00  0.00     0.142 A 
ATOM     18  N   UNL d   1     -45.617  12.472  22.809  0.00  0.00    -0.227 NA
ATOM     19  C   UNL d   1     -44.853  12.401  22.491  0.00  0.00     0.099 A 
ATOM     20  C   UNL d   1     -44.236  11.893  22.667  0.00  0.00     0.021 A 
ATOM     21  C   UNL d   1     -44.777  12.968  21.907  0.00  0.00     0.076 A 
ATOM     22  C   UNL d   1     -43.525  11.964  22.239  0.00  0.00     0.002 A 
ATOM     23  C   UNL d   1     -43.450  12.531  21.654  0.00  0.00     0.002 A 
ATOM     24  C   UNL d   1     -44.083  13.044  21.481  0.00  0.00     0.019 A 
ATOM     25  N   UNL d   1     -45.496  13.383  21.871  0.00  0.00    -0.338 N 
ATOM     26  H   UNL d   1     -45.678  14.017  21.353  0.00  0.00     0.167 HD
ENDBRANCH   2  17
TORSDOF 3
ENDMDL
MODEL 2
REMARK VINA RESULT:      -8.0      1.357      1.881
REMARK  3 active torsions:
REMARK  status: ('A' for Active; 'I' for Inactive)
REMARK    1  A    between atoms: C_4  and  C_1 
REMARK    2  A    between atoms: C_9  and  N_2 
REMARK    3  A    between atoms: C_8  and  C_13 
ROOT
ATOM      1  N   UNL d   1     -48.024  12.468  23.189  0.00  0.00    -0.273 N 
ATOM      2  C   UNL d   1     -46.718  12.161  23.306  0.00  0.00     0.056 A 
ATOM      3  C   UNL d   1     -47.601  13.175  23.319  0.00  0.00     0.265 A 
ATOM      4  C   UNL d   1     -47.481  11.851  23.181  0.00  0.00     0.086 A 
ATOM      5  C   UNL d   1     -46.802  12.985  23.391  0.00  0.00     0.066 A 
ATOM      6  O   UNL d   1     -47.936  13.932  23.367  0.00  0.00    -0.267 OA
ENDROOT
BRANCH   1   7
ATOM      7  C   UNL d   1     -48.829  12.441  23.092  0.00  0.00     0.067 A 
ATOM      8  C   UNL d   1     -49.163  12.693  22.388  0.00  0.00     0.021 A 
ATOM      9  C   UNL d   1     -49.987  12.671  22.274  0.00  0.00     0.073 A 
ATOM     10  C   UNL d   1     -50.478  12.387  22.891  0.00  0.00     0.004 A 
ATOM     11  C   UNL d   1     -50.143  12.136  23.594  0.00  0.00     0.001 A 
ATOM     12  C   UNL d   1     -49.317  12.162  23.698  0.00  0.00     0.018 A 
BRANCH   9  13
ATOM     13  C   UNL d   1     -50.304  12.924  21.570  0.00  0.00     0.419 C 
ATOM     14  F   UNL d   1     -50.633  13.190  20.848  0.00  0.00    -0.166 F 
ATOM     15  F   UNL d   1     -50.038  12.243  21.198  0.00  0.00    -0.166 F 
ATOM     16  F   UNL d   1     -50.578  13.616  21.932  0.00  0.00    -0.166 F 
ENDBRANCH   9  13
ENDBRANCH   1   7
BRANCH   2  17
ATOM     17  C   UNL d   1     -46.045  11.694  23.331  0.00  0.00     0.142 A 
ATOM     18  N   UNL d   1     -45.948  10.956  23.616  0.00  0.00    -0.227 NA
ATOM     19  C   UNL d   1     -45.155  10.730  23.510  0.00  0.00     0.099 A 
ATOM     20  C   UNL d   1     -44.757  10.041  23.698  0.00  0.00     0.021 A 
ATOM     21  C   UNL d   1     -44.770  11.355  23.150  0.00  0.00     0.076 A 
ATOM     22  C   UNL d   1     -43.946   9.986  23.515  0.00  0.00     0.002 A 
ATOM     23  C   UNL d   1     -43.560  10.611  23.155  0.00  0.00     0.002 A 
ATOM     24  C   UNL d   1     -43.974  11.309  22.967  0.00  0.00     0.019 A 
ATOM     25  N   UNL d   1     -45.329  11.959  23.038  0.00  0.00    -0.338 N 
ATOM     26  H   UNL d   1     -45.187  12.708  22.688  0.00  0.00     0.167 HD
ENDBRANCH   2  17
TORSDOF 3
ENDMDL
MODEL 3
REMARK VINA RESULT:      -8.0      1.296      1.811
REMARK  3 active torsions:
REMARK  status: ('A' for Active; 'I' for Inactive)
REMARK    1  A    between atoms: C_4  and  C_1 
REMARK    2  A    between atoms: C_9  and  N_2 
REMARK    3  A    between atoms: C_8  and  C_13 
ROOT
ATOM      1  N   UNL d   1     -47.736  13.384  22.836  0.00  0.00    -0.273 N 
ATOM      2  C   UNL d   1     -46.510  12.840  22.962  0.00  0.00     0.056 A 
ATOM      3  C   UNL d   1     -47.172  13.995  22.771  0.00  0.00     0.265 A 
ATOM      4  C   UNL d   1     -47.327  12.680  22.953  0.00  0.00     0.086 A 
ATOM      5  C   UNL d   1     -46.422  13.661  22.847  0.00  0.00     0.066 A 
ATOM      6  O   UNL d   1     -47.347  14.797  22.649  0.00  0.00    -0.267 OA
ENDROOT
BRANCH   1   7
ATOM      7  C   UNL d   1     -48.536  13.508  22.788  0.00  0.00     0.067 A 
ATOM      8  C   UNL d   1     -48.962  13.185  22.168  0.00  0.00     0.021 A 
ATOM      9  C   UNL d   1     -49.783  13.304  22.104  0.00  0.00     0.073 A 
ATOM     10  C   UNL d   1     -50.176  13.761  22.687  0.00  0.00     0.004 A 
ATOM     11  C   UNL d   1     -49.749  14.083  23.306  0.00  0.00     0.001 A 
ATOM     12  C   UNL d   1     -48.927  13.958  23.360  0.00  0.00     0.018 A 
BRANCH   9  13
ATOM     13  C   UNL d   1     -50.191  12.977  21.483  0.00  0.00     0.419 C 
ATOM     14  F   UNL d   1     -50.610  12.646  20.839  0.00  0.00    -0.166 F 
ATOM     15  F   UNL d   1     -50.411  12.342  21.953  0.00  0.00    -0.166 F 
ATOM     16  F   UNL d   1     -49.977  13.613  20.997  0.00  0.00    -0.166 F 
ENDBRANCH   9  13
ENDBRANCH   1   7
BRANCH   2  17
ATOM     17  C   UNL d   1     -45.942  12.260  23.067  0.00  0.00     0.142 A 
ATOM     18  N   UNL d   1     -45.165  12.268  22.887  0.00  0.00    -0.227 NA
ATOM     19  C   UNL d   1     -44.831  11.539  23.105  0.00  0.00     0.099 A 
ATOM     20  C   UNL d   1     -44.068  11.252  23.047  0.00  0.00     0.021 A 
ATOM     21  C   UNL d   1     -45.430  11.083  23.425  0.00  0.00     0.076 A 
ATOM     22  C   UNL d   1     -43.909  10.482  23.321  0.00  0.00     0.002 A 
ATOM     23  C   UNL d   1     -44.507  10.025  23.642  0.00  0.00     0.002 A 
ATOM     24  C   UNL d   1     -45.282  10.326  23.697  0.00  0.00     0.019 A 
ATOM     25  N   UNL d   1     -46.126  11.536  23.401  0.00  0.00    -0.338 N 
ATOM     26  H   UNL d   1     -46.883  11.296  23.669  0.00  0.00     0.167 HD
ENDBRANCH   2  17
TORSDOF 3
ENDMDL
MODEL 4
REMARK VINA RESULT:      -6.9      2.211      4.928
REMARK  3 active torsions:
REMARK  status: ('A' for Active; 'I' for Inactive)
REMARK    1  A    between atoms: C_4  and  C_1 
REMARK    2  A    between atoms: C_9  and  N_2 
REMARK    3  A    between atoms: C_8  and  C_13 
ROOT
ATOM      1  N   UNL d   1     -46.286  13.230  22.564  0.00  0.00    -0.273 N 
ATOM      2  C   UNL d   1     -47.601  13.523  22.591  0.00  0.00     0.056 A 
ATOM      3  C   UNL d   1     -46.384  13.946  22.980  0.00  0.00     0.265 A 
ATOM      4  C   UNL d   1     -47.032  12.975  22.328  0.00  0.00     0.086 A 
ATOM      5  C   UNL d   1     -47.190  14.124  22.996  0.00  0.00     0.066 A 
ATOM      6  O   UNL d   1     -45.772  14.393  23.315  0.00  0.00    -0.267 OA
ENDROOT
BRANCH   1   7
ATOM      7  C   UNL d   1     -45.564  12.883  22.438  0.00  0.00     0.067 A 
ATOM      8  C   UNL d   1     -45.367  12.196  22.837  0.00  0.00     0.021 A 
ATOM      9  C   UNL d   1     -44.630  11.828  22.718  0.00  0.00     0.073 A 
ATOM     10  C   UNL d   1     -44.085  12.170  22.181  0.00  0.00     0.004 A 
ATOM     11  C   UNL d   1     -44.283  12.857  21.782  0.00  0.00     0.001 A 
ATOM     12  C   UNL d   1     -45.023  13.217  21.909  0.00  0.00     0.018 A 
BRANCH   9  13
ATOM     13  C   UNL d   1     -44.449  11.148  23.121  0.00  0.00     0.419 C 
ATOM     14  F   UNL d   1     -44.256  10.445  23.534  0.00  0.00    -0.166 F 
ATOM     15  F   UNL d   1     -45.198  11.137  23.454  0.00  0.00    -0.166 F 
ATOM     16  F   UNL d   1     -43.688  11.144  22.793  0.00  0.00    -0.166 F 
ENDBRANCH   9  13
ENDBRANCH   1   7
BRANCH   2  17
ATOM     17  C   UNL d   1     -48.402  13.437  22.450  0.00  0.00     0.142 A 
ATOM     18  N   UNL d   1     -48.838  13.673  21.824  0.00  0.00    -0.227 NA
ATOM     19  C   UNL d   1     -49.629  13.451  21.949  0.00  0.00     0.099 A 
ATOM     20  C   UNL d   1     -50.300  13.553  21.494  0.00  0.00     0.021 A 
ATOM     21  C   UNL d   1     -49.664  13.072  22.673  0.00  0.00     0.076 A 
ATOM     22  C   UNL d   1     -51.026  13.261  21.781  0.00  0.00     0.002 A 
ATOM     23  C   UNL d   1     -51.061  12.881  22.504  0.00  0.00     0.002 A 
ATOM     24  C   UNL d   1     -50.372  12.782  22.962  0.00  0.00     0.019 A 
ATOM     25  N   UNL d   1     -48.895  13.063  22.986  0.00  0.00    -0.338 N 
ATOM     26  H   UNL d   1     -48.661  12.731  23.720  0.00  0.00     0.167 HD
ENDBRANCH   2  17
TORSDOF 3
ENDMDL
MODEL 5
REMARK VINA RESULT:      -6.7      8.247      9.612
REMARK  3 active torsions:
REMARK  status: ('A' for Active; 'I' for Inactive)
REMARK    1  A    between atoms: C_4  and  C_1 
REMARK    2  A    between atoms: C_9  and  N_2 
REMARK    3  A    between atoms: C_8  and  C_13 
ROOT
ATOM      1  N   UNL d   1     -39.825  14.657  19.647  0.00  0.00    -0.273 N 
ATOM      2  C   UNL d   1     -39.642  14.561  18.316  0.00  0.00     0.056 A 
ATOM      3  C   UNL d   1     -40.555  14.453  19.297  0.00  0.00     0.265 A 
ATOM      4  C   UNL d   1     -39.270  14.721  19.044  0.00  0.00     0.086 A 
ATOM      5  C   UNL d   1     -40.440  14.395  18.483  0.00  0.00     0.066 A 
ATOM      6  O   UNL d   1     -41.265  14.333  19.707  0.00  0.00    -0.267 OA
ENDROOT
BRANCH   1   7
ATOM      7  C   UNL d   1     -39.727  14.762  20.445  0.00  0.00     0.067 A 
ATOM      8  C   UNL d   1     -39.423  14.154  20.902  0.00  0.00     0.021 A 
ATOM      9  C   UNL d   1     -39.317  14.247  21.722  0.00  0.00     0.073 A 
ATOM     10  C   UNL d   1     -39.525  14.975  22.081  0.00  0.00     0.004 A 
ATOM     11  C   UNL d   1     -39.828  15.582  21.623  0.00  0.00     0.001 A 
ATOM     12  C   UNL d   1     -39.931  15.478  20.803  0.00  0.00     0.018 A 
BRANCH   9  13
ATOM     13  C   UNL d   1     -39.015  13.635  22.161  0.00  0.00     0.419 C 
ATOM     14  F   UNL d   1     -38.697  13.006  22.614  0.00  0.00    -0.166 F 
ATOM     15  F   UNL d   1     -39.769  13.331  22.270  0.00  0.00    -0.166 F 
ATOM     16  F   UNL d   1     -38.248  13.929  22.061  0.00  0.00    -0.166 F 
ENDBRANCH   9  13
ENDBRANCH   1   7
BRANCH   2  17
ATOM     17  C   UNL d   1     -39.246  14.578  17.599  0.00  0.00     0.142 A 
ATOM     18  N   UNL d   1     -39.004  15.202  17.165  0.00  0.00    -0.227 NA
ATOM     19  C   UNL d   1     -38.626  14.922  16.480  0.00  0.00     0.099 A 
ATOM     20  C   UNL d   1     -38.278  15.314  15.853  0.00  0.00     0.021 A 
ATOM     21  C   UNL d   1     -38.644  14.105  16.509  0.00  0.00     0.076 A 
ATOM     22  C   UNL d   1     -37.940  14.864  15.238  0.00  0.00     0.002 A 
ATOM     23  C   UNL d   1     -37.957  14.047  15.267  0.00  0.00     0.002 A 
ATOM     24  C   UNL d   1     -38.314  13.655  15.910  0.00  0.00     0.019 A 
ATOM     25  N   UNL d   1     -39.032  13.890  17.211  0.00  0.00    -0.338 N 
ATOM     26  H   UNL d   1     -39.181  13.109  17.477  0.00  0.00     0.167 HD
ENDBRANCH   2  17
TORSDOF 3
ENDMDL
MODEL 6
REMARK VINA RESULT:      -6.6      2.714      5.119
REMARK  3 active torsions:
REMARK  status: ('A' for Active; 'I' for Inactive)
REMARK    1  A    between atoms: C_4  and  C_1 
REMARK    2  A    between atoms: C_9  and  N_2 
REMARK    3  A    between atoms: C_8  and  C_13 
ROOT
ATOM      1  N   UNL d   1     -47.264  12.407  23.048  0.00  0.00    -0.273 N 
ATOM      2  C   UNL d   1     -48.437  13.063  23.153  0.00  0.00     0.056 A 
ATOM      3  C   UNL d   1     -47.882  11.852  22.965  0.00  0.00     0.265 A 
ATOM      4  C   UNL d   1     -47.608  13.145  23.163  0.00  0.00     0.086 A 
ATOM      5  C   UNL d   1     -48.598  12.255  23.029  0.00  0.00     0.066 A 
ATOM      6  O   UNL d   1     -47.781  11.039  22.840  0.00  0.00    -0.267 OA
ENDROOT
BRANCH   1   7
ATOM      7  C   UNL d   1     -46.479  12.208  23.015  0.00  0.00     0.067 A 
ATOM      8  C   UNL d   1     -45.971  12.632  22.534  0.00  0.00     0.021 A 
ATOM      9  C   UNL d   1     -45.163  12.440  22.489  0.00  0.00     0.073 A 
ATOM     10  C   UNL d   1     -44.869  11.802  22.947  0.00  0.00     0.004 A 
ATOM     11  C   UNL d   1     -45.377  11.379  23.428  0.00  0.00     0.001 A 
ATOM     12  C   UNL d   1     -46.185  11.580  23.465  0.00  0.00     0.018 A 
BRANCH   9  13
ATOM     13  C   UNL d   1     -44.672  12.870  22.007  0.00  0.00     0.419 C 
ATOM     14  F   UNL d   1     -44.162  13.308  21.507  0.00  0.00    -0.166 F 
ATOM     15  F   UNL d   1     -45.007  13.569  22.276  0.00  0.00    -0.166 F 
ATOM     16  F   UNL d   1     -44.323  12.174  21.725  0.00  0.00    -0.166 F 
ENDBRANCH   9  13
ENDBRANCH   1   7
BRANCH   2  17
ATOM     17  C   UNL d   1     -48.949  13.694  23.252  0.00  0.00     0.142 A 
ATOM     18  N   UNL d   1     -48.791  14.472  23.321  0.00  0.00    -0.227 NA
ATOM     19  C   UNL d   1     -49.507  14.884  23.411  0.00  0.00     0.099 A 
ATOM     20  C   UNL d   1     -49.667  15.681  23.503  0.00  0.00     0.021 A 
ATOM     21  C   UNL d   1     -50.110  14.332  23.393  0.00  0.00     0.076 A 
ATOM     22  C   UNL d   1     -50.461  15.922  23.580  0.00  0.00     0.002 A 
ATOM     23  C   UNL d   1     -51.064  15.370  23.563  0.00  0.00     0.002 A 
ATOM     24  C   UNL d   1     -50.892  14.560  23.468  0.00  0.00     0.019 A 
ATOM     25  N   UNL d   1     -49.759  13.586  23.294  0.00  0.00    -0.338 N 
ATOM     26  H   UNL d   1     -50.160  12.851  23.244  0.00  0.00     0.167 HD
ENDBRANCH   2  17
TORSDOF 3
ENDMDL
MODEL 7
REMARK VINA RESULT:      -6.1      9.021      9.581
REMARK  3 active torsions:
REMARK  status: ('A' for Active; 'I' for Inactive)
REMARK    1  A    between atoms: C_4  and  C_1 
REMARK    2  A    between atoms: C_9  and  N_2 
REMARK    3  A    between atoms: C_8  and  C_13 
ROOT
ATOM      1  N   UNL d   1     -38.870  14.862  18.963  0.00  0.00    -0.273 N 
ATOM      2  C   UNL d   1     -38.537  14.816  20.267  0.00  0.00     0.056 A 
ATOM      3  C   UNL d   1     -38.269  15.424  19.098  0.00  0.00     0.265 A 
ATOM      4  C   UNL d   1     -39.031  14.493  19.679  0.00  0.00     0.086 A 
ATOM      5  C   UNL d   1     -38.067  15.395  19.897  0.00  0.00     0.066 A 
ATOM      6  O   UNL d   1     -37.940  15.922  18.522  0.00  0.00    -0.267 OA
ENDROOT
BRANCH   1   7
ATOM      7  C   UNL d   1     -39.207  14.737  18.236  0.00  0.00     0.067 A 
ATOM      8  C   UNL d   1     -39.910  15.109  18.042  0.00  0.00     0.021 A 
ATOM      9  C   UNL d   1     -40.267  14.990  17.301  0.00  0.00     0.073 A 
ATOM     10  C   UNL d   1     -39.899  14.480  16.747  0.00  0.00     0.004 A 
ATOM     11  C   UNL d   1     -39.197  14.107  16.941  0.00  0.00     0.001 A 
ATOM     12  C   UNL d   1     -38.847  14.234  17.687  0.00  0.00     0.018 A 
BRANCH   9  13
ATOM     13  C   UNL d   1     -40.964  15.367  17.123  0.00  0.00     0.419 C 
ATOM     14  F   UNL d   1     -41.686  15.751  16.945  0.00  0.00    -0.166 F 
ATOM     15  F   UNL d   1     -40.568  15.877  16.617  0.00  0.00    -0.166 F 
ATOM     16  F   UNL d   1     -41.378  14.860  17.630  0.00  0.00    -0.166 F 
ENDBRANCH   9  13
ENDBRANCH   1   7
BRANCH   2  17
ATOM     17  C   UNL d   1     -38.555  14.571  21.048  0.00  0.00     0.142 A 
ATOM     18  N   UNL d   1     -38.769  14.974  21.703  0.00  0.00    -0.227 NA
ATOM     19  C   UNL d   1     -38.687  14.474  22.363  0.00  0.00     0.099 A 
ATOM     20  C   UNL d   1     -38.827  14.598  23.159  0.00  0.00     0.021 A 
ATOM     21  C   UNL d   1     -38.416  13.752  22.090  0.00  0.00     0.076 A 
ATOM     22  C   UNL d   1     -38.688  13.973  23.691  0.00  0.00     0.002 A 
ATOM     23  C   UNL d   1     -38.417  13.251  23.419  0.00  0.00     0.002 A 
ATOM     24  C   UNL d   1     -38.277  13.133  22.606  0.00  0.00     0.019 A 
ATOM     25  N   UNL d   1     -38.333  13.815  21.266  0.00  0.00    -0.338 N 
ATOM     26  H   UNL d   1     -38.070  13.211  20.747  0.00  0.00     0.167 HD
ENDBRANCH   2  17
TORSDOF 3
ENDMDL
MODEL 8
REMARK VINA RESULT:      -6.0      7.577      9.709
REMARK  3 active torsions:
REMARK  status: ('A' for Active; 'I' for Inactive)
REMARK    1  A    between atoms: C_4  and  C_1 
REMARK    2  A    between atoms: C_9  and  N_2 
REMARK    3  A    between atoms: C_8  and  C_13 
ROOT
ATOM      1  N   UNL d   1     -38.859  14.749  19.578  0.00  0.00    -0.273 N 
ATOM      2  C   UNL d   1     -38.367  14.757  18.324  0.00  0.00     0.056 A 
ATOM      3  C   UNL d   1     -38.275  15.343  19.531  0.00  0.00     0.265 A 
ATOM      4  C   UNL d   1     -38.911  14.393  18.839  0.00  0.00     0.086 A 
ATOM      5  C   UNL d   1     -37.975  15.346  18.763  0.00  0.00     0.066 A 
ATOM      6  O   UNL d   1     -38.045  15.838  20.155  0.00  0.00    -0.267 OA
ENDROOT
BRANCH   1   7
ATOM      7  C   UNL d   1     -39.275  14.585  20.255  0.00  0.00     0.067 A 
ATOM      8  C   UNL d   1     -40.054  14.828  20.322  0.00  0.00     0.021 A 
ATOM      9  C   UNL d   1     -40.494  14.667  21.010  0.00  0.00     0.073 A 
ATOM     10  C   UNL d   1     -40.131  14.251  21.640  0.00  0.00     0.004 A 
ATOM     11  C   UNL d   1     -39.352  14.009  21.571  0.00  0.00     0.001 A 
ATOM     12  C   UNL d   1     -38.920  14.175  20.878  0.00  0.00     0.018 A 
BRANCH   9  13
ATOM     13  C   UNL d   1     -41.266  14.914  21.062  0.00  0.00     0.419 C 
ATOM     14  F   UNL d   1     -42.064  15.163  21.115  0.00  0.00    -0.166 F 
ATOM     15  F   UNL d   1     -41.018  15.678  21.228  0.00  0.00    -0.166 F 
ATOM     16  F   UNL d   1     -41.532  14.148  20.895  0.00  0.00    -0.166 F 
ENDBRANCH   9  13
ENDBRANCH   1   7
BRANCH   2  17
ATOM     17  C   UNL d   1     -38.276  14.535  17.541  0.00  0.00     0.142 A 
ATOM     18  N   UNL d   1     -38.125  13.816  17.230  0.00  0.00    -0.227 NA
ATOM     19  C   UNL d   1     -38.084  13.886  16.403  0.00  0.00     0.099 A 
ATOM     20  C   UNL d   1     -37.946  13.332  15.817  0.00  0.00     0.021 A 
ATOM     21  C   UNL d   1     -38.214  14.672  16.217  0.00  0.00     0.076 A 
ATOM     22  C   UNL d   1     -37.940  13.584  15.023  0.00  0.00     0.002 A 
ATOM     23  C   UNL d   1     -38.070  14.370  14.837  0.00  0.00     0.002 A 
ATOM     24  C   UNL d   1     -38.210  14.927  15.441  0.00  0.00     0.019 A 
ATOM     25  N   UNL d   1     -38.334  15.078  16.932  0.00  0.00    -0.338 N 
ATOM     26  H   UNL d   1     -38.488  15.898  17.017  0.00  0.00     0.167 HD
ENDBRANCH   2  17
TORSDOF 3
ENDMDL
