MODEL 1
REMARK VINA RESULT:      -8.2      0.000      0.000
REMARK  5 active torsions:
REMARK  status: ('A' for Active; 'I' for Inactive)
REMARK    1  A    between atoms: C_6  and  N_1 
REMARK    2  A    between atoms: C_5  and  C_3 
REMARK    3  A    between atoms: C_11  and  C_4 
REMARK    4  A    between atoms: N_13  and  C_6 
REMARK    5  A    between atoms: O_23  and  C_19 
ROOT
ATOM      1  N   UNL d   1      53.218  32.646  53.639  0.00  0.00    -0.203 N 
ATOM      2  N   UNL d   1      52.768  33.311  53.395  0.00  0.00    -0.163 NA
ATOM      3  C   UNL d   1      52.786  31.967  53.541  0.00  0.00     0.088 A 
ATOM      4  C   UNL d   1      52.050  33.015  53.145  0.00  0.00     0.103 A 
ATOM      5  C   UNL d   1      52.055  32.201  53.232  0.00  0.00     0.040 A 
ENDROOT
BRANCH   3   6
ATOM      6  C   UNL d   1      53.000  31.212  53.704  0.00  0.00     0.029 A 
ATOM      7  C   UNL d   1      53.032  30.652  53.097  0.00  0.00     0.060 A 
ATOM      8  C   UNL d   1      53.248  29.894  53.265  0.00  0.00     0.023 A 
ATOM      9 CL   UNL d   1      52.841  30.882  52.323  0.00  0.00    -0.082 Cl
ATOM     10  C   UNL d   1      53.438  29.669  54.040  0.00  0.00     0.059 A 
ATOM     11  C   UNL d   1      53.408  30.203  54.621  0.00  0.00     0.011 A 
ATOM     12 CL   UNL d   1      53.659  28.896  54.220  0.00  0.00    -0.082 Cl
ATOM     13  C   UNL d   1      53.186  30.987  54.459  0.00  0.00     0.003 A 
ENDBRANCH   3   6
BRANCH   1  14
ATOM     14  C   UNL d   1      54.004  32.700  53.940  0.00  0.00     0.222 C 
ATOM     15  S   UNL d   1      54.129  32.773  54.764  0.00  0.00    -0.037 SA
BRANCH  14  16
ATOM     16  N   UNL d   1      54.636  32.681  53.422  0.00  0.00    -0.214 NA
ATOM     17  C   UNL d   1      55.324  33.123  53.574  0.00  0.00     0.122 C 
ENDBRANCH  14  16
ENDBRANCH   1  14
BRANCH   4  18
ATOM     18  C   UNL d   1      51.458  33.486  52.865  0.00  0.00     0.019 A 
ATOM     19  C   UNL d   1      50.764  33.576  53.302  0.00  0.00     0.004 A 
ATOM     20  C   UNL d   1      50.150  34.051  53.033  0.00  0.00     0.024 A 
ATOM     21  C   UNL d   1      50.238  34.450  52.296  0.00  0.00     0.094 A 
ATOM     22  C   UNL d   1      50.932  34.360  51.860  0.00  0.00     0.024 A 
ATOM     23  C   UNL d   1      51.544  33.878  52.142  0.00  0.00     0.004 A 
BRANCH  21  24
ATOM     24  O   UNL d   1      49.617  34.940  52.008  0.00  0.00    -0.328 OA
ATOM     25  C   UNL d   1      49.047  34.632  51.498  0.00  0.00     0.181 C 
ENDBRANCH  21  24
ENDBRANCH   4  18
TORSDOF 5
ENDMDL
MODEL 2
REMARK VINA RESULT:      -8.2      1.619      2.517
REMARK  5 active torsions:
REMARK  status: ('A' for Active; 'I' for Inactive)
REMARK    1  A    between atoms: C_6  and  N_1 
REMARK    2  A    between atoms: C_5  and  C_3 
REMARK    3  A    between atoms: C_11  and  C_4 
REMARK    4  A    between atoms: N_13  and  C_6 
REMARK    5  A    between atoms: O_23  and  C_19 
ROOT
ATOM      1  N   UNL d   1      52.873  32.527  53.352  0.00  0.00    -0.203 N 
ATOM      2  N   UNL d   1      52.149  32.638  52.942  0.00  0.00    -0.163 NA
ATOM      3  C   UNL d   1      53.135  33.234  53.648  0.00  0.00     0.088 A 
ATOM      4  C   UNL d   1      51.979  33.434  52.998  0.00  0.00     0.103 A 
ATOM      5  C   UNL d   1      52.574  33.801  53.426  0.00  0.00     0.040 A 
ENDROOT
BRANCH   3   6
ATOM      6  C   UNL d   1      53.799  33.382  54.073  0.00  0.00     0.029 A 
ATOM      7  C   UNL d   1      53.740  33.696  54.835  0.00  0.00     0.060 A 
ATOM      8  C   UNL d   1      54.410  33.843  55.258  0.00  0.00     0.023 A 
ATOM      9 CL   UNL d   1      52.990  33.855  55.151  0.00  0.00    -0.082 Cl
ATOM     10  C   UNL d   1      55.158  33.682  54.938  0.00  0.00     0.059 A 
ATOM     11  C   UNL d   1      55.215  33.382  54.210  0.00  0.00     0.011 A 
ATOM     12 CL   UNL d   1      55.847  33.829  55.365  0.00  0.00    -0.082 Cl
ATOM     13  C   UNL d   1      54.531  33.226  53.765  0.00  0.00     0.003 A 
ENDBRANCH   3   6
BRANCH   1  14
ATOM     14  C   UNL d   1      53.254  31.779  53.430  0.00  0.00     0.222 C 
ATOM     15  S   UNL d   1      53.868  31.567  52.903  0.00  0.00    -0.037 SA
BRANCH  14  16
ATOM     16  N   UNL d   1      53.019  31.267  54.023  0.00  0.00    -0.214 NA
ATOM     17  C   UNL d   1      53.129  30.447  53.946  0.00  0.00     0.122 C 
ENDBRANCH  14  16
ENDBRANCH   1  14
BRANCH   4  18
ATOM     18  C   UNL d   1      51.320  33.764  52.671  0.00  0.00     0.019 A 
ATOM     19  C   UNL d   1      50.618  33.793  53.104  0.00  0.00     0.004 A 
ATOM     20  C   UNL d   1      49.937  34.125  52.788  0.00  0.00     0.024 A 
ATOM     21  C   UNL d   1      49.963  34.440  52.006  0.00  0.00     0.094 A 
ATOM     22  C   UNL d   1      50.665  34.411  51.575  0.00  0.00     0.024 A 
ATOM     23  C   UNL d   1      51.346  34.073  51.905  0.00  0.00     0.004 A 
BRANCH  21  24
ATOM     24  O   UNL d   1      49.272  34.784  51.669  0.00  0.00    -0.328 OA
ATOM     25  C   UNL d   1      48.924  34.447  51.001  0.00  0.00     0.181 C 
ENDBRANCH  21  24
ENDBRANCH   4  18
TORSDOF 5
ENDMDL
MODEL 3
REMARK VINA RESULT:      -7.4      2.225      4.459
REMARK  5 active torsions:
REMARK  status: ('A' for Active; 'I' for Inactive)
REMARK    1  A    between atoms: C_6  and  N_1 
REMARK    2  A    between atoms: C_5  and  C_3 
REMARK    3  A    between atoms: C_11  and  C_4 
REMARK    4  A    between atoms: N_13  and  C_6 
REMARK    5  A    between atoms: O_23  and  C_19 
ROOT
ATOM      1  N   UNL d   1      52.553  33.578  53.237  0.00  0.00    -0.203 N 
ATOM      2  N   UNL d   1      53.043  32.938  53.471  0.00  0.00    -0.163 NA
ATOM      3  C   UNL d   1      51.855  33.297  52.934  0.00  0.00     0.088 A 
ATOM      4  C   UNL d   1      52.622  32.260  53.301  0.00  0.00     0.103 A 
ATOM      5  C   UNL d   1      51.900  32.472  52.975  0.00  0.00     0.040 A 
ENDROOT
BRANCH   3   6
ATOM      6  C   UNL d   1      51.233  33.713  52.647  0.00  0.00     0.029 A 
ATOM      7  C   UNL d   1      50.527  33.749  53.075  0.00  0.00     0.060 A 
ATOM      8  C   UNL d   1      49.904  34.168  52.782  0.00  0.00     0.023 A 
ATOM      9 CL   UNL d   1      50.473  33.350  53.800  0.00  0.00    -0.082 Cl
ATOM     10  C   UNL d   1      49.964  34.565  52.057  0.00  0.00     0.059 A 
ATOM     11  C   UNL d   1      50.638  34.532  51.647  0.00  0.00     0.011 A 
ATOM     12 CL   UNL d   1      49.331  34.995  51.751  0.00  0.00    -0.082 Cl
ATOM     13  C   UNL d   1      51.286  34.102  51.939  0.00  0.00     0.003 A 
ENDBRANCH   3   6
BRANCH   1  14
ATOM     14  C   UNL d   1      52.775  34.387  53.316  0.00  0.00     0.222 C 
ATOM     15  S   UNL d   1      53.133  34.784  52.673  0.00  0.00    -0.037 SA
BRANCH  14  16
ATOM     16  N   UNL d   1      52.637  34.776  54.022  0.00  0.00    -0.214 NA
ATOM     17  C   UNL d   1      53.121  35.409  54.261  0.00  0.00     0.122 C 
ENDBRANCH  14  16
ENDBRANCH   1  14
BRANCH   4  18
ATOM     18  C   UNL d   1      52.908  31.520  53.447  0.00  0.00     0.019 A 
ATOM     19  C   UNL d   1      52.709  30.897  52.943  0.00  0.00     0.004 A 
ATOM     20  C   UNL d   1      52.990  30.137  53.075  0.00  0.00     0.024 A 
ATOM     21  C   UNL d   1      53.491  29.999  53.739  0.00  0.00     0.094 A 
ATOM     22  C   UNL d   1      53.690  30.622  54.241  0.00  0.00     0.024 A 
ATOM     23  C   UNL d   1      53.399  31.385  54.097  0.00  0.00     0.004 A 
BRANCH  21  24
ATOM     24  O   UNL d   1      53.787  29.225  53.886  0.00  0.00    -0.328 OA
ATOM     25  C   UNL d   1      53.529  28.799  54.544  0.00  0.00     0.181 C 
ENDBRANCH  21  24
ENDBRANCH   4  18
TORSDOF 5
ENDMDL
MODEL 4
REMARK VINA RESULT:      -6.9      2.616      4.571
REMARK  5 active torsions:
REMARK  status: ('A' for Active; 'I' for Inactive)
REMARK    1  A    between atoms: C_6  and  N_1 
REMARK    2  A    between atoms: C_5  and  C_3 
REMARK    3  A    between atoms: C_11  and  C_4 
REMARK    4  A    between atoms: N_13  and  C_6 
REMARK    5  A    between atoms: O_23  and  C_19 
ROOT
ATOM      1  N   UNL d   1      52.060  33.295  53.103  0.00  0.00    -0.203 N 
ATOM      2  N   UNL d   1      52.049  32.462  53.004  0.00  0.00    -0.163 NA
ATOM      3  C   UNL d   1      52.679  33.510  53.579  0.00  0.00     0.088 A 
ATOM      4  C   UNL d   1      52.680  32.177  53.435  0.00  0.00     0.103 A 
ATOM      5  C   UNL d   1      53.066  32.809  53.786  0.00  0.00     0.040 A 
ENDROOT
BRANCH   3   6
ATOM      6  C   UNL d   1      52.894  34.245  53.817  0.00  0.00     0.029 A 
ATOM      7  C   UNL d   1      52.959  34.417  54.623  0.00  0.00     0.060 A 
ATOM      8  C   UNL d   1      53.175  35.156  54.856  0.00  0.00     0.023 A 
ATOM      9 CL   UNL d   1      52.799  33.821  55.177  0.00  0.00    -0.082 Cl
ATOM     10  C   UNL d   1      53.334  35.748  54.297  0.00  0.00     0.059 A 
ATOM     11  C   UNL d   1      53.272  35.586  53.527  0.00  0.00     0.011 A 
ATOM     12 CL   UNL d   1      53.556  36.507  54.529  0.00  0.00    -0.082 Cl
ATOM     13  C   UNL d   1      53.050  34.826  53.275  0.00  0.00     0.003 A 
ENDBRANCH   3   6
BRANCH   1  14
ATOM     14  C   UNL d   1      51.498  33.814  52.748  0.00  0.00     0.222 C 
ATOM     15  S   UNL d   1      51.662  34.158  52.004  0.00  0.00    -0.037 SA
BRANCH  14  16
ATOM     16  N   UNL d   1      50.796  33.974  53.136  0.00  0.00    -0.214 NA
ATOM     17  C   UNL d   1      50.121  34.216  52.714  0.00  0.00     0.122 C 
ENDBRANCH  14  16
ENDBRANCH   1  14
BRANCH   4  18
ATOM     18  C   UNL d   1      52.859  31.392  53.480  0.00  0.00     0.019 A 
ATOM     19  C   UNL d   1      52.273  30.829  53.336  0.00  0.00     0.004 A 
ATOM     20  C   UNL d   1      52.436  30.025  53.377  0.00  0.00     0.024 A 
ATOM     21  C   UNL d   1      53.218  29.778  53.572  0.00  0.00     0.094 A 
ATOM     22  C   UNL d   1      53.803  30.341  53.716  0.00  0.00     0.024 A 
ATOM     23  C   UNL d   1      53.626  31.150  53.671  0.00  0.00     0.004 A 
BRANCH  21  24
ATOM     24  O   UNL d   1      53.400  28.958  53.618  0.00  0.00    -0.328 OA
ATOM     25  C   UNL d   1      53.490  28.592  54.352  0.00  0.00     0.181 C 
ENDBRANCH  21  24
ENDBRANCH   4  18
TORSDOF 5
ENDMDL
