MODEL 1
REMARK VINA RESULT:      -6.7      0.000      0.000
REMARK  3 active torsions:
REMARK  status: ('A' for Active; 'I' for Inactive)
REMARK    1  A    between atoms: N_5  and  C_1 
REMARK    2  A    between atoms: C_2  and  C_6 
REMARK       I    between atoms: C_11  and  N_5 
REMARK    3  A    between atoms: C_9  and  C_11 
ROOT
ATOM      1  C   UNL d   1     -46.960  13.276  22.458  0.00  0.00     0.053 A 
ATOM      2  S   UNL d   1     -47.110  13.978  22.870  0.00  0.00    -0.080 SA
ATOM      3  C   UNL d   1     -47.620  14.438  22.406  0.00  0.00     0.087 A 
ATOM      4  C   UNL d   1     -47.374  13.300  21.746  0.00  0.00     0.009 A 
ATOM      5  C   UNL d   1     -47.784  14.019  21.712  0.00  0.00     0.012 A 
ENDROOT
BRANCH   3   6
ATOM      6  C   UNL d   1     -47.914  15.185  22.605  0.00  0.00     0.287 C 
ATOM      7  N   UNL d   1     -48.703  15.267  22.824  0.00  0.00    -0.182 NA
ATOM      8  O   UNL d   1     -47.416  15.844  22.585  0.00  0.00    -0.265 OA
BRANCH   7   9
ATOM      9  C   UNL d   1     -49.204  14.604  22.845  0.00  0.00     0.197 A 
ATOM     10  N   UNL d   1     -49.694  14.350  22.232  0.00  0.00    -0.221 NA
ATOM     11  C   UNL d   1     -50.086  13.678  22.492  0.00  0.00     0.090 A 
ATOM     12  C   UNL d   1     -50.636  13.195  22.122  0.00  0.00     0.020 A 
ATOM     13  C   UNL d   1     -49.834  13.528  23.258  0.00  0.00     0.050 A 
ATOM     14  C   UNL d   1     -50.935  12.553  22.528  0.00  0.00     0.002 A 
ATOM     15  C   UNL d   1     -50.696  12.387  23.292  0.00  0.00     0.001 A 
ATOM     16  C   UNL d   1     -50.144  12.867  23.674  0.00  0.00     0.008 A 
ATOM     17  C   UNL d   1     -51.003  11.736  23.697  0.00  0.00     0.000 C 
ATOM     18  S   UNL d   1     -49.291  14.095  23.480  0.00  0.00    -0.047 SA
ENDBRANCH   7   9
ENDBRANCH   3   6
BRANCH   1  19
ATOM     19  C   UNL d   1     -46.477  12.657  22.718  0.00  0.00     0.117 A 
ATOM     20  N   UNL d   1     -46.740  11.966  23.086  0.00  0.00    -0.238 NA
ATOM     21  C   UNL d   1     -46.071  11.503  23.251  0.00  0.00     0.088 A 
ATOM     22  C   UNL d   1     -45.989  10.765  23.609  0.00  0.00     0.020 A 
ATOM     23  C   UNL d   1     -45.404  11.911  22.983  0.00  0.00     0.049 A 
ATOM     24  C   UNL d   1     -45.241  10.437  23.698  0.00  0.00     0.002 A 
ATOM     25  C   UNL d   1     -44.573  10.845  23.430  0.00  0.00     0.001 A 
ATOM     26  C   UNL d   1     -44.654  11.581  23.073  0.00  0.00     0.008 A 
ATOM     27  S   UNL d   1     -45.659  12.627  22.652  0.00  0.00    -0.066 SA
ENDBRANCH   1  19
TORSDOF 3
ENDMDL
MODEL 2
REMARK VINA RESULT:      -5.3      1.833      2.594
REMARK  3 active torsions:
REMARK  status: ('A' for Active; 'I' for Inactive)
REMARK    1  A    between atoms: N_5  and  C_1 
REMARK    2  A    between atoms: C_2  and  C_6 
REMARK       I    between atoms: C_11  and  N_5 
REMARK    3  A    between atoms: C_9  and  C_11 
ROOT
ATOM      1  C   UNL d   1     -46.500  12.355  23.003  0.00  0.00     0.053 A 
ATOM      2  S   UNL d   1     -47.001  11.703  22.906  0.00  0.00    -0.080 SA
ATOM      3  C   UNL d   1     -47.696  11.854  23.331  0.00  0.00     0.087 A 
ATOM      4  C   UNL d   1     -46.882  12.904  23.485  0.00  0.00     0.009 A 
ATOM      5  C   UNL d   1     -47.623  12.596  23.689  0.00  0.00     0.012 A 
ENDROOT
BRANCH   3   6
ATOM      6  C   UNL d   1     -48.349  11.348  23.387  0.00  0.00     0.287 C 
ATOM      7  N   UNL d   1     -49.096  11.623  23.177  0.00  0.00    -0.182 NA
ATOM      8  O   UNL d   1     -48.249  10.571  23.651  0.00  0.00    -0.265 OA
BRANCH   7   9
ATOM      9  C   UNL d   1     -49.196  12.404  22.912  0.00  0.00     0.197 A 
ATOM     10  N   UNL d   1     -49.137  12.659  22.130  0.00  0.00    -0.221 NA
ATOM     11  C   UNL d   1     -49.276  13.467  22.122  0.00  0.00     0.090 A 
ATOM     12  C   UNL d   1     -49.288  14.009  21.507  0.00  0.00     0.020 A 
ATOM     13  C   UNL d   1     -49.419  13.698  22.896  0.00  0.00     0.050 A 
ATOM     14  C   UNL d   1     -49.446  14.793  21.672  0.00  0.00     0.002 A 
ATOM     15  C   UNL d   1     -49.591  15.042  22.437  0.00  0.00     0.001 A 
ATOM     16  C   UNL d   1     -49.581  14.506  23.064  0.00  0.00     0.008 A 
ATOM     17  C   UNL d   1     -49.750  15.837  22.598  0.00  0.00     0.000 C 
ATOM     18  S   UNL d   1     -49.371  13.047  23.386  0.00  0.00    -0.047 SA
ENDBRANCH   7   9
ENDBRANCH   3   6
BRANCH   1  19
ATOM     19  C   UNL d   1     -45.746  12.439  22.674  0.00  0.00     0.117 A 
ATOM     20  N   UNL d   1     -45.097  11.956  22.834  0.00  0.00    -0.238 NA
ATOM     21  C   UNL d   1     -44.460  12.240  22.385  0.00  0.00     0.088 A 
ATOM     22  C   UNL d   1     -43.679  11.986  22.317  0.00  0.00     0.020 A 
ATOM     23  C   UNL d   1     -44.722  12.895  21.952  0.00  0.00     0.049 A 
ATOM     24  C   UNL d   1     -43.163  12.385  21.818  0.00  0.00     0.002 A 
ATOM     25  C   UNL d   1     -43.425  13.040  21.385  0.00  0.00     0.001 A 
ATOM     26  C   UNL d   1     -44.203  13.294  21.452  0.00  0.00     0.008 A 
ATOM     27  S   UNL d   1     -45.521  13.015  22.134  0.00  0.00    -0.066 SA
ENDBRANCH   1  19
TORSDOF 3
ENDMDL
MODEL 3
REMARK VINA RESULT:      -5.0      0.804      1.153
REMARK  3 active torsions:
REMARK  status: ('A' for Active; 'I' for Inactive)
REMARK    1  A    between atoms: N_5  and  C_1 
REMARK    2  A    between atoms: C_2  and  C_6 
REMARK       I    between atoms: C_11  and  N_5 
REMARK    3  A    between atoms: C_9  and  C_11 
ROOT
ATOM      1  C   UNL d   1     -46.683  13.300  23.092  0.00  0.00     0.053 A 
ATOM      2  S   UNL d   1     -46.817  13.709  22.384  0.00  0.00    -0.080 SA
ATOM      3  C   UNL d   1     -47.298  14.362  22.559  0.00  0.00     0.087 A 
ATOM      4  C   UNL d   1     -47.078  13.696  23.698  0.00  0.00     0.009 A 
ATOM      5  C   UNL d   1     -47.459  14.353  23.370  0.00  0.00     0.012 A 
ENDROOT
BRANCH   3   6
ATOM      6  C   UNL d   1     -47.569  14.922  22.013  0.00  0.00     0.287 C 
ATOM      7  N   UNL d   1     -48.371  14.958  21.831  0.00  0.00    -0.182 NA
ATOM      8  O   UNL d   1     -47.035  15.441  21.655  0.00  0.00    -0.265 OA
BRANCH   7   9
ATOM      9  C   UNL d   1     -48.907  14.436  22.191  0.00  0.00     0.197 A 
ATOM     10  N   UNL d   1     -49.262  14.541  22.928  0.00  0.00    -0.221 NA
ATOM     11  C   UNL d   1     -49.747  13.894  23.063  0.00  0.00     0.090 A 
ATOM     12  C   UNL d   1     -50.231  13.704  23.698  0.00  0.00     0.020 A 
ATOM     13  C   UNL d   1     -49.685  13.401  22.411  0.00  0.00     0.050 A 
ATOM     14  C   UNL d   1     -50.657  13.007  23.675  0.00  0.00     0.002 A 
ATOM     15  C   UNL d   1     -50.609  12.503  23.033  0.00  0.00     0.001 A 
ATOM     16  C   UNL d   1     -50.126  12.685  22.390  0.00  0.00     0.008 A 
ATOM     17  C   UNL d   1     -51.043  11.800  23.017  0.00  0.00     0.000 C 
ATOM     18  S   UNL d   1     -49.169  13.730  21.871  0.00  0.00    -0.047 SA
ENDBRANCH   7   9
ENDBRANCH   3   6
BRANCH   1  19
ATOM     19  C   UNL d   1     -46.230  12.613  23.174  0.00  0.00     0.117 A 
ATOM     20  N   UNL d   1     -45.428  12.543  22.995  0.00  0.00    -0.238 NA
ATOM     21  C   UNL d   1     -45.204  11.762  23.161  0.00  0.00     0.088 A 
ATOM     22  C   UNL d   1     -44.481  11.371  23.093  0.00  0.00     0.020 A 
ATOM     23  C   UNL d   1     -45.869  11.357  23.441  0.00  0.00     0.049 A 
ATOM     24  C   UNL d   1     -44.425  10.579  23.303  0.00  0.00     0.002 A 
ATOM     25  C   UNL d   1     -45.090  10.175  23.583  0.00  0.00     0.001 A 
ATOM     26  C   UNL d   1     -45.811  10.563  23.652  0.00  0.00     0.008 A 
ATOM     27  S   UNL d   1     -46.505  11.889  23.448  0.00  0.00    -0.066 SA
ENDBRANCH   1  19
TORSDOF 3
ENDMDL
MODEL 4
REMARK VINA RESULT:      -3.8      1.641      2.763
REMARK  3 active torsions:
REMARK  status: ('A' for Active; 'I' for Inactive)
REMARK    1  A    between atoms: N_5  and  C_1 
REMARK    2  A    between atoms: C_2  and  C_6 
REMARK       I    between atoms: C_11  and  N_5 
REMARK    3  A    between atoms: C_9  and  C_11 
ROOT
ATOM      1  C   UNL d   1     -48.164  11.586  23.102  0.00  0.00     0.053 A 
ATOM      2  S   UNL d   1     -48.564  11.602  22.377  0.00  0.00    -0.080 SA
ATOM      3  C   UNL d   1     -49.347  11.832  22.528  0.00  0.00     0.087 A 
ATOM      4  C   UNL d   1     -48.693  11.803  23.695  0.00  0.00     0.009 A 
ATOM      5  C   UNL d   1     -49.426  11.956  23.342  0.00  0.00     0.012 A 
ENDROOT
BRANCH   3   6
ATOM      6  C   UNL d   1     -49.942  11.920  21.961  0.00  0.00     0.287 C 
ATOM      7  N   UNL d   1     -50.108  12.668  21.658  0.00  0.00    -0.182 NA
ATOM      8  O   UNL d   1     -50.367  11.260  21.700  0.00  0.00    -0.265 OA
BRANCH   7   9
ATOM      9  C   UNL d   1     -49.681  13.330  21.920  0.00  0.00     0.197 A 
ATOM     10  N   UNL d   1     -49.882  13.812  22.559  0.00  0.00    -0.221 NA
ATOM     11  C   UNL d   1     -49.309  14.396  22.618  0.00  0.00     0.090 A 
ATOM     12  C   UNL d   1     -49.224  15.020  23.143  0.00  0.00     0.020 A 
ATOM     13  C   UNL d   1     -48.766  14.267  22.017  0.00  0.00     0.050 A 
ATOM     14  C   UNL d   1     -48.584  15.521  23.062  0.00  0.00     0.002 A 
ATOM     15  C   UNL d   1     -48.032  15.409  22.470  0.00  0.00     0.001 A 
ATOM     16  C   UNL d   1     -48.108  14.784  21.937  0.00  0.00     0.008 A 
ATOM     17  C   UNL d   1     -47.386  15.919  22.394  0.00  0.00     0.000 C 
ATOM     18  S   UNL d   1     -48.990  13.612  21.585  0.00  0.00    -0.047 SA
ENDBRANCH   7   9
ENDBRANCH   3   6
BRANCH   1  19
ATOM     19  C   UNL d   1     -47.368  11.386  23.210  0.00  0.00     0.117 A 
ATOM     20  N   UNL d   1     -46.727  11.890  23.087  0.00  0.00    -0.238 NA
ATOM     21  C   UNL d   1     -46.038  11.461  23.261  0.00  0.00     0.088 A 
ATOM     22  C   UNL d   1     -45.241  11.669  23.240  0.00  0.00     0.020 A 
ATOM     23  C   UNL d   1     -46.261  10.698  23.490  0.00  0.00     0.049 A 
ATOM     24  C   UNL d   1     -44.670  11.116  23.447  0.00  0.00     0.002 A 
ATOM     25  C   UNL d   1     -44.893  10.354  23.676  0.00  0.00     0.001 A 
ATOM     26  C   UNL d   1     -45.687  10.144  23.698  0.00  0.00     0.008 A 
ATOM     27  S   UNL d   1     -47.088  10.655  23.457  0.00  0.00    -0.066 SA
ENDBRANCH   1  19
TORSDOF 3
ENDMDL
