MODEL 1
REMARK VINA RESULT:      -7.2      0.000      0.000
REMARK  5 active torsions:
REMARK  status: ('A' for Active; 'I' for Inactive)
REMARK    1  A    between atoms: N_4  and  C_2 
REMARK    2  A    between atoms: S_8  and  C_3 
REMARK    3  A    between atoms: C_10  and  S_8 
REMARK    4  A    between atoms: C_9  and  C_10 
REMARK    5  A    between atoms: C_12  and  C_9 
ROOT
ATOM      1  N   UNL d   1     -49.097  13.090  23.352  0.00  0.00    -0.203 NA
ATOM      2  C   UNL d   1     -49.897  13.307  23.291  0.00  0.00     0.152 A 
ATOM      3  C   UNL d   1     -48.901  12.323  23.529  0.00  0.00     0.196 A 
ATOM      4  C   UNL d   1     -50.471  12.785  23.402  0.00  0.00     0.057 A 
ATOM      5  N   UNL d   1     -49.504  11.774  23.646  0.00  0.00    -0.221 NA
ATOM      6  C   UNL d   1     -50.304  11.991  23.586  0.00  0.00     0.087 A 
ATOM      7  C   UNL d   1     -50.937  11.461  23.698  0.00  0.00     0.021 C 
ENDROOT
BRANCH   3   8
ATOM      8  S   UNL d   1     -48.125  12.075  23.597  0.00  0.00    -0.045 SA
BRANCH   8   9
ATOM      9  C   UNL d   1     -47.527  12.554  23.290  0.00  0.00     0.080 C 
BRANCH   9  10
ATOM     10  C   UNL d   1     -46.720  12.327  23.309  0.00  0.00     0.202 C 
ATOM     11  O   UNL d   1     -46.466  11.653  23.698  0.00  0.00    -0.286 OA
BRANCH  10  12
ATOM     12  C   UNL d   1     -46.215  12.829  22.912  0.00  0.00     0.040 A 
ATOM     13  C   UNL d   1     -45.654  12.493  22.364  0.00  0.00     0.003 A 
ATOM     14  C   UNL d   1     -45.154  12.955  21.966  0.00  0.00     0.000 A 
ATOM     15  C   UNL d   1     -45.159  13.774  22.069  0.00  0.00     0.000 A 
ATOM     16  C   UNL d   1     -45.689  14.101  22.589  0.00  0.00     0.000 A 
ATOM     17  C   UNL d   1     -46.220  13.648  23.015  0.00  0.00     0.003 A 
ENDBRANCH  10  12
ENDBRANCH   9  10
ENDBRANCH   8   9
ENDBRANCH   3   8
BRANCH   2  18
ATOM     18  N   UNL d   1     -50.073  14.111  23.105  0.00  0.00    -0.285 N 
ATOM     19  C   UNL d   1     -50.216  14.633  23.672  0.00  0.00     0.108 A 
ATOM     20  C   UNL d   1     -50.393  15.437  23.506  0.00  0.00     0.142 A 
ATOM     21  O   UNL d   1     -50.408  15.649  22.689  0.00  0.00    -0.300 OA
ATOM     22  C   UNL d   1     -50.259  15.098  22.150  0.00  0.00     0.142 A 
ATOM     23  C   UNL d   1     -50.090  14.328  22.302  0.00  0.00     0.108 A 
ENDBRANCH   2  18
TORSDOF 5
ENDMDL
MODEL 2
REMARK VINA RESULT:      -6.4      1.854      4.812
REMARK  5 active torsions:
REMARK  status: ('A' for Active; 'I' for Inactive)
REMARK    1  A    between atoms: N_4  and  C_2 
REMARK    2  A    between atoms: S_8  and  C_3 
REMARK    3  A    between atoms: C_10  and  S_8 
REMARK    4  A    between atoms: C_9  and  C_10 
REMARK    5  A    between atoms: C_12  and  C_9 
ROOT
ATOM      1  N   UNL d   1     -46.167  13.365  22.676  0.00  0.00    -0.203 NA
ATOM      2  C   UNL d   1     -45.828  12.607  22.722  0.00  0.00     0.152 A 
ATOM      3  C   UNL d   1     -46.912  13.491  22.972  0.00  0.00     0.196 A 
ATOM      4  C   UNL d   1     -46.214  12.007  23.047  0.00  0.00     0.057 A 
ATOM      5  N   UNL d   1     -47.317  12.861  23.313  0.00  0.00    -0.221 NA
ATOM      6  C   UNL d   1     -46.979  12.102  23.359  0.00  0.00     0.087 A 
ATOM      7  C   UNL d   1     -47.362  11.445  23.698  0.00  0.00     0.021 C 
ENDROOT
BRANCH   3   8
ATOM      8  S   UNL d   1     -47.275  14.223  22.943  0.00  0.00    -0.045 SA
BRANCH   8   9
ATOM      9  C   UNL d   1     -48.079  14.260  22.761  0.00  0.00     0.080 C 
BRANCH   9  10
ATOM     10  C   UNL d   1     -48.454  14.977  22.542  0.00  0.00     0.202 C 
ATOM     11  O   UNL d   1     -48.038  15.607  22.226  0.00  0.00    -0.286 OA
BRANCH  10  12
ATOM     12  C   UNL d   1     -49.259  14.994  22.670  0.00  0.00     0.040 A 
ATOM     13  C   UNL d   1     -49.560  15.476  23.307  0.00  0.00     0.003 A 
ATOM     14  C   UNL d   1     -50.334  15.511  23.453  0.00  0.00     0.000 A 
ATOM     15  C   UNL d   1     -50.872  15.083  22.997  0.00  0.00     0.000 A 
ATOM     16  C   UNL d   1     -50.594  14.622  22.390  0.00  0.00     0.000 A 
ATOM     17  C   UNL d   1     -49.797  14.566  22.214  0.00  0.00     0.003 A 
ENDBRANCH  10  12
ENDBRANCH   9  10
ENDBRANCH   8   9
ENDBRANCH   3   8
BRANCH   2  18
ATOM     18  N   UNL d   1     -45.053  12.503  22.406  0.00  0.00    -0.285 N 
ATOM     19  C   UNL d   1     -44.800  12.941  21.807  0.00  0.00     0.108 A 
ATOM     20  C   UNL d   1     -44.033  12.851  21.480  0.00  0.00     0.142 A 
ATOM     21  O   UNL d   1     -43.547  12.260  21.838  0.00  0.00    -0.300 OA
ATOM     22  C   UNL d   1     -43.835  11.842  22.436  0.00  0.00     0.142 A 
ATOM     23  C   UNL d   1     -44.568  11.923  22.753  0.00  0.00     0.108 A 
ENDBRANCH   2  18
TORSDOF 5
ENDMDL
MODEL 3
REMARK VINA RESULT:      -6.4      8.918     10.419
REMARK  5 active torsions:
REMARK  status: ('A' for Active; 'I' for Inactive)
REMARK    1  A    between atoms: N_4  and  C_2 
REMARK    2  A    between atoms: S_8  and  C_3 
REMARK    3  A    between atoms: C_10  and  S_8 
REMARK    4  A    between atoms: C_9  and  C_10 
REMARK    5  A    between atoms: C_12  and  C_9 
ROOT
ATOM      1  N   UNL d   1     -39.907  15.227  18.202  0.00  0.00    -0.203 NA
ATOM      2  C   UNL d   1     -39.867  15.023  17.397  0.00  0.00     0.152 A 
ATOM      3  C   UNL d   1     -40.532  15.667  18.474  0.00  0.00     0.196 A 
ATOM      4  C   UNL d   1     -40.422  15.248  16.891  0.00  0.00     0.057 A 
ATOM      5  N   UNL d   1     -41.115  15.903  17.943  0.00  0.00    -0.221 NA
ATOM      6  C   UNL d   1     -41.075  15.699  17.137  0.00  0.00     0.087 A 
ATOM      7  C   UNL d   1     -41.648  15.922  16.576  0.00  0.00     0.021 C 
ENDROOT
BRANCH   3   8
ATOM      8  S   UNL d   1     -40.603  15.885  19.259  0.00  0.00    -0.045 SA
BRANCH   8   9
ATOM      9  C   UNL d   1     -40.322  15.372  19.841  0.00  0.00     0.080 C 
BRANCH   9  10
ATOM     10  C   UNL d   1     -40.528  15.458  20.649  0.00  0.00     0.202 C 
ATOM     11  O   UNL d   1     -41.157  15.922  20.890  0.00  0.00    -0.286 OA
BRANCH  10  12
ATOM     12  C   UNL d   1     -40.054  15.044  21.168  0.00  0.00     0.040 A 
ATOM     13  C   UNL d   1     -39.491  15.479  21.640  0.00  0.00     0.003 A 
ATOM     14  C   UNL d   1     -39.020  15.104  22.149  0.00  0.00     0.000 A 
ATOM     15  C   UNL d   1     -39.059  14.285  22.240  0.00  0.00     0.000 A 
ATOM     16  C   UNL d   1     -39.591  13.865  21.795  0.00  0.00     0.000 A 
ATOM     17  C   UNL d   1     -40.092  14.225  21.258  0.00  0.00     0.003 A 
ENDBRANCH  10  12
ENDBRANCH   9  10
ENDBRANCH   8   9
ENDBRANCH   3   8
BRANCH   2  18
ATOM     18  N   UNL d   1     -39.206  14.565  17.140  0.00  0.00    -0.285 N 
ATOM     19  C   UNL d   1     -38.605  14.901  16.766  0.00  0.00     0.108 A 
ATOM     20  C   UNL d   1     -37.940  14.462  16.503  0.00  0.00     0.142 A 
ATOM     21  O   UNL d   1     -37.959  13.633  16.666  0.00  0.00    -0.300 OA
ATOM     22  C   UNL d   1     -38.579  13.333  17.042  0.00  0.00     0.142 A 
ATOM     23  C   UNL d   1     -39.218  13.749  17.296  0.00  0.00     0.108 A 
ENDBRANCH   2  18
TORSDOF 5
ENDMDL
MODEL 4
REMARK VINA RESULT:      -6.0      1.462      2.321
REMARK  5 active torsions:
REMARK  status: ('A' for Active; 'I' for Inactive)
REMARK    1  A    between atoms: N_4  and  C_2 
REMARK    2  A    between atoms: S_8  and  C_3 
REMARK    3  A    between atoms: C_10  and  S_8 
REMARK    4  A    between atoms: C_9  and  C_10 
REMARK    5  A    between atoms: C_12  and  C_9 
ROOT
ATOM      1  N   UNL d   1     -48.155  13.077  23.107  0.00  0.00    -0.203 NA
ATOM      2  C   UNL d   1     -48.835  13.484  22.856  0.00  0.00     0.152 A 
ATOM      3  C   UNL d   1     -47.439  13.461  23.118  0.00  0.00     0.196 A 
ATOM      4  C   UNL d   1     -48.803  14.233  22.629  0.00  0.00     0.057 A 
ATOM      5  N   UNL d   1     -47.405  14.249  22.879  0.00  0.00    -0.221 NA
ATOM      6  C   UNL d   1     -48.086  14.655  22.629  0.00  0.00     0.087 A 
ATOM      7  C   UNL d   1     -48.085  15.450  22.381  0.00  0.00     0.021 C 
ENDROOT
BRANCH   3   8
ATOM      8  S   UNL d   1     -46.750  13.093  23.359  0.00  0.00    -0.045 SA
BRANCH   8   9
ATOM      9  C   UNL d   1     -46.159  12.953  22.800  0.00  0.00     0.080 C 
BRANCH   9  10
ATOM     10  C   UNL d   1     -45.544  12.399  22.931  0.00  0.00     0.202 C 
ATOM     11  O   UNL d   1     -45.599  11.813  23.498  0.00  0.00    -0.286 OA
BRANCH  10  12
ATOM     12  C   UNL d   1     -44.892  12.494  22.449  0.00  0.00     0.040 A 
ATOM     13  C   UNL d   1     -44.228  11.968  22.556  0.00  0.00     0.003 A 
ATOM     14  C   UNL d   1     -43.585  12.037  22.105  0.00  0.00     0.000 A 
ATOM     15  C   UNL d   1     -43.536  12.617  21.520  0.00  0.00     0.000 A 
ATOM     16  C   UNL d   1     -44.164  13.120  21.413  0.00  0.00     0.000 A 
ATOM     17  C   UNL d   1     -44.843  13.074  21.864  0.00  0.00     0.003 A 
ENDBRANCH  10  12
ENDBRANCH   9  10
ENDBRANCH   8   9
ENDBRANCH   3   8
BRANCH   2  18
ATOM     18  N   UNL d   1     -49.566  13.062  22.854  0.00  0.00    -0.285 N 
ATOM     19  C   UNL d   1     -49.978  12.967  23.515  0.00  0.00     0.108 A 
ATOM     20  C   UNL d   1     -50.706  12.551  23.532  0.00  0.00     0.142 A 
ATOM     21  O   UNL d   1     -50.969  12.238  22.792  0.00  0.00    -0.300 OA
ATOM     22  C   UNL d   1     -50.529  12.354  22.152  0.00  0.00     0.142 A 
ATOM     23  C   UNL d   1     -49.832  12.751  22.130  0.00  0.00     0.108 A 
ENDBRANCH   2  18
TORSDOF 5
ENDMDL
MODEL 5
REMARK VINA RESULT:      -5.9      9.690     10.619
REMARK  5 active torsions:
REMARK  status: ('A' for Active; 'I' for Inactive)
REMARK    1  A    between atoms: N_4  and  C_2 
REMARK    2  A    between atoms: S_8  and  C_3 
REMARK    3  A    between atoms: C_10  and  S_8 
REMARK    4  A    between atoms: C_9  and  C_10 
REMARK    5  A    between atoms: C_12  and  C_9 
ROOT
ATOM      1  N   UNL d   1     -38.984  14.667  18.499  0.00  0.00    -0.203 NA
ATOM      2  C   UNL d   1     -39.304  14.383  17.786  0.00  0.00     0.152 A 
ATOM      3  C   UNL d   1     -38.464  14.205  18.918  0.00  0.00     0.196 A 
ATOM      4  C   UNL d   1     -39.115  13.675  17.507  0.00  0.00     0.057 A 
ATOM      5  N   UNL d   1     -38.266  13.461  18.624  0.00  0.00    -0.221 NA
ATOM      6  C   UNL d   1     -38.586  13.177  17.911  0.00  0.00     0.087 A 
ATOM      7  C   UNL d   1     -38.406  12.431  17.589  0.00  0.00     0.021 C 
ENDROOT
BRANCH   3   8
ATOM      8  S   UNL d   1     -38.130  14.452  19.622  0.00  0.00    -0.045 SA
BRANCH   8   9
ATOM      9  C   UNL d   1     -38.448  14.174  20.331  0.00  0.00     0.080 C 
BRANCH   9  10
ATOM     10  C   UNL d   1     -38.271  14.530  21.069  0.00  0.00     0.202 C 
ATOM     11  O   UNL d   1     -37.940  15.276  21.124  0.00  0.00    -0.286 OA
BRANCH  10  12
ATOM     12  C   UNL d   1     -38.456  14.075  21.720  0.00  0.00     0.040 A 
ATOM     13  C   UNL d   1     -39.212  14.193  22.098  0.00  0.00     0.003 A 
ATOM     14  C   UNL d   1     -39.417  13.767  22.729  0.00  0.00     0.000 A 
ATOM     15  C   UNL d   1     -38.907  13.198  23.040  0.00  0.00     0.000 A 
ATOM     16  C   UNL d   1     -38.186  13.080  22.687  0.00  0.00     0.000 A 
ATOM     17  C   UNL d   1     -37.946  13.506  22.032  0.00  0.00     0.003 A 
ENDBRANCH  10  12
ENDBRANCH   9  10
ENDBRANCH   8   9
ENDBRANCH   3   8
BRANCH   2  18
ATOM     18  N   UNL d   1     -39.841  14.883  17.370  0.00  0.00    -0.285 N 
ATOM     19  C   UNL d   1     -40.616  14.812  17.469  0.00  0.00     0.108 A 
ATOM     20  C   UNL d   1     -41.165  15.300  17.065  0.00  0.00     0.142 A 
ATOM     21  O   UNL d   1     -40.832  15.874  16.542  0.00  0.00    -0.300 OA
ATOM     22  C   UNL d   1     -40.051  15.915  16.469  0.00  0.00     0.142 A 
ATOM     23  C   UNL d   1     -39.521  15.450  16.853  0.00  0.00     0.108 A 
ENDBRANCH   2  18
TORSDOF 5
ENDMDL
MODEL 6
REMARK VINA RESULT:      -5.9      7.933     10.164
REMARK  5 active torsions:
REMARK  status: ('A' for Active; 'I' for Inactive)
REMARK    1  A    between atoms: N_4  and  C_2 
REMARK    2  A    between atoms: S_8  and  C_3 
REMARK    3  A    between atoms: C_10  and  S_8 
REMARK    4  A    between atoms: C_9  and  C_10 
REMARK    5  A    between atoms: C_12  and  C_9 
ROOT
ATOM      1  N   UNL d   1     -39.771  14.941  20.187  0.00  0.00    -0.203 NA
ATOM      2  C   UNL d   1     -39.857  14.763  20.995  0.00  0.00     0.152 A 
ATOM      3  C   UNL d   1     -40.359  14.738  19.666  0.00  0.00     0.196 A 
ATOM      4  C   UNL d   1     -40.497  14.401  21.267  0.00  0.00     0.057 A 
ATOM      5  N   UNL d   1     -41.032  14.358  19.952  0.00  0.00    -0.221 NA
ATOM      6  C   UNL d   1     -41.118  14.180  20.760  0.00  0.00     0.087 A 
ATOM      7  C   UNL d   1     -41.785  13.798  21.081  0.00  0.00     0.021 C 
ENDROOT
BRANCH   3   8
ATOM      8  S   UNL d   1     -40.309  14.898  18.866  0.00  0.00    -0.045 SA
BRANCH   8   9
ATOM      9  C   UNL d   1     -39.856  14.398  18.390  0.00  0.00     0.080 C 
BRANCH   9  10
ATOM     10  C   UNL d   1     -39.834  14.476  17.555  0.00  0.00     0.202 C 
ATOM     11  O   UNL d   1     -40.395  14.907  17.144  0.00  0.00    -0.286 OA
BRANCH  10  12
ATOM     12  C   UNL d   1     -39.213  14.091  17.193  0.00  0.00     0.040 A 
ATOM     13  C   UNL d   1     -38.732  14.527  16.639  0.00  0.00     0.003 A 
ATOM     14  C   UNL d   1     -38.125  14.180  16.274  0.00  0.00     0.000 A 
ATOM     15  C   UNL d   1     -37.940  13.389  16.417  0.00  0.00     0.000 A 
ATOM     16  C   UNL d   1     -38.392  12.968  16.942  0.00  0.00     0.000 A 
ATOM     17  C   UNL d   1     -39.027  13.300  17.336  0.00  0.00     0.003 A 
ENDBRANCH  10  12
ENDBRANCH   9  10
ENDBRANCH   8   9
ENDBRANCH   3   8
BRANCH   2  18
ATOM     18  N   UNL d   1     -39.230  14.984  21.514  0.00  0.00    -0.285 N 
ATOM     19  C   UNL d   1     -38.631  14.499  21.652  0.00  0.00     0.108 A 
ATOM     20  C   UNL d   1     -37.999  14.702  22.165  0.00  0.00     0.142 A 
ATOM     21  O   UNL d   1     -38.049  15.464  22.527  0.00  0.00    -0.300 OA
ATOM     22  C   UNL d   1     -38.666  15.922  22.364  0.00  0.00     0.142 A 
ATOM     23  C   UNL d   1     -39.272  15.733  21.874  0.00  0.00     0.108 A 
ENDBRANCH   2  18
TORSDOF 5
ENDMDL
MODEL 7
REMARK VINA RESULT:      -5.6      9.349     11.090
REMARK  5 active torsions:
REMARK  status: ('A' for Active; 'I' for Inactive)
REMARK    1  A    between atoms: N_4  and  C_2 
REMARK    2  A    between atoms: S_8  and  C_3 
REMARK    3  A    between atoms: C_10  and  S_8 
REMARK    4  A    between atoms: C_9  and  C_10 
REMARK    5  A    between atoms: C_12  and  C_9 
ROOT
ATOM      1  N   UNL d   1     -39.217  14.407  17.630  0.00  0.00    -0.203 NA
ATOM      2  C   UNL d   1     -38.672  14.115  17.073  0.00  0.00     0.152 A 
ATOM      3  C   UNL d   1     -39.442  13.940  18.254  0.00  0.00     0.196 A 
ATOM      4  C   UNL d   1     -38.369  13.395  17.137  0.00  0.00     0.057 A 
ATOM      5  N   UNL d   1     -39.124  13.183  18.321  0.00  0.00    -0.221 NA
ATOM      6  C   UNL d   1     -38.580  12.891  17.765  0.00  0.00     0.087 A 
ATOM      7  C   UNL d   1     -38.240  12.132  17.804  0.00  0.00     0.021 C 
ENDROOT
BRANCH   3   8
ATOM      8  S   UNL d   1     -39.976  14.194  18.819  0.00  0.00    -0.045 SA
BRANCH   8   9
ATOM      9  C   UNL d   1     -39.697  14.369  19.576  0.00  0.00     0.080 C 
BRANCH   9  10
ATOM     10  C   UNL d   1     -40.204  14.643  20.185  0.00  0.00     0.202 C 
ATOM     11  O   UNL d   1     -41.014  14.700  20.085  0.00  0.00    -0.286 OA
BRANCH  10  12
ATOM     12  C   UNL d   1     -39.826  14.844  20.879  0.00  0.00     0.040 A 
ATOM     13  C   UNL d   1     -39.772  15.670  21.088  0.00  0.00     0.003 A 
ATOM     14  C   UNL d   1     -39.411  15.893  21.753  0.00  0.00     0.000 A 
ATOM     15  C   UNL d   1     -39.078  15.337  22.263  0.00  0.00     0.000 A 
ATOM     16  C   UNL d   1     -39.126  14.549  22.071  0.00  0.00     0.000 A 
ATOM     17  C   UNL d   1     -39.493  14.287  21.389  0.00  0.00     0.003 A 
ENDBRANCH  10  12
ENDBRANCH   9  10
ENDBRANCH   8   9
ENDBRANCH   3   8
BRANCH   2  18
ATOM     18  N   UNL d   1     -38.454  14.621  16.434  0.00  0.00    -0.285 N 
ATOM     19  C   UNL d   1     -38.499  15.401  16.505  0.00  0.00     0.108 A 
ATOM     20  C   UNL d   1     -38.287  15.919  15.881  0.00  0.00     0.142 A 
ATOM     21  O   UNL d   1     -38.021  15.549  15.169  0.00  0.00    -0.300 OA
ATOM     22  C   UNL d   1     -37.989  14.766  15.137  0.00  0.00     0.142 A 
ATOM     23  C   UNL d   1     -38.191  14.265  15.731  0.00  0.00     0.108 A 
ENDBRANCH   2  18
TORSDOF 5
ENDMDL
