MODEL 1
REMARK VINA RESULT:      77.2      0.000      0.000
REMARK  4 active torsions:
REMARK  status: ('A' for Active; 'I' for Inactive)
REMARK    1  A    between atoms: C_11  and  N_2 
REMARK    2  A    between atoms: N_3  and  C_14 
REMARK    3  A    between atoms: C_16  and  C_11 
REMARK    4  A    between atoms: C_14  and  C_16 
ROOT
ATOM      1  C   UNL d   1     -57.074 -99.497 -43.943  0.00  0.00     0.231 C 
ATOM      2  O   UNL d   1     -56.457 -99.059 -44.275  0.00  0.00    -0.283 OA
ENDROOT
BRANCH   1   3
ATOM      3  C   UNL d   1     -56.928-100.243 -43.620  0.00  0.00     0.124 C 
BRANCH   3   4
ATOM      4  N   UNL d   1     -56.261-100.672 -43.860  0.00  0.00    -0.303 N 
ATOM      5  C   UNL d   1     -55.881-100.618 -44.602  0.00  0.00     0.064 A 
ATOM      6  C   UNL d   1     -55.242-101.145 -44.596  0.00  0.00     0.018 A 
ATOM      7  C   UNL d   1     -56.106-100.127 -45.227  0.00  0.00     0.019 C 
ATOM      8  C   UNL d   1     -54.717-101.269 -45.217  0.00  0.00     0.002 C 
ATOM      9  C   UNL d   1     -55.222-101.523 -43.859  0.00  0.00     0.018 A 
ATOM     10  C   UNL d   1     -55.854-101.229 -43.402  0.00  0.00     0.064 A 
ATOM     11  C   UNL d   1     -54.712-102.097 -43.539  0.00  0.00     0.002 A 
ATOM     12  C   UNL d   1     -55.971-101.513 -42.630  0.00  0.00     0.018 A 
ATOM     13  C   UNL d   1     -55.465-102.081 -42.316  0.00  0.00     0.002 A 
ATOM     14  C   UNL d   1     -54.838-102.372 -42.769  0.00  0.00     0.000 A 
ENDBRANCH   3   4
ENDBRANCH   1   3
BRANCH   1  15
ATOM     15  C   UNL d   1     -57.834 -99.189 -43.935  0.00  0.00     0.138 C 
BRANCH  15  16
ATOM     16  N   UNL d   1     -58.257 -99.097 -44.643  0.00  0.00    -0.194 N 
ATOM     17  S   UNL d   1     -59.068 -98.970 -44.712  0.00  0.00     0.274 S 
ATOM     18  C   UNL d   1     -59.247 -98.911 -45.514  0.00  0.00     0.109 A 
ATOM     19  O   UNL d   1     -59.099 -98.997 -43.888  0.00  0.00    -0.200 OA
ATOM     20  O   UNL d   1     -59.845 -98.841 -44.957  0.00  0.00    -0.200 OA
ATOM     21  C   UNL d   1     -58.546 -99.002 -45.938  0.00  0.00     0.069 A 
ATOM     22  C   UNL d   1     -59.950 -98.788 -45.916  0.00  0.00     0.013 A 
ATOM     23  C   UNL d   1     -58.551 -98.969 -46.756  0.00  0.00     0.005 A 
ATOM     24  C   UNL d   1     -57.933 -99.117 -45.399  0.00  0.00     0.275 A 
ATOM     25  C   UNL d   1     -59.256 -98.846 -47.154  0.00  0.00     0.000 A 
ATOM     26  C   UNL d   1     -59.956 -98.755 -46.730  0.00  0.00     0.001 A 
ATOM     27  O   UNL d   1     -57.139 -99.232 -45.583  0.00  0.00    -0.266 OA
ENDBRANCH  15  16
ENDBRANCH   1  15
TORSDOF 4
ENDMDL
