MODEL 1
REMARK VINA RESULT:      -2.1      0.000      0.000
REMARK  3 active torsions:
REMARK  status: ('A' for Active; 'I' for Inactive)
REMARK    1  A    between atoms: N_5  and  C_1 
REMARK    2  A    between atoms: C_8  and  C_2 
REMARK       I    between atoms: C_7  and  N_5 
REMARK    3  A    between atoms: C_9  and  C_7 
ROOT
ATOM      1  C   UNL d   1      32.953  21.145 -22.255  0.00  0.00     0.119 A 
ATOM      2  C   UNL d   1      32.813  21.535 -21.533  0.00  0.00     0.084 A 
ATOM      3  S   UNL d   1      33.129  21.715 -22.816  0.00  0.00    -0.068 SA
ATOM      4  C   UNL d   1      32.904  22.345 -21.659  0.00  0.00     0.013 A 
ATOM      5  C   UNL d   1      33.101  22.457 -22.458  0.00  0.00     0.031 A 
ATOM      6  C   UNL d   1      32.817  22.939 -21.099  0.00  0.00     0.001 C 
ATOM      7  C   UNL d   1      33.241  23.180 -22.819  0.00  0.00     0.007 C 
ENDROOT
BRANCH   1   8
ATOM      8  N   UNL d   1      32.920  20.333 -22.377  0.00  0.00    -0.200 NA
ATOM      9  C   UNL d   1      33.064  20.028 -23.129  0.00  0.00     0.302 C 
ATOM     10  O   UNL d   1      33.241  20.527 -23.762  0.00  0.00    -0.263 OA
BRANCH   9  11
ATOM     11  C   UNL d   1      33.029  19.206 -23.245  0.00  0.00     0.158 A 
ATOM     12  O   UNL d   1      32.876  18.644 -22.659  0.00  0.00    -0.300 OA
ATOM     13  C   UNL d   1      32.893  17.886 -23.019  0.00  0.00     0.123 A 
ATOM     14  C   UNL d   1      33.055  17.995 -23.814  0.00  0.00     0.029 A 
ATOM     15  C   UNL d   1      33.141  18.804 -23.970  0.00  0.00     0.032 A 
ENDBRANCH   9  11
ENDBRANCH   1   8
BRANCH   2  16
ATOM     16  C   UNL d   1      32.617  21.173 -20.821  0.00  0.00     0.299 C 
ATOM     17  O   UNL d   1      31.817  21.049 -20.624  0.00  0.00    -0.264 OA
ATOM     18  N   UNL d   1      33.208  20.929 -20.293  0.00  0.00    -0.102 N 
ENDBRANCH   2  16
TORSDOF 3
ENDMDL
MODEL 2
REMARK VINA RESULT:      -2.1      2.231      4.753
REMARK  3 active torsions:
REMARK  status: ('A' for Active; 'I' for Inactive)
REMARK    1  A    between atoms: N_5  and  C_1 
REMARK    2  A    between atoms: C_8  and  C_2 
REMARK       I    between atoms: C_7  and  N_5 
REMARK    3  A    between atoms: C_9  and  C_7 
ROOT
ATOM      1  C   UNL d   1      32.343  17.559 -23.872  0.00  0.00     0.119 A 
ATOM      2  C   UNL d   1      31.666  17.238 -24.238  0.00  0.00     0.084 A 
ATOM      3  S   UNL d   1      32.885  16.953 -23.777  0.00  0.00    -0.068 SA
ATOM      4  C   UNL d   1      31.802  16.434 -24.364  0.00  0.00     0.013 A 
ATOM      5  C   UNL d   1      32.562  16.257 -24.077  0.00  0.00     0.031 A 
ATOM      6  C   UNL d   1      31.284  15.900 -24.711  0.00  0.00     0.001 C 
ATOM      7  C   UNL d   1      32.918  15.518 -24.094  0.00  0.00     0.007 C 
ENDROOT
BRANCH   1   8
ATOM      8  N   UNL d   1      32.441  18.343 -23.649  0.00  0.00    -0.200 NA
ATOM      9  C   UNL d   1      32.888  18.523 -22.980  0.00  0.00     0.302 C 
ATOM     10  O   UNL d   1      33.238  17.925 -22.531  0.00  0.00    -0.263 OA
BRANCH   9  11
ATOM     11  C   UNL d   1      32.984  19.319 -22.760  0.00  0.00     0.158 A 
ATOM     12  O   UNL d   1      33.199  19.935 -23.267  0.00  0.00    -0.300 OA
ATOM     13  C   UNL d   1      33.230  20.641 -22.814  0.00  0.00     0.123 A 
ATOM     14  C   UNL d   1      33.034  20.447 -22.043  0.00  0.00     0.029 A 
ATOM     15  C   UNL d   1      32.880  19.635 -21.993  0.00  0.00     0.032 A 
ENDBRANCH   9  11
ENDBRANCH   1   8
BRANCH   2  16
ATOM     16  C   UNL d   1      30.985  17.652 -24.437  0.00  0.00     0.299 C 
ATOM     17  O   UNL d   1      30.280  17.521 -24.012  0.00  0.00    -0.264 OA
ATOM     18  N   UNL d   1      30.988  18.202 -25.057  0.00  0.00    -0.102 N 
ENDBRANCH   2  16
TORSDOF 3
ENDMDL
MODEL 3
REMARK VINA RESULT:      -1.7      1.368      2.004
REMARK  3 active torsions:
REMARK  status: ('A' for Active; 'I' for Inactive)
REMARK    1  A    between atoms: N_5  and  C_1 
REMARK    2  A    between atoms: C_8  and  C_2 
REMARK       I    between atoms: C_7  and  N_5 
REMARK    3  A    between atoms: C_9  and  C_7 
ROOT
ATOM      1  C   UNL d   1      32.991  21.686 -21.374  0.00  0.00     0.119 A 
ATOM      2  C   UNL d   1      32.831  22.489 -21.529  0.00  0.00     0.084 A 
ATOM      3  S   UNL d   1      33.105  21.606 -20.568  0.00  0.00    -0.068 SA
ATOM      4  C   UNL d   1      32.849  22.895 -20.812  0.00  0.00     0.013 A 
ATOM      5  C   UNL d   1      33.020  22.345 -20.213  0.00  0.00     0.031 A 
ATOM      6  C   UNL d   1      32.723  23.699 -20.702  0.00  0.00     0.001 C 
ATOM      7  C   UNL d   1      33.090  22.515 -19.413  0.00  0.00     0.007 C 
ENDROOT
BRANCH   1   8
ATOM      8  N   UNL d   1      33.026  21.087 -21.936  0.00  0.00    -0.200 NA
ATOM      9  C   UNL d   1      33.029  20.300 -21.690  0.00  0.00     0.302 C 
ATOM     10  O   UNL d   1      32.996  20.106 -20.889  0.00  0.00    -0.263 OA
BRANCH   9  11
ATOM     11  C   UNL d   1      33.064  19.699 -22.264  0.00  0.00     0.158 A 
ATOM     12  O   UNL d   1      32.934  19.798 -23.073  0.00  0.00    -0.300 OA
ATOM     13  C   UNL d   1      33.026  19.050 -23.442  0.00  0.00     0.123 A 
ATOM     14  C   UNL d   1      33.210  18.508 -22.856  0.00  0.00     0.029 A 
ATOM     15  C   UNL d   1      33.237  18.893 -22.123  0.00  0.00     0.032 A 
ENDBRANCH   9  11
ENDBRANCH   1   8
BRANCH   2  16
ATOM     16  C   UNL d   1      32.682  22.816 -22.269  0.00  0.00     0.299 C 
ATOM     17  O   UNL d   1      33.241  22.730 -22.881  0.00  0.00    -0.264 OA
ATOM     18  N   UNL d   1      31.980  23.232 -22.415  0.00  0.00    -0.102 N 
ENDBRANCH   2  16
TORSDOF 3
ENDMDL
MODEL 4
REMARK VINA RESULT:      -1.4      5.067      5.478
REMARK  3 active torsions:
REMARK  status: ('A' for Active; 'I' for Inactive)
REMARK    1  A    between atoms: N_5  and  C_1 
REMARK    2  A    between atoms: C_8  and  C_2 
REMARK       I    between atoms: C_7  and  N_5 
REMARK    3  A    between atoms: C_9  and  C_7 
ROOT
ATOM      1  C   UNL d   1      30.044  16.870 -24.363  0.00  0.00     0.119 A 
ATOM      2  C   UNL d   1      29.314  16.707 -23.996  0.00  0.00     0.084 A 
ATOM      3  S   UNL d   1      29.956  17.557 -24.799  0.00  0.00    -0.068 SA
ATOM      4  C   UNL d   1      28.783  17.300 -24.212  0.00  0.00     0.013 A 
ATOM      5  C   UNL d   1      29.183  17.829 -24.713  0.00  0.00     0.031 A 
ATOM      6  C   UNL d   1      27.998  17.362 -23.979  0.00  0.00     0.001 C 
ATOM      7  C   UNL d   1      28.859  18.501 -25.056  0.00  0.00     0.007 C 
ENDROOT
BRANCH   1   8
ATOM      8  N   UNL d   1      30.727  16.418 -24.295  0.00  0.00    -0.200 NA
ATOM      9  C   UNL d   1      31.455  16.747 -24.497  0.00  0.00     0.302 C 
ATOM     10  O   UNL d   1      31.508  17.526 -24.766  0.00  0.00    -0.263 OA
BRANCH   9  11
ATOM     11  C   UNL d   1      32.141  16.284 -24.426  0.00  0.00     0.158 A 
ATOM     12  O   UNL d   1      32.607  16.215 -23.747  0.00  0.00    -0.300 OA
ATOM     13  C   UNL d   1      33.241  15.693 -23.922  0.00  0.00     0.123 A 
ATOM     14  C   UNL d   1      33.154  15.453 -24.700  0.00  0.00     0.029 A 
ATOM     15  C   UNL d   1      32.480  15.809 -25.025  0.00  0.00     0.032 A 
ENDBRANCH   9  11
ENDBRANCH   1   8
BRANCH   2  16
ATOM     16  C   UNL d   1      29.154  16.068 -23.505  0.00  0.00     0.299 C 
ATOM     17  O   UNL d   1      29.502  16.028 -22.749  0.00  0.00    -0.264 OA
ATOM     18  N   UNL d   1      28.650  15.459 -23.753  0.00  0.00    -0.102 N 
ENDBRANCH   2  16
TORSDOF 3
ENDMDL
MODEL 5
REMARK VINA RESULT:      -0.6      3.767      5.447
REMARK  3 active torsions:
REMARK  status: ('A' for Active; 'I' for Inactive)
REMARK    1  A    between atoms: N_5  and  C_1 
REMARK    2  A    between atoms: C_8  and  C_2 
REMARK       I    between atoms: C_7  and  N_5 
REMARK    3  A    between atoms: C_9  and  C_7 
ROOT
ATOM      1  C   UNL d   1      29.931  17.412 -24.420  0.00  0.00     0.119 A 
ATOM      2  C   UNL d   1      29.118  17.590 -24.379  0.00  0.00     0.084 A 
ATOM      3  S   UNL d   1      30.006  16.598 -24.454  0.00  0.00    -0.068 SA
ATOM      4  C   UNL d   1      28.701  16.879 -24.388  0.00  0.00     0.013 A 
ATOM      5  C   UNL d   1      29.255  16.261 -24.435  0.00  0.00     0.031 A 
ATOM      6  C   UNL d   1      27.885  16.790 -24.356  0.00  0.00     0.001 C 
ATOM      7  C   UNL d   1      29.076  15.460 -24.457  0.00  0.00     0.007 C 
ENDROOT
BRANCH   1   8
ATOM      8  N   UNL d   1      30.543  17.961 -24.426  0.00  0.00    -0.200 NA
ATOM      9  C   UNL d   1      31.323  17.701 -24.372  0.00  0.00     0.302 C 
ATOM     10  O   UNL d   1      31.498  16.896 -24.312  0.00  0.00    -0.263 OA
BRANCH   9  11
ATOM     11  C   UNL d   1      31.937  18.261 -24.378  0.00  0.00     0.158 A 
ATOM     12  O   UNL d   1      32.205  18.673 -25.042  0.00  0.00    -0.300 OA
ATOM     13  C   UNL d   1      32.828  19.179 -24.796  0.00  0.00     0.123 A 
ATOM     14  C   UNL d   1      32.931  19.069 -23.991  0.00  0.00     0.029 A 
ATOM     15  C   UNL d   1      32.389  18.506 -23.718  0.00  0.00     0.032 A 
ENDBRANCH   9  11
ENDBRANCH   1   8
BRANCH   2  16
ATOM     16  C   UNL d   1      28.792  18.344 -24.337  0.00  0.00     0.299 C 
ATOM     17  O   UNL d   1      28.619  18.680 -23.594  0.00  0.00    -0.264 OA
ATOM     18  N   UNL d   1      28.632  18.776 -25.026  0.00  0.00    -0.102 N 
ENDBRANCH   2  16
TORSDOF 3
ENDMDL
MODEL 6
REMARK VINA RESULT:      -0.6      1.873      3.343
REMARK  3 active torsions:
REMARK  status: ('A' for Active; 'I' for Inactive)
REMARK    1  A    between atoms: N_5  and  C_1 
REMARK    2  A    between atoms: C_8  and  C_2 
REMARK       I    between atoms: C_7  and  N_5 
REMARK    3  A    between atoms: C_9  and  C_7 
ROOT
ATOM      1  C   UNL d   1      32.829  22.268 -21.618  0.00  0.00     0.119 A 
ATOM      2  C   UNL d   1      32.711  21.501 -21.314  0.00  0.00     0.084 A 
ATOM      3  S   UNL d   1      32.920  22.776 -20.983  0.00  0.00    -0.068 SA
ATOM      4  C   UNL d   1      32.731  21.548 -20.491  0.00  0.00     0.013 A 
ATOM      5  C   UNL d   1      32.862  22.342 -20.285  0.00  0.00     0.031 A 
ATOM      6  C   UNL d   1      32.639  20.925 -19.964  0.00  0.00     0.001 C 
ATOM      7  C   UNL d   1      32.920  22.634 -19.521  0.00  0.00     0.007 C 
ENDROOT
BRANCH   1   8
ATOM      8  N   UNL d   1      32.850  22.471 -22.414  0.00  0.00    -0.200 NA
ATOM      9  C   UNL d   1      32.516  23.183 -22.661  0.00  0.00     0.302 C 
ATOM     10  O   UNL d   1      32.161  23.695 -22.120  0.00  0.00    -0.263 OA
BRANCH   9  11
ATOM     11  C   UNL d   1      32.540  23.381 -23.468  0.00  0.00     0.158 A 
ATOM     12  O   UNL d   1      31.883  23.521 -23.949  0.00  0.00    -0.300 OA
ATOM     13  C   UNL d   1      32.163  23.702 -24.719  0.00  0.00     0.123 A 
ATOM     14  C   UNL d   1      32.981  23.671 -24.698  0.00  0.00     0.029 A 
ATOM     15  C   UNL d   1      33.229  23.474 -23.933  0.00  0.00     0.032 A 
ENDBRANCH   9  11
ENDBRANCH   1   8
BRANCH   2  16
ATOM     16  C   UNL d   1      32.595  20.820 -21.759  0.00  0.00     0.299 C 
ATOM     17  O   UNL d   1      31.825  20.602 -21.993  0.00  0.00    -0.264 OA
ATOM     18  N   UNL d   1      33.237  20.343 -21.980  0.00  0.00    -0.102 N 
ENDBRANCH   2  16
TORSDOF 3
ENDMDL
MODEL 7
REMARK VINA RESULT:       0.2      2.619      4.771
REMARK  3 active torsions:
REMARK  status: ('A' for Active; 'I' for Inactive)
REMARK    1  A    between atoms: N_5  and  C_1 
REMARK    2  A    between atoms: C_8  and  C_2 
REMARK       I    between atoms: C_7  and  N_5 
REMARK    3  A    between atoms: C_9  and  C_7 
ROOT
ATOM      1  C   UNL d   1      32.534  22.170 -20.061  0.00  0.00     0.119 A 
ATOM      2  C   UNL d   1      32.428  22.472 -20.830  0.00  0.00     0.084 A 
ATOM      3  S   UNL d   1      32.714  21.374 -20.129  0.00  0.00    -0.068 SA
ATOM      4  C   UNL d   1      32.546  21.856 -21.364  0.00  0.00     0.013 A 
ATOM      5  C   UNL d   1      32.724  21.171 -20.928  0.00  0.00     0.031 A 
ATOM      6  C   UNL d   1      32.497  21.902 -22.183  0.00  0.00     0.001 C 
ATOM      7  C   UNL d   1      32.880  20.430 -21.243  0.00  0.00     0.007 C 
ENDROOT
BRANCH   1   8
ATOM      8  N   UNL d   1      32.467  22.598 -19.363  0.00  0.00    -0.200 NA
ATOM      9  C   UNL d   1      32.821  22.312 -18.675  0.00  0.00     0.302 C 
ATOM     10  O   UNL d   1      33.240  21.602 -18.678  0.00  0.00    -0.263 OA
BRANCH   9  11
ATOM     11  C   UNL d   1      32.749  22.751 -17.972  0.00  0.00     0.158 A 
ATOM     12  O   UNL d   1      32.286  22.543 -17.321  0.00  0.00    -0.300 OA
ATOM     13  C   UNL d   1      32.378  23.141 -16.739  0.00  0.00     0.123 A 
ATOM     14  C   UNL d   1      32.893  23.702 -17.042  0.00  0.00     0.029 A 
ATOM     15  C   UNL d   1      33.131  23.476 -17.802  0.00  0.00     0.032 A 
ENDBRANCH   9  11
ENDBRANCH   1   8
BRANCH   2  16
ATOM     16  C   UNL d   1      32.240  23.250 -21.019  0.00  0.00     0.299 C 
ATOM     17  O   UNL d   1      31.684  23.666 -20.558  0.00  0.00    -0.264 OA
ATOM     18  N   UNL d   1      32.597  23.628 -21.665  0.00  0.00    -0.102 N 
ENDBRANCH   2  16
TORSDOF 3
ENDMDL
MODEL 8
REMARK VINA RESULT:       0.2      1.193      3.852
REMARK  3 active torsions:
REMARK  status: ('A' for Active; 'I' for Inactive)
REMARK    1  A    between atoms: N_5  and  C_1 
REMARK    2  A    between atoms: C_8  and  C_2 
REMARK       I    between atoms: C_7  and  N_5 
REMARK    3  A    between atoms: C_9  and  C_7 
ROOT
ATOM      1  C   UNL d   1      32.860  20.290 -22.531  0.00  0.00     0.119 A 
ATOM      2  C   UNL d   1      32.904  19.981 -23.304  0.00  0.00     0.084 A 
ATOM      3  S   UNL d   1      32.980  19.672 -22.008  0.00  0.00    -0.068 SA
ATOM      4  C   UNL d   1      33.052  19.172 -23.246  0.00  0.00     0.013 A 
ATOM      5  C   UNL d   1      33.100  18.979 -22.439  0.00  0.00     0.031 A 
ATOM      6  C   UNL d   1      33.139  18.645 -23.870  0.00  0.00     0.001 C 
ATOM      7  C   UNL d   1      33.241  18.231 -22.134  0.00  0.00     0.007 C 
ENDROOT
BRANCH   1   8
ATOM      8  N   UNL d   1      32.720  21.076 -22.335  0.00  0.00    -0.200 NA
ATOM      9  C   UNL d   1      32.687  21.298 -21.542  0.00  0.00     0.302 C 
ATOM     10  O   UNL d   1      32.793  20.741 -20.942  0.00  0.00    -0.263 OA
BRANCH   9  11
ATOM     11  C   UNL d   1      32.545  22.094 -21.352  0.00  0.00     0.158 A 
ATOM     12  O   UNL d   1      31.823  22.407 -21.099  0.00  0.00    -0.300 OA
ATOM     13  C   UNL d   1      31.931  23.229 -20.970  0.00  0.00     0.123 A 
ATOM     14  C   UNL d   1      32.711  23.406 -21.146  0.00  0.00     0.029 A 
ATOM     15  C   UNL d   1      33.103  22.716 -21.382  0.00  0.00     0.032 A 
ENDBRANCH   9  11
ENDBRANCH   1   8
BRANCH   2  16
ATOM     16  C   UNL d   1      32.816  20.410 -23.999  0.00  0.00     0.299 C 
ATOM     17  O   UNL d   1      33.241  21.118 -24.107  0.00  0.00    -0.264 OA
ATOM     18  N   UNL d   1      32.306  20.147 -24.598  0.00  0.00    -0.102 N 
ENDBRANCH   2  16
TORSDOF 3
ENDMDL
MODEL 9
REMARK VINA RESULT:       0.6      1.807      4.065
REMARK  3 active torsions:
REMARK  status: ('A' for Active; 'I' for Inactive)
REMARK    1  A    between atoms: N_5  and  C_1 
REMARK    2  A    between atoms: C_8  and  C_2 
REMARK       I    between atoms: C_7  and  N_5 
REMARK    3  A    between atoms: C_9  and  C_7 
ROOT
ATOM      1  C   UNL d   1      33.041  22.228 -21.275  0.00  0.00     0.119 A 
ATOM      2  C   UNL d   1      33.053  21.478 -21.638  0.00  0.00     0.084 A 
ATOM      3  S   UNL d   1      33.101  22.792 -21.866  0.00  0.00    -0.068 SA
ATOM      4  C   UNL d   1      33.121  21.591 -22.452  0.00  0.00     0.013 A 
ATOM      5  C   UNL d   1      33.150  22.409 -22.594  0.00  0.00     0.031 A 
ATOM      6  C   UNL d   1      33.153  21.003 -23.025  0.00  0.00     0.001 C 
ATOM      7  C   UNL d   1      33.217  22.764 -23.330  0.00  0.00     0.007 C 
ENDROOT
BRANCH   1   8
ATOM      8  N   UNL d   1      32.980  22.371 -20.468  0.00  0.00    -0.200 NA
ATOM      9  C   UNL d   1      32.718  23.106 -20.203  0.00  0.00     0.302 C 
ATOM     10  O   UNL d   1      32.517  23.702 -20.737  0.00  0.00    -0.263 OA
BRANCH   9  11
ATOM     11  C   UNL d   1      32.659  23.243 -19.385  0.00  0.00     0.158 A 
ATOM     12  O   UNL d   1      33.240  23.591 -18.913  0.00  0.00    -0.300 OA
ATOM     13  C   UNL d   1      32.948  23.619 -18.126  0.00  0.00     0.123 A 
ATOM     14  C   UNL d   1      32.198  23.291 -18.130  0.00  0.00     0.029 A 
ATOM     15  C   UNL d   1      32.005  23.054 -18.899  0.00  0.00     0.032 A 
ENDBRANCH   9  11
ENDBRANCH   1   8
BRANCH   2  16
ATOM     16  C   UNL d   1      33.006  20.755 -21.249  0.00  0.00     0.299 C 
ATOM     17  O   UNL d   1      33.153  20.714 -20.430  0.00  0.00    -0.264 OA
ATOM     18  N   UNL d   1      32.813  20.063 -21.663  0.00  0.00    -0.102 N 
ENDBRANCH   2  16
TORSDOF 3
ENDMDL
