MODEL 1
REMARK VINA RESULT:      30.2      0.000      0.000
REMARK  4 active torsions:
REMARK  status: ('A' for Active; 'I' for Inactive)
REMARK    1  A    between atoms: S_16  and  C_7 
REMARK    2  A    between atoms: C_10  and  N_11 
REMARK       I    between atoms: N_11  and  C_14 
REMARK    3  A    between atoms: C_14  and  C_20 
REMARK    4  A    between atoms: C_20  and  S_16 
ROOT
ATOM      1  N   UNL d   1     -57.249 -98.817 -44.246  0.00  0.00    -0.167 N 
ATOM      2  C   UNL d   1     -57.336 -98.776 -45.061  0.00  0.00     0.220 A 
ATOM      3  C   UNL d   1     -57.913 -98.845 -43.750  0.00  0.00     0.301 A 
ATOM      4  S   UNL d   1     -56.578 -98.756 -45.392  0.00  0.00    -0.019 SA
ATOM      5  N   UNL d   1     -56.451 -98.823 -44.066  0.00  0.00    -0.147 NA
ATOM      6  N   UNL d   1     -58.087 -98.762 -45.396  0.00  0.00    -0.121 NA
ATOM      7  C   UNL d   1     -56.035 -98.785 -44.776  0.00  0.00     0.164 A 
ATOM      8  N   UNL d   1     -58.753 -98.789 -44.916  0.00  0.00    -0.141 NA
ATOM      9  C   UNL d   1     -58.666 -98.830 -44.097  0.00  0.00     0.161 A 
ATOM     10  O   UNL d   1     -57.827 -98.886 -42.938  0.00  0.00    -0.263 OA
ATOM     11  C   UNL d   1     -59.331 -98.858 -43.612  0.00  0.00     0.028 C 
ENDROOT
BRANCH   7  12
ATOM     12  S   UNL d   1     -55.215 -98.778 -44.858  0.00  0.00    -0.054 SA
BRANCH  12  13
ATOM     13  C   UNL d   1     -54.737 -99.125 -44.288  0.00  0.00     0.100 C 
BRANCH  13  14
ATOM     14  C   UNL d   1     -54.772 -99.943 -44.166  0.00  0.00     0.288 C 
ATOM     15  N   UNL d   1     -54.789-100.245 -43.396  0.00  0.00    -0.182 NA
ATOM     16  O   UNL d   1     -54.791-100.454 -44.814  0.00  0.00    -0.265 OA
BRANCH  15  17
ATOM     17  C   UNL d   1     -54.825-101.061 -43.276  0.00  0.00     0.197 A 
ATOM     18  N   UNL d   1     -54.975-101.636 -43.857  0.00  0.00    -0.219 NA
ATOM     19  C   UNL d   1     -54.959-102.373 -43.495  0.00  0.00     0.108 A 
ATOM     20  C   UNL d   1     -54.798-102.257 -42.686  0.00  0.00     0.059 A 
ATOM     21  S   UNL d   1     -54.718-101.451 -42.561  0.00  0.00    -0.046 SA
ENDBRANCH  15  17
ENDBRANCH  13  14
ENDBRANCH  12  13
ENDBRANCH   7  12
TORSDOF 4
ENDMDL
MODEL 2
REMARK VINA RESULT:      31.7      2.737      4.154
REMARK  4 active torsions:
REMARK  status: ('A' for Active; 'I' for Inactive)
REMARK    1  A    between atoms: S_16  and  C_7 
REMARK    2  A    between atoms: C_10  and  N_11 
REMARK       I    between atoms: N_11  and  C_14 
REMARK    3  A    between atoms: C_14  and  C_20 
REMARK    4  A    between atoms: C_20  and  S_16 
ROOT
ATOM      1  N   UNL d   1     -55.144-101.075 -43.484  0.00  0.00    -0.167 N 
ATOM      2  C   UNL d   1     -55.288-101.716 -43.976  0.00  0.00     0.220 A 
ATOM      3  C   UNL d   1     -55.137-100.302 -43.784  0.00  0.00     0.301 A 
ATOM      4  S   UNL d   1     -55.256-102.399 -43.512  0.00  0.00    -0.019 SA
ATOM      5  N   UNL d   1     -55.022-101.350 -42.723  0.00  0.00    -0.147 NA
ATOM      6  N   UNL d   1     -55.429-101.597 -44.778  0.00  0.00    -0.121 NA
ATOM      7  C   UNL d   1     -55.092-102.170 -42.740  0.00  0.00     0.164 A 
ATOM      8  N   UNL d   1     -55.426-100.837 -45.089  0.00  0.00    -0.141 NA
ATOM      9  C   UNL d   1     -55.281-100.193 -44.595  0.00  0.00     0.161 A 
ATOM     10  O   UNL d   1     -54.993 -99.664 -43.295  0.00  0.00    -0.263 OA
ATOM     11  C   UNL d   1     -55.277 -99.429 -44.902  0.00  0.00     0.028 C 
ENDROOT
BRANCH   7  12
ATOM     12  S   UNL d   1     -55.012-102.677 -42.095  0.00  0.00    -0.054 SA
BRANCH  12  13
ATOM     13  C   UNL d   1     -54.712-102.400 -41.383  0.00  0.00     0.100 C 
BRANCH  13  14
ATOM     14  C   UNL d   1     -55.128-102.539 -40.681  0.00  0.00     0.288 C 
ATOM     15  N   UNL d   1     -54.788-102.337 -39.953  0.00  0.00    -0.182 NA
ATOM     16  O   UNL d   1     -55.879-102.879 -40.709  0.00  0.00    -0.265 OA
BRANCH  15  17
ATOM     17  C   UNL d   1     -55.204-102.476 -39.254  0.00  0.00     0.197 A 
ATOM     18  N   UNL d   1     -55.934-102.865 -39.187  0.00  0.00    -0.219 NA
ATOM     19  C   UNL d   1     -56.143-102.880 -38.393  0.00  0.00     0.108 A 
ATOM     20  C   UNL d   1     -55.541-102.498 -37.964  0.00  0.00     0.059 A 
ATOM     21  S   UNL d   1     -54.970-102.254 -38.498  0.00  0.00    -0.046 SA
ENDBRANCH  15  17
ENDBRANCH  13  14
ENDBRANCH  12  13
ENDBRANCH   7  12
TORSDOF 4
ENDMDL
