MODEL 1
REMARK VINA RESULT:      -1.7      0.000      0.000
REMARK  5 active torsions:
REMARK  status: ('A' for Active; 'I' for Inactive)
REMARK    1  A    between atoms: N_2  and  C_1 
REMARK    2  A    between atoms: N_3  and  C_1 
REMARK       I    between atoms: C_6  and  N_3 
REMARK    3  A    between atoms: C_12  and  C_6 
REMARK    4  A    between atoms: O_11  and  C_12 
REMARK    5  A    between atoms: C_13  and  O_11 
ROOT
ATOM      1  C   UNL d   1      31.707  17.859 -24.252  0.00  0.00     0.209 C 
ATOM      2  S   UNL d   1      31.688  18.060 -23.459  0.00  0.00    -0.038 SA
ENDROOT
BRANCH   1   3
ATOM      3  N   UNL d   1      31.359  17.148 -24.496  0.00  0.00    -0.282 N 
ATOM      4  C   UNL d   1      30.566  17.027 -24.670  0.00  0.00     0.066 A 
ATOM      5  C   UNL d   1      30.464  16.242 -24.889  0.00  0.00     0.018 A 
ATOM      6  C   UNL d   1      29.919  17.541 -24.655  0.00  0.00     0.018 A 
ATOM      7  C   UNL d   1      29.714  15.966 -25.094  0.00  0.00     0.002 A 
ATOM      8  C   UNL d   1      31.194  15.876 -24.851  0.00  0.00     0.021 A 
ATOM      9  C   UNL d   1      29.054  16.479 -25.082  0.00  0.00     0.000 A 
ATOM     10  C   UNL d   1      29.156  17.264 -24.863  0.00  0.00     0.002 A 
ATOM     11  C   UNL d   1      31.750  16.434 -24.608  0.00  0.00     0.082 A 
ENDBRANCH   1   3
BRANCH   1  12
ATOM     12  N   UNL d   1      32.064  18.353 -24.797  0.00  0.00    -0.178 NA
ATOM     13  C   UNL d   1      32.546  18.976 -24.539  0.00  0.00     0.306 C 
ATOM     14  O   UNL d   1      32.904  19.471 -25.092  0.00  0.00    -0.263 OA
BRANCH  13  15
ATOM     15  C   UNL d   1      32.664  19.097 -23.742  0.00  0.00     0.185 C 
BRANCH  15  16
ATOM     16  O   UNL d   1      33.241  19.629 -23.489  0.00  0.00    -0.300 OA
BRANCH  16  17
ATOM     17  C   UNL d   1      33.176  19.976 -22.737  0.00  0.00     0.100 A 
ATOM     18  C   UNL d   1      33.059  20.783 -22.673  0.00  0.00     0.025 A 
ATOM     19  C   UNL d   1      32.994  21.133 -21.928  0.00  0.00     0.002 A 
ATOM     20  C   UNL d   1      33.046  20.665 -21.248  0.00  0.00     0.000 A 
ATOM     21  C   UNL d   1      33.164  19.853 -21.316  0.00  0.00     0.002 A 
ATOM     22  C   UNL d   1      33.229  19.503 -22.061  0.00  0.00     0.025 A 
ENDBRANCH  16  17
ENDBRANCH  15  16
ENDBRANCH  13  15
ENDBRANCH   1  12
TORSDOF 5
ENDMDL
MODEL 2
REMARK VINA RESULT:      -1.4      1.907      5.010
REMARK  5 active torsions:
REMARK  status: ('A' for Active; 'I' for Inactive)
REMARK    1  A    between atoms: N_2  and  C_1 
REMARK    2  A    between atoms: N_3  and  C_1 
REMARK       I    between atoms: C_6  and  N_3 
REMARK    3  A    between atoms: C_12  and  C_6 
REMARK    4  A    between atoms: O_11  and  C_12 
REMARK    5  A    between atoms: C_13  and  O_11 
ROOT
ATOM      1  C   UNL d   1      33.103  20.286 -22.282  0.00  0.00     0.209 C 
ATOM      2  S   UNL d   1      33.241  19.521 -22.027  0.00  0.00    -0.038 SA
ENDROOT
BRANCH   1   3
ATOM      3  N   UNL d   1      32.836  20.851 -21.739  0.00  0.00    -0.282 N 
ATOM      4  C   UNL d   1      32.884  21.666 -21.820  0.00  0.00     0.066 A 
ATOM      5  C   UNL d   1      32.553  22.014 -21.152  0.00  0.00     0.018 A 
ATOM      6  C   UNL d   1      33.191  22.138 -22.425  0.00  0.00     0.018 A 
ATOM      7  C   UNL d   1      32.528  22.836 -21.087  0.00  0.00     0.002 A 
ATOM      8  C   UNL d   1      32.300  21.414 -20.658  0.00  0.00     0.021 A 
ATOM      9  C   UNL d   1      32.836  23.321 -21.694  0.00  0.00     0.000 A 
ATOM     10  C   UNL d   1      33.167  22.973 -22.361  0.00  0.00     0.002 A 
ATOM     11  C   UNL d   1      32.474  20.693 -21.018  0.00  0.00     0.082 A 
ENDBRANCH   1   3
BRANCH   1  12
ATOM     12  N   UNL d   1      33.227  20.491 -23.065  0.00  0.00    -0.178 NA
ATOM     13  C   UNL d   1      33.115  19.929 -23.663  0.00  0.00     0.306 C 
ATOM     14  O   UNL d   1      33.241  20.140 -24.450  0.00  0.00    -0.263 OA
BRANCH  13  15
ATOM     15  C   UNL d   1      32.881  19.172 -23.473  0.00  0.00     0.185 C 
BRANCH  15  16
ATOM     16  O   UNL d   1      32.796  18.608 -24.068  0.00  0.00    -0.300 OA
BRANCH  16  17
ATOM     17  C   UNL d   1      32.618  17.822 -23.865  0.00  0.00     0.100 A 
ATOM     18  C   UNL d   1      33.215  17.264 -23.846  0.00  0.00     0.025 A 
ATOM     19  C   UNL d   1      33.043  16.482 -23.644  0.00  0.00     0.002 A 
ATOM     20  C   UNL d   1      32.265  16.266 -23.462  0.00  0.00     0.000 A 
ATOM     21  C   UNL d   1      31.667  16.831 -23.482  0.00  0.00     0.002 A 
ATOM     22  C   UNL d   1      31.839  17.612 -23.684  0.00  0.00     0.025 A 
ENDBRANCH  16  17
ENDBRANCH  15  16
ENDBRANCH  13  15
ENDBRANCH   1  12
TORSDOF 5
ENDMDL
MODEL 3
REMARK VINA RESULT:      -1.4      1.224      4.763
REMARK  5 active torsions:
REMARK  status: ('A' for Active; 'I' for Inactive)
REMARK    1  A    between atoms: N_2  and  C_1 
REMARK    2  A    between atoms: N_3  and  C_1 
REMARK       I    between atoms: C_6  and  N_3 
REMARK    3  A    between atoms: C_12  and  C_6 
REMARK    4  A    between atoms: O_11  and  C_12 
REMARK    5  A    between atoms: C_13  and  O_11 
ROOT
ATOM      1  C   UNL d   1      33.091  19.577 -23.051  0.00  0.00     0.209 C 
ATOM      2  S   UNL d   1      32.920  18.920 -22.595  0.00  0.00    -0.038 SA
ENDROOT
BRANCH   1   3
ATOM      3  N   UNL d   1      33.113  20.323 -22.692  0.00  0.00    -0.282 N 
ATOM      4  C   UNL d   1      33.156  20.476 -21.887  0.00  0.00     0.066 A 
ATOM      5  C   UNL d   1      33.164  21.291 -21.776  0.00  0.00     0.018 A 
ATOM      6  C   UNL d   1      33.190  19.969 -21.235  0.00  0.00     0.018 A 
ATOM      7  C   UNL d   1      33.206  21.602 -21.014  0.00  0.00     0.002 A 
ATOM      8  C   UNL d   1      33.125  21.642 -22.513  0.00  0.00     0.021 A 
ATOM      9  C   UNL d   1      33.241  21.096 -20.348  0.00  0.00     0.000 A 
ATOM     10  C   UNL d   1      33.233  20.282 -20.459  0.00  0.00     0.002 A 
ATOM     11  C   UNL d   1      33.093  21.047 -23.082  0.00  0.00     0.082 A 
ENDBRANCH   1   3
BRANCH   1  12
ATOM     12  N   UNL d   1      33.241  19.499 -23.851  0.00  0.00    -0.178 NA
ATOM     13  C   UNL d   1      32.902  18.876 -24.278  0.00  0.00     0.306 C 
ATOM     14  O   UNL d   1      33.055  18.801 -25.084  0.00  0.00    -0.263 OA
BRANCH  13  15
ATOM     15  C   UNL d   1      32.419  18.338 -23.900  0.00  0.00     0.185 C 
BRANCH  15  16
ATOM     16  O   UNL d   1      32.241  17.620 -24.264  0.00  0.00    -0.300 OA
BRANCH  16  17
ATOM     17  C   UNL d   1      31.500  17.268 -24.132  0.00  0.00     0.100 A 
ATOM     18  C   UNL d   1      30.838  17.566 -24.508  0.00  0.00     0.025 A 
ATOM     19  C   UNL d   1      30.100  17.219 -24.380  0.00  0.00     0.002 A 
ATOM     20  C   UNL d   1      30.033  16.569 -23.871  0.00  0.00     0.000 A 
ATOM     21  C   UNL d   1      30.702  16.272 -23.495  0.00  0.00     0.002 A 
ATOM     22  C   UNL d   1      31.440  16.619 -23.623  0.00  0.00     0.025 A 
ENDBRANCH  16  17
ENDBRANCH  15  16
ENDBRANCH  13  15
ENDBRANCH   1  12
TORSDOF 5
ENDMDL
MODEL 4
REMARK VINA RESULT:      -0.6      1.793      4.689
REMARK  5 active torsions:
REMARK  status: ('A' for Active; 'I' for Inactive)
REMARK    1  A    between atoms: N_2  and  C_1 
REMARK    2  A    between atoms: N_3  and  C_1 
REMARK       I    between atoms: C_6  and  N_3 
REMARK    3  A    between atoms: C_12  and  C_6 
REMARK    4  A    between atoms: O_11  and  C_12 
REMARK    5  A    between atoms: C_13  and  O_11 
ROOT
ATOM      1  C   UNL d   1      32.054  17.613 -23.661  0.00  0.00     0.209 C 
ATOM      2  S   UNL d   1      31.431  17.736 -24.175  0.00  0.00    -0.038 SA
ENDROOT
BRANCH   1   3
ATOM      3  N   UNL d   1      32.442  18.267 -23.331  0.00  0.00    -0.282 N 
ATOM      4  C   UNL d   1      32.609  18.976 -23.709  0.00  0.00     0.066 A 
ATOM      5  C   UNL d   1      32.998  19.468 -23.178  0.00  0.00     0.018 A 
ATOM      6  C   UNL d   1      32.452  19.236 -24.478  0.00  0.00     0.018 A 
ATOM      7  C   UNL d   1      33.233  20.223 -23.414  0.00  0.00     0.002 A 
ATOM      8  C   UNL d   1      33.073  19.064 -22.472  0.00  0.00     0.021 A 
ATOM      9  C   UNL d   1      33.078  20.494 -24.190  0.00  0.00     0.000 A 
ATOM     10  C   UNL d   1      32.689  20.002 -24.720  0.00  0.00     0.002 A 
ATOM     11  C   UNL d   1      32.730  18.320 -22.563  0.00  0.00     0.082 A 
ENDBRANCH   1   3
BRANCH   1  12
ATOM     12  N   UNL d   1      32.293  16.853 -23.473  0.00  0.00    -0.178 NA
ATOM     13  C   UNL d   1      31.773  16.217 -23.577  0.00  0.00     0.306 C 
ATOM     14  O   UNL d   1      32.018  15.453 -23.387  0.00  0.00    -0.263 OA
BRANCH  13  15
ATOM     15  C   UNL d   1      31.022  16.348 -23.867  0.00  0.00     0.185 C 
BRANCH  15  16
ATOM     16  O   UNL d   1      30.575  15.714 -24.147  0.00  0.00    -0.300 OA
BRANCH  16  17
ATOM     17  C   UNL d   1      29.768  15.668 -23.955  0.00  0.00     0.100 A 
ATOM     18  C   UNL d   1      29.220  15.519 -24.544  0.00  0.00     0.025 A 
ATOM     19  C   UNL d   1      28.417  15.471 -24.359  0.00  0.00     0.002 A 
ATOM     20  C   UNL d   1      28.169  15.575 -23.576  0.00  0.00     0.000 A 
ATOM     21  C   UNL d   1      28.723  15.725 -22.986  0.00  0.00     0.002 A 
ATOM     22  C   UNL d   1      29.526  15.772 -23.172  0.00  0.00     0.025 A 
ENDBRANCH  16  17
ENDBRANCH  15  16
ENDBRANCH  13  15
ENDBRANCH   1  12
TORSDOF 5
ENDMDL
MODEL 5
REMARK VINA RESULT:      -0.3      1.975      5.374
REMARK  5 active torsions:
REMARK  status: ('A' for Active; 'I' for Inactive)
REMARK    1  A    between atoms: N_2  and  C_1 
REMARK    2  A    between atoms: N_3  and  C_1 
REMARK       I    between atoms: C_6  and  N_3 
REMARK    3  A    between atoms: C_12  and  C_6 
REMARK    4  A    between atoms: O_11  and  C_12 
REMARK    5  A    between atoms: C_13  and  O_11 
ROOT
ATOM      1  C   UNL d   1      32.674  20.854 -22.259  0.00  0.00     0.209 C 
ATOM      2  S   UNL d   1      32.274  20.712 -22.958  0.00  0.00    -0.038 SA
ENDROOT
BRANCH   1   3
ATOM      3  N   UNL d   1      32.837  21.636 -22.039  0.00  0.00    -0.282 N 
ATOM      4  C   UNL d   1      32.687  21.978 -21.308  0.00  0.00     0.066 A 
ATOM      5  C   UNL d   1      32.936  22.761 -21.332  0.00  0.00     0.018 A 
ATOM      6  C   UNL d   1      32.352  21.670 -20.619  0.00  0.00     0.018 A 
ATOM      7  C   UNL d   1      32.851  23.240 -20.665  0.00  0.00     0.002 A 
ATOM      8  C   UNL d   1      33.240  22.904 -22.076  0.00  0.00     0.021 A 
ATOM      9  C   UNL d   1      32.513  22.937 -19.964  0.00  0.00     0.000 A 
ATOM     10  C   UNL d   1      32.264  22.154 -19.940  0.00  0.00     0.002 A 
ATOM     11  C   UNL d   1      33.181  22.209 -22.517  0.00  0.00     0.082 A 
ENDBRANCH   1   3
BRANCH   1  12
ATOM     12  N   UNL d   1      32.909  20.232 -21.782  0.00  0.00    -0.178 NA
ATOM     13  C   UNL d   1      33.003  19.475 -22.104  0.00  0.00     0.306 C 
ATOM     14  O   UNL d   1      33.241  18.851 -21.621  0.00  0.00    -0.263 OA
BRANCH  13  15
ATOM     15  C   UNL d   1      32.861  19.349 -22.897  0.00  0.00     0.185 C 
BRANCH  15  16
ATOM     16  O   UNL d   1      33.229  18.721 -23.285  0.00  0.00    -0.300 OA
BRANCH  16  17
ATOM     17  C   UNL d   1      32.789  18.250 -23.809  0.00  0.00     0.100 A 
ATOM     18  C   UNL d   1      32.531  17.512 -23.570  0.00  0.00     0.025 A 
ATOM     19  C   UNL d   1      32.093  17.040 -24.087  0.00  0.00     0.002 A 
ATOM     20  C   UNL d   1      31.918  17.316 -24.847  0.00  0.00     0.000 A 
ATOM     21  C   UNL d   1      32.180  18.059 -25.084  0.00  0.00     0.002 A 
ATOM     22  C   UNL d   1      32.617  18.531 -24.567  0.00  0.00     0.025 A 
ENDBRANCH  16  17
ENDBRANCH  15  16
ENDBRANCH  13  15
ENDBRANCH   1  12
TORSDOF 5
ENDMDL
