MODEL 1
REMARK VINA RESULT:      12.9      0.000      0.000
REMARK  1 active torsions:
REMARK  status: ('A' for Active; 'I' for Inactive)
REMARK    1  A    between atoms: C_6  and  C_2 
ROOT
ATOM      1  S   UNL d   1      57.639  49.577  49.753  0.00  0.00    -0.024 SA
ATOM      2  C   UNL d   1      57.975  49.650  50.497  0.00  0.00     0.135 A 
ATOM      3  N   UNL d   1      57.372  49.703  51.055  0.00  0.00    -0.139 NA
ATOM      4  C   UNL d   1      56.821  49.583  49.853  0.00  0.00     0.236 A 
ATOM      5  N   UNL d   1      56.654  49.660  50.647  0.00  0.00    -0.119 NA
ATOM      6  N   UNL d   1      56.266  49.522  49.246  0.00  0.00    -0.118 N 
ENDROOT
BRANCH   2   7
ATOM      7  C   UNL d   1      58.783  49.669  50.661  0.00  0.00     0.029 A 
ATOM      8  C   UNL d   1      59.334  49.680  50.055  0.00  0.00     0.023 A 
ATOM      9  C   UNL d   1      60.145  49.699  50.220  0.00  0.00     0.099 A 
ATOM     10  N   UNL d   1      60.409  49.707  50.991  0.00  0.00    -0.242 NA
ATOM     11  C   UNL d   1      59.864  49.697  51.607  0.00  0.00     0.099 A 
ATOM     12  C   UNL d   1      59.053  49.678  51.442  0.00  0.00     0.023 A 
ENDBRANCH   2   7
TORSDOF 1
ENDMDL
