MODEL 1
REMARK VINA RESULT:      33.6      0.000      0.000
REMARK  8 active torsions:
REMARK  status: ('A' for Active; 'I' for Inactive)
REMARK    1  A    between atoms: C_6  and  N_1 
REMARK    2  A    between atoms: C_7  and  C_6 
REMARK    3  A    between atoms: C_12  and  C_7 
REMARK    4  A    between atoms: C_8  and  C_19 
REMARK    5  A    between atoms: C_9  and  C_20 
REMARK    6  A    between atoms: N_13  and  C_12 
REMARK    7  A    between atoms: C_19  and  N_13 
REMARK    8  A    between atoms: C_20  and  N_13 
ROOT
ATOM      1  N   UNL d   1     -57.856 -98.757 -44.482  0.00  0.00    -0.303 N 
ATOM      2  C   UNL d   1     -58.313 -98.757 -45.176  0.00  0.00     0.064 A 
ATOM      3  C   UNL d   1     -58.378 -98.759 -43.835  0.00  0.00     0.064 A 
ATOM      4  C   UNL d   1     -59.153 -98.760 -44.125  0.00  0.00     0.018 A 
ATOM      5  C   UNL d   1     -59.119 -98.758 -44.957  0.00  0.00     0.018 A 
ATOM      6  C   UNL d   1     -58.243 -98.760 -43.022  0.00  0.00     0.018 A 
ATOM      7  C   UNL d   1     -58.104 -98.755 -45.975  0.00  0.00     0.018 A 
ATOM      8  C   UNL d   1     -59.793 -98.762 -43.601  0.00  0.00     0.002 A 
ATOM      9  C   UNL d   1     -59.699 -98.758 -45.535  0.00  0.00     0.002 A 
ATOM     10  C   UNL d   1     -59.495 -98.757 -46.329  0.00  0.00     0.000 A 
ATOM     11  C   UNL d   1     -58.697 -98.755 -46.551  0.00  0.00     0.002 A 
ATOM     12  C   UNL d   1     -58.888 -98.762 -42.491  0.00  0.00     0.002 A 
ATOM     13  C   UNL d   1     -59.660 -98.763 -42.788  0.00  0.00     0.000 A 
ENDROOT
BRANCH   1  14
ATOM     14  C   UNL d   1     -57.035 -98.756 -44.439  0.00  0.00     0.124 C 
BRANCH  14  15
ATOM     15  C   UNL d   1     -56.780 -99.537 -44.490  0.00  0.00     0.231 C 
ATOM     16  O   UNL d   1     -57.189-100.031 -43.965  0.00  0.00    -0.283 OA
BRANCH  15  17
ATOM     17  C   UNL d   1     -56.218 -99.946 -44.934  0.00  0.00     0.124 C 
BRANCH  17  18
ATOM     18  N   UNL d   1     -55.705-100.470 -44.565  0.00  0.00    -0.300 N 
BRANCH  18  19
ATOM     19  C   UNL d   1     -55.079-100.181 -44.110  0.00  0.00     0.080 C 
BRANCH  19  20
ATOM     20  C   UNL d   1     -54.724-100.661 -43.539  0.00  0.00     0.019 C 
ATOM     21  C   UNL d   1     -54.943-101.348 -43.141  0.00  0.00     0.002 C 
ENDBRANCH  19  20
ENDBRANCH  18  19
BRANCH  18  22
ATOM     22  C   UNL d   1     -55.811-101.279 -44.646  0.00  0.00     0.080 C 
BRANCH  22  23
ATOM     23  C   UNL d   1     -55.183-101.795 -44.508  0.00  0.00     0.019 C 
ATOM     24  C   UNL d   1     -54.996-102.558 -44.758  0.00  0.00     0.002 C 
ENDBRANCH  22  23
ENDBRANCH  18  22
ENDBRANCH  17  18
ENDBRANCH  15  17
ENDBRANCH  14  15
ENDBRANCH   1  14
TORSDOF 8
ENDMDL
