MODEL 1
REMARK VINA RESULT:      -5.2      0.000      0.000
REMARK  6 active torsions:
REMARK  status: ('A' for Active; 'I' for Inactive)
REMARK    1  A    between atoms: C_9  and  N_2 
REMARK       I    between atoms: N_5  and  C_6 
REMARK    2  A    between atoms: C_6  and  C_10 
REMARK    3  A    between atoms: C_11  and  N_7 
REMARK    4  A    between atoms: C_10  and  C_9 
REMARK    5  A    between atoms: C_18  and  C_11 
REMARK    6  A    between atoms: C_19  and  C_11 
ROOT
ATOM      1  N   UNL d   1     -42.740  13.332  21.332  0.00  0.00    -0.269 N 
ATOM      2  C   UNL d   1     -43.393  12.906  21.593  0.00  0.00     0.266 C 
ATOM      3  N   UNL d   1     -41.424  14.195  20.805  0.00  0.00    -0.301 N 
ATOM      4  C   UNL d   1     -42.768  14.162  21.317  0.00  0.00     0.102 A 
ATOM      5  C   UNL d   1     -42.063  12.942  21.086  0.00  0.00     0.102 A 
ATOM      6  C   UNL d   1     -41.404  13.373  20.823  0.00  0.00     0.100 A 
ATOM      7  C   UNL d   1     -42.118  14.591  21.057  0.00  0.00     0.100 A 
ATOM      8  O   UNL d   1     -43.364  12.081  21.607  0.00  0.00    -0.267 OA
ENDROOT
BRANCH   2   9
ATOM      9  C   UNL d   1     -44.076  13.297  21.840  0.00  0.00     0.080 C 
BRANCH   9  10
ATOM     10  C   UNL d   1     -44.806  12.922  21.806  0.00  0.00     0.090 C 
BRANCH  10  11
ATOM     11  N   UNL d   1     -45.416  13.155  22.308  0.00  0.00    -0.251 N 
ATOM     12  C   UNL d   1     -45.639  13.929  22.474  0.00  0.00     0.378 A 
ATOM     13  O   UNL d   1     -46.266  13.834  22.998  0.00  0.00    -0.258 OA
ATOM     14  O   UNL d   1     -45.289  14.609  22.166  0.00  0.00    -0.237 OA
ATOM     15  C   UNL d   1     -46.440  13.113  23.161  0.00  0.00     0.121 A 
ATOM     16  C   UNL d   1     -47.010  12.754  23.644  0.00  0.00     0.026 A 
ATOM     17  C   UNL d   1     -45.911  12.647  22.732  0.00  0.00     0.092 A 
ATOM     18  C   UNL d   1     -47.049  11.926  23.697  0.00  0.00     0.002 A 
ATOM     19  C   UNL d   1     -46.514  11.470  23.263  0.00  0.00     0.002 A 
ATOM     20  C   UNL d   1     -45.947  11.832  22.783  0.00  0.00     0.020 A 
ENDBRANCH  10  11
ENDBRANCH   9  10
ENDBRANCH   2   9
BRANCH   3  21
ATOM     21  C   UNL d   1     -40.771  14.639  20.544  0.00  0.00     0.064 C 
BRANCH  21  22
ATOM     22  C   UNL d   1     -40.679  14.827  19.749  0.00  0.00     0.016 A 
ATOM     23  C   UNL d   1     -40.954  15.550  19.465  0.00  0.00     0.001 A 
ATOM     24  C   UNL d   1     -40.861  15.738  18.669  0.00  0.00     0.000 A 
ATOM     25  C   UNL d   1     -40.493  15.204  18.159  0.00  0.00     0.000 A 
ATOM     26  C   UNL d   1     -40.220  14.483  18.445  0.00  0.00     0.000 A 
ATOM     27  C   UNL d   1     -40.313  14.295  19.241  0.00  0.00     0.001 A 
ENDBRANCH  21  22
BRANCH  21  28
ATOM     28  C   UNL d   1     -40.210  14.890  21.102  0.00  0.00     0.016 A 
ATOM     29  C   UNL d   1     -40.268  15.661  21.408  0.00  0.00     0.001 A 
ATOM     30  C   UNL d   1     -39.707  15.913  21.966  0.00  0.00     0.000 A 
ATOM     31  C   UNL d   1     -39.107  15.405  22.209  0.00  0.00     0.000 A 
ATOM     32  C   UNL d   1     -39.061  14.642  21.897  0.00  0.00     0.000 A 
ATOM     33  C   UNL d   1     -39.613  14.383  21.342  0.00  0.00     0.001 A 
ENDBRANCH  21  28
ENDBRANCH   3  21
TORSDOF 6
ENDMDL
MODEL 2
REMARK VINA RESULT:      -4.1      3.693      7.202
REMARK  6 active torsions:
REMARK  status: ('A' for Active; 'I' for Inactive)
REMARK    1  A    between atoms: C_9  and  N_2 
REMARK       I    between atoms: N_5  and  C_6 
REMARK    2  A    between atoms: C_6  and  C_10 
REMARK    3  A    between atoms: C_11  and  N_7 
REMARK    4  A    between atoms: C_10  and  C_9 
REMARK    5  A    between atoms: C_18  and  C_11 
REMARK    6  A    between atoms: C_19  and  C_11 
ROOT
ATOM      1  N   UNL d   1     -39.154  15.000  18.548  0.00  0.00    -0.269 N 
ATOM      2  C   UNL d   1     -38.865  15.146  17.793  0.00  0.00     0.266 C 
ATOM      3  N   UNL d   1     -39.737  14.700  20.073  0.00  0.00    -0.301 N 
ATOM      4  C   UNL d   1     -39.196  14.219  18.830  0.00  0.00     0.102 A 
ATOM      5  C   UNL d   1     -39.401  15.619  19.025  0.00  0.00     0.102 A 
ATOM      6  C   UNL d   1     -39.692  15.470  19.787  0.00  0.00     0.100 A 
ATOM      7  C   UNL d   1     -39.484  14.068  19.584  0.00  0.00     0.100 A 
ATOM      8  O   UNL d   1     -38.824  15.922  17.514  0.00  0.00    -0.267 OA
ENDROOT
BRANCH   2   9
ATOM      9  C   UNL d   1     -38.617  14.524  17.312  0.00  0.00     0.080 C 
BRANCH   9  10
ATOM     10  C   UNL d   1     -38.010  14.633  16.769  0.00  0.00     0.090 C 
BRANCH  10  11
ATOM     11  N   UNL d   1     -37.997  14.200  16.068  0.00  0.00    -0.251 N 
ATOM     12  C   UNL d   1     -37.999  13.381  16.005  0.00  0.00     0.378 A 
ATOM     13  O   UNL d   1     -37.982  13.256  15.192  0.00  0.00    -0.258 OA
ATOM     14  O   UNL d   1     -38.016  12.847  16.634  0.00  0.00    -0.237 OA
ATOM     15  C   UNL d   1     -37.970  13.890  14.772  0.00  0.00     0.121 A 
ATOM     16  C   UNL d   1     -37.951  14.039  13.957  0.00  0.00     0.026 A 
ATOM     17  C   UNL d   1     -37.978  14.518  15.306  0.00  0.00     0.092 A 
ATOM     18  C   UNL d   1     -37.941  14.820  13.677  0.00  0.00     0.002 A 
ATOM     19  C   UNL d   1     -37.950  15.442  14.221  0.00  0.00     0.002 A 
ATOM     20  C   UNL d   1     -37.969  15.289  15.033  0.00  0.00     0.020 A 
ENDBRANCH  10  11
ENDBRANCH   9  10
ENDBRANCH   2   9
BRANCH   3  21
ATOM     21  C   UNL d   1     -40.027  14.537  20.836  0.00  0.00     0.064 C 
BRANCH  21  22
ATOM     22  C   UNL d   1     -40.831  14.424  20.967  0.00  0.00     0.016 A 
ATOM     23  C   UNL d   1     -41.348  15.064  20.919  0.00  0.00     0.001 A 
ATOM     24  C   UNL d   1     -42.152  14.949  21.051  0.00  0.00     0.000 A 
ATOM     25  C   UNL d   1     -42.438  14.196  21.231  0.00  0.00     0.000 A 
ATOM     26  C   UNL d   1     -41.920  13.560  21.278  0.00  0.00     0.000 A 
ATOM     27  C   UNL d   1     -41.115  13.674  21.146  0.00  0.00     0.001 A 
ENDBRANCH  21  22
BRANCH  21  28
ATOM     28  C   UNL d   1     -39.489  14.490  21.466  0.00  0.00     0.016 A 
ATOM     29  C   UNL d   1     -39.099  13.769  21.607  0.00  0.00     0.001 A 
ATOM     30  C   UNL d   1     -38.561  13.722  22.237  0.00  0.00     0.000 A 
ATOM     31  C   UNL d   1     -38.419  14.379  22.711  0.00  0.00     0.000 A 
ATOM     32  C   UNL d   1     -38.812  15.089  22.560  0.00  0.00     0.000 A 
ATOM     33  C   UNL d   1     -39.349  15.146  21.936  0.00  0.00     0.001 A 
ENDBRANCH  21  28
ENDBRANCH   3  21
TORSDOF 6
ENDMDL
MODEL 3
REMARK VINA RESULT:      -3.0      1.248      2.071
REMARK  6 active torsions:
REMARK  status: ('A' for Active; 'I' for Inactive)
REMARK    1  A    between atoms: C_9  and  N_2 
REMARK       I    between atoms: N_5  and  C_6 
REMARK    2  A    between atoms: C_6  and  C_10 
REMARK    3  A    between atoms: C_11  and  N_7 
REMARK    4  A    between atoms: C_10  and  C_9 
REMARK    5  A    between atoms: C_18  and  C_11 
REMARK    6  A    between atoms: C_19  and  C_11 
ROOT
ATOM      1  N   UNL d   1     -41.779  14.026  21.082  0.00  0.00    -0.269 N 
ATOM      2  C   UNL d   1     -42.587  13.874  21.091  0.00  0.00     0.266 C 
ATOM      3  N   UNL d   1     -40.147  14.330  21.068  0.00  0.00    -0.301 N 
ATOM      4  C   UNL d   1     -41.257  13.504  21.464  0.00  0.00     0.102 A 
ATOM      5  C   UNL d   1     -41.486  14.689  20.700  0.00  0.00     0.102 A 
ATOM      6  C   UNL d   1     -40.671  14.841  20.693  0.00  0.00     0.100 A 
ATOM      7  C   UNL d   1     -40.449  13.652  21.458  0.00  0.00     0.100 A 
ATOM      8  O   UNL d   1     -43.105  14.393  20.712  0.00  0.00    -0.267 OA
ENDROOT
BRANCH   2   9
ATOM      9  C   UNL d   1     -42.883  13.207  21.475  0.00  0.00     0.080 C 
BRANCH   9  10
ATOM     10  C   UNL d   1     -43.647  12.944  21.325  0.00  0.00     0.090 C 
BRANCH  10  11
ATOM     11  N   UNL d   1     -44.079  12.565  21.914  0.00  0.00    -0.251 N 
ATOM     12  C   UNL d   1     -43.845  11.899  22.335  0.00  0.00     0.378 A 
ATOM     13  O   UNL d   1     -44.479  11.765  22.842  0.00  0.00    -0.258 OA
ATOM     14  O   UNL d   1     -43.133  11.492  22.239  0.00  0.00    -0.237 OA
ATOM     15  C   UNL d   1     -45.051  12.261  22.775  0.00  0.00     0.121 A 
ATOM     16  C   UNL d   1     -45.783  12.348  23.154  0.00  0.00     0.026 A 
ATOM     17  C   UNL d   1     -44.826  12.792  22.185  0.00  0.00     0.092 A 
ATOM     18  C   UNL d   1     -46.290  12.970  22.940  0.00  0.00     0.002 A 
ATOM     19  C   UNL d   1     -46.055  13.495  22.348  0.00  0.00     0.002 A 
ATOM     20  C   UNL d   1     -45.324  13.404  21.973  0.00  0.00     0.020 A 
ENDBRANCH  10  11
ENDBRANCH   9  10
ENDBRANCH   2   9
BRANCH   3  21
ATOM     21  C   UNL d   1     -39.328  14.471  21.067  0.00  0.00     0.064 C 
BRANCH  21  22
ATOM     22  C   UNL d   1     -38.868  14.293  20.410  0.00  0.00     0.016 A 
ATOM     23  C   UNL d   1     -38.537  13.542  20.332  0.00  0.00     0.001 A 
ATOM     24  C   UNL d   1     -38.077  13.365  19.673  0.00  0.00     0.000 A 
ATOM     25  C   UNL d   1     -37.948  13.938  19.093  0.00  0.00     0.000 A 
ATOM     26  C   UNL d   1     -38.280  14.686  19.174  0.00  0.00     0.000 A 
ATOM     27  C   UNL d   1     -38.740  14.863  19.832  0.00  0.00     0.001 A 
ENDBRANCH  21  22
BRANCH  21  28
ATOM     28  C   UNL d   1     -38.979  14.796  21.747  0.00  0.00     0.016 A 
ATOM     29  C   UNL d   1     -38.662  14.282  22.319  0.00  0.00     0.001 A 
ATOM     30  C   UNL d   1     -38.313  14.608  22.999  0.00  0.00     0.000 A 
ATOM     31  C   UNL d   1     -38.283  15.423  23.099  0.00  0.00     0.000 A 
ATOM     32  C   UNL d   1     -38.602  15.922  22.524  0.00  0.00     0.000 A 
ATOM     33  C   UNL d   1     -38.951  15.609  21.845  0.00  0.00     0.001 A 
ENDBRANCH  21  28
ENDBRANCH   3  21
TORSDOF 6
ENDMDL
MODEL 4
REMARK VINA RESULT:      -2.6      2.303      7.079
REMARK  6 active torsions:
REMARK  status: ('A' for Active; 'I' for Inactive)
REMARK    1  A    between atoms: C_9  and  N_2 
REMARK       I    between atoms: N_5  and  C_6 
REMARK    2  A    between atoms: C_6  and  C_10 
REMARK    3  A    between atoms: C_11  and  N_7 
REMARK    4  A    between atoms: C_10  and  C_9 
REMARK    5  A    between atoms: C_18  and  C_11 
REMARK    6  A    between atoms: C_19  and  C_11 
ROOT
ATOM      1  N   UNL d   1     -46.446  13.026  22.770  0.00  0.00    -0.269 N 
ATOM      2  C   UNL d   1     -45.657  12.815  22.856  0.00  0.00     0.266 C 
ATOM      3  N   UNL d   1     -48.040  13.454  22.591  0.00  0.00    -0.301 N 
ATOM      4  C   UNL d   1     -46.719  13.316  22.040  0.00  0.00     0.102 A 
ATOM      5  C   UNL d   1     -46.967  12.953  23.399  0.00  0.00     0.102 A 
ATOM      6  C   UNL d   1     -47.763  13.166  23.310  0.00  0.00     0.100 A 
ATOM      7  C   UNL d   1     -47.506  13.528  21.949  0.00  0.00     0.100 A 
ATOM      8  O   UNL d   1     -45.388  12.527  23.582  0.00  0.00    -0.267 OA
ENDROOT
BRANCH   2   9
ATOM      9  C   UNL d   1     -45.132  12.888  22.225  0.00  0.00     0.080 C 
BRANCH   9  10
ATOM     10  C   UNL d   1     -44.387  13.216  22.337  0.00  0.00     0.090 C 
BRANCH  10  11
ATOM     11  N   UNL d   1     -43.741  12.934  21.913  0.00  0.00    -0.251 N 
ATOM     12  C   UNL d   1     -43.529  12.144  21.819  0.00  0.00     0.378 A 
ATOM     13  O   UNL d   1     -42.852  12.186  21.354  0.00  0.00    -0.258 OA
ATOM     14  O   UNL d   1     -43.931  11.496  22.134  0.00  0.00    -0.237 OA
ATOM     15  C   UNL d   1     -42.639  12.890  21.163  0.00  0.00     0.121 A 
ATOM     16  C   UNL d   1     -42.013  13.200  20.716  0.00  0.00     0.026 A 
ATOM     17  C   UNL d   1     -43.190  13.398  21.508  0.00  0.00     0.092 A 
ATOM     18  C   UNL d   1     -41.941  14.020  20.615  0.00  0.00     0.002 A 
ATOM     19  C   UNL d   1     -42.499  14.519  20.964  0.00  0.00     0.002 A 
ATOM     20  C   UNL d   1     -43.121  14.206  21.409  0.00  0.00     0.020 A 
ENDBRANCH  10  11
ENDBRANCH   9  10
ENDBRANCH   2   9
BRANCH   3  21
ATOM     21  C   UNL d   1     -48.836  13.672  22.488  0.00  0.00     0.064 C 
BRANCH  21  22
ATOM     22  C   UNL d   1     -49.378  13.150  22.155  0.00  0.00     0.016 A 
ATOM     23  C   UNL d   1     -49.752  12.590  22.630  0.00  0.00     0.001 A 
ATOM     24  C   UNL d   1     -50.294  12.069  22.296  0.00  0.00     0.000 A 
ATOM     25  C   UNL d   1     -50.462  12.108  21.488  0.00  0.00     0.000 A 
ATOM     26  C   UNL d   1     -50.087  12.668  21.018  0.00  0.00     0.000 A 
ATOM     27  C   UNL d   1     -49.545  13.190  21.352  0.00  0.00     0.001 A 
ENDBRANCH  21  22
BRANCH  21  28
ATOM     28  C   UNL d   1     -49.077  14.429  22.729  0.00  0.00     0.016 A 
ATOM     29  C   UNL d   1     -49.476  14.510  23.455  0.00  0.00     0.001 A 
ATOM     30  C   UNL d   1     -49.717  15.267  23.696  0.00  0.00     0.000 A 
ATOM     31  C   UNL d   1     -49.562  15.921  23.223  0.00  0.00     0.000 A 
ATOM     32  C   UNL d   1     -49.165  15.827  22.505  0.00  0.00     0.000 A 
ATOM     33  C   UNL d   1     -48.922  15.079  22.256  0.00  0.00     0.001 A 
ENDBRANCH  21  28
ENDBRANCH   3  21
TORSDOF 6
ENDMDL
MODEL 5
REMARK VINA RESULT:      -2.6      2.560      7.635
REMARK  6 active torsions:
REMARK  status: ('A' for Active; 'I' for Inactive)
REMARK    1  A    between atoms: C_9  and  N_2 
REMARK       I    between atoms: N_5  and  C_6 
REMARK    2  A    between atoms: C_6  and  C_10 
REMARK    3  A    between atoms: C_11  and  N_7 
REMARK    4  A    between atoms: C_10  and  C_9 
REMARK    5  A    between atoms: C_18  and  C_11 
REMARK    6  A    between atoms: C_19  and  C_11 
ROOT
ATOM      1  N   UNL d   1     -47.051  13.711  22.685  0.00  0.00    -0.269 N 
ATOM      2  C   UNL d   1     -46.249  13.884  22.737  0.00  0.00     0.266 C 
ATOM      3  N   UNL d   1     -48.669  13.359  22.576  0.00  0.00    -0.301 N 
ATOM      4  C   UNL d   1     -47.303  13.049  22.250  0.00  0.00     0.102 A 
ATOM      5  C   UNL d   1     -47.603  14.188  23.058  0.00  0.00     0.102 A 
ATOM      6  C   UNL d   1     -48.412  14.012  23.004  0.00  0.00     0.100 A 
ATOM      7  C   UNL d   1     -48.103  12.873  22.195  0.00  0.00     0.100 A 
ATOM      8  O   UNL d   1     -46.000  14.542  23.169  0.00  0.00    -0.267 OA
ENDROOT
BRANCH   2   9
ATOM      9  C   UNL d   1     -45.693  13.406  22.362  0.00  0.00     0.080 C 
BRANCH   9  10
ATOM     10  C   UNL d   1     -44.894  13.474  22.542  0.00  0.00     0.090 C 
BRANCH  10  11
ATOM     11  N   UNL d   1     -44.354  12.924  22.253  0.00  0.00    -0.251 N 
ATOM     12  C   UNL d   1     -44.361  12.115  22.398  0.00  0.00     0.378 A 
ATOM     13  O   UNL d   1     -43.706  11.844  21.979  0.00  0.00    -0.258 OA
ATOM     14  O   UNL d   1     -44.912  11.711  22.860  0.00  0.00    -0.237 OA
ATOM     15  C   UNL d   1     -43.318  12.383  21.610  0.00  0.00     0.121 A 
ATOM     16  C   UNL d   1     -42.642  12.378  21.130  0.00  0.00     0.026 A 
ATOM     17  C   UNL d   1     -43.709  13.093  21.765  0.00  0.00     0.092 A 
ATOM     18  C   UNL d   1     -42.358  13.087  20.806  0.00  0.00     0.002 A 
ATOM     19  C   UNL d   1     -42.757  13.792  20.968  0.00  0.00     0.002 A 
ATOM     20  C   UNL d   1     -43.431  13.793  21.447  0.00  0.00     0.020 A 
ENDBRANCH  10  11
ENDBRANCH   9  10
ENDBRANCH   2   9
BRANCH   3  21
ATOM     21  C   UNL d   1     -49.477  13.171  22.515  0.00  0.00     0.064 C 
BRANCH  21  22
ATOM     22  C   UNL d   1     -49.792  12.520  22.906  0.00  0.00     0.016 A 
ATOM     23  C   UNL d   1     -49.370  11.812  22.928  0.00  0.00     0.001 A 
ATOM     24  C   UNL d   1     -49.686  11.161  23.319  0.00  0.00     0.000 A 
ATOM     25  C   UNL d   1     -50.422  11.218  23.689  0.00  0.00     0.000 A 
ATOM     26  C   UNL d   1     -50.840  11.926  23.665  0.00  0.00     0.000 A 
ATOM     27  C   UNL d   1     -50.524  12.577  23.274  0.00  0.00     0.001 A 
ENDBRANCH  21  22
BRANCH  21  28
ATOM     28  C   UNL d   1     -49.965  13.656  22.048  0.00  0.00     0.016 A 
ATOM     29  C   UNL d   1     -50.241  14.372  22.369  0.00  0.00     0.001 A 
ATOM     30  C   UNL d   1     -50.728  14.856  21.902  0.00  0.00     0.000 A 
ATOM     31  C   UNL d   1     -50.931  14.628  21.139  0.00  0.00     0.000 A 
ATOM     32  C   UNL d   1     -50.651  13.914  20.834  0.00  0.00     0.000 A 
ATOM     33  C   UNL d   1     -50.166  13.426  21.288  0.00  0.00     0.001 A 
ENDBRANCH  21  28
ENDBRANCH   3  21
TORSDOF 6
ENDMDL
MODEL 6
REMARK VINA RESULT:      -2.2      2.239      7.121
REMARK  6 active torsions:
REMARK  status: ('A' for Active; 'I' for Inactive)
REMARK    1  A    between atoms: C_9  and  N_2 
REMARK       I    between atoms: N_5  and  C_6 
REMARK    2  A    between atoms: C_6  and  C_10 
REMARK    3  A    between atoms: C_11  and  N_7 
REMARK    4  A    between atoms: C_10  and  C_9 
REMARK    5  A    between atoms: C_18  and  C_11 
REMARK    6  A    between atoms: C_19  and  C_11 
ROOT
ATOM      1  N   UNL d   1     -46.311  13.037  22.722  0.00  0.00    -0.269 N 
ATOM      2  C   UNL d   1     -45.519  12.829  22.796  0.00  0.00     0.266 C 
ATOM      3  N   UNL d   1     -47.908  13.461  22.569  0.00  0.00    -0.301 N 
ATOM      4  C   UNL d   1     -46.574  13.422  22.034  0.00  0.00     0.102 A 
ATOM      5  C   UNL d   1     -46.842  12.869  23.323  0.00  0.00     0.102 A 
ATOM      6  C   UNL d   1     -47.640  13.080  23.247  0.00  0.00     0.100 A 
ATOM      7  C   UNL d   1     -47.363  13.633  21.956  0.00  0.00     0.100 A 
ATOM      8  O   UNL d   1     -45.259  12.447  23.480  0.00  0.00    -0.267 OA
ENDROOT
BRANCH   2   9
ATOM      9  C   UNL d   1     -44.984  12.997  22.192  0.00  0.00     0.080 C 
BRANCH   9  10
ATOM     10  C   UNL d   1     -44.200  13.172  22.366  0.00  0.00     0.090 C 
BRANCH  10  11
ATOM     11  N   UNL d   1     -43.600  12.950  21.848  0.00  0.00    -0.251 N 
ATOM     12  C   UNL d   1     -43.389  12.179  21.652  0.00  0.00     0.378 A 
ATOM     13  O   UNL d   1     -42.768  12.285  21.123  0.00  0.00    -0.258 OA
ATOM     14  O   UNL d   1     -43.744  11.493  21.941  0.00  0.00    -0.237 OA
ATOM     15  C   UNL d   1     -42.587  13.009  20.983  0.00  0.00     0.121 A 
ATOM     16  C   UNL d   1     -42.018  13.378  20.505  0.00  0.00     0.026 A 
ATOM     17  C   UNL d   1     -43.104  13.466  21.435  0.00  0.00     0.092 A 
ATOM     18  C   UNL d   1     -41.970  14.206  20.481  0.00  0.00     0.002 A 
ATOM     19  C   UNL d   1     -42.493  14.653  20.937  0.00  0.00     0.002 A 
ATOM     20  C   UNL d   1     -43.058  14.282  21.413  0.00  0.00     0.020 A 
ENDBRANCH  10  11
ENDBRANCH   9  10
ENDBRANCH   2   9
BRANCH   3  21
ATOM     21  C   UNL d   1     -48.706  13.679  22.481  0.00  0.00     0.064 C 
BRANCH  21  22
ATOM     22  C   UNL d   1     -48.974  14.415  22.730  0.00  0.00     0.016 A 
ATOM     23  C   UNL d   1     -49.370  14.486  23.449  0.00  0.00     0.001 A 
ATOM     24  C   UNL d   1     -49.638  15.223  23.697  0.00  0.00     0.000 A 
ATOM     25  C   UNL d   1     -49.510  15.889  23.226  0.00  0.00     0.000 A 
ATOM     26  C   UNL d   1     -49.115  15.815  22.509  0.00  0.00     0.000 A 
ATOM     27  C   UNL d   1     -48.847  15.078  22.261  0.00  0.00     0.001 A 
ENDBRANCH  21  22
BRANCH  21  28
ATOM     28  C   UNL d   1     -49.232  13.136  22.135  0.00  0.00     0.016 A 
ATOM     29  C   UNL d   1     -49.372  13.182  21.317  0.00  0.00     0.001 A 
ATOM     30  C   UNL d   1     -49.897  12.639  20.971  0.00  0.00     0.000 A 
ATOM     31  C   UNL d   1     -50.270  12.070  21.433  0.00  0.00     0.000 A 
ATOM     32  C   UNL d   1     -50.121  12.037  22.245  0.00  0.00     0.000 A 
ATOM     33  C   UNL d   1     -49.601  12.570  22.598  0.00  0.00     0.001 A 
ENDBRANCH  21  28
ENDBRANCH   3  21
TORSDOF 6
ENDMDL
