MODEL 1
REMARK VINA RESULT:      -5.1      0.000      0.000
REMARK  2 active torsions:
REMARK  status: ('A' for Active; 'I' for Inactive)
REMARK    1  A    between atoms: C_7  and  C_1 
REMARK    2  A    between atoms: C_11  and  C_7 
ROOT
ATOM      1  C   UNL d   1     -41.271-122.424 -51.684  0.00  0.00     0.116 A 
ATOM      2  N   UNL d   1     -41.462-122.926 -52.997  0.00  0.00    -0.152 NA
ATOM      3  N   UNL d   1     -41.514-121.502 -52.751  0.00  0.00    -0.152 NA
ATOM      4  C   UNL d   1     -41.319-123.036 -52.202  0.00  0.00     0.288 A 
ATOM      5  C   UNL d   1     -41.369-121.651 -51.958  0.00  0.00     0.288 A 
ATOM      6  C   UNL d   1     -41.563-122.132 -53.280  0.00  0.00     0.374 A 
ATOM      7  O   UNL d   1     -41.322-120.998 -51.436  0.00  0.00    -0.265 OA
ATOM      8  O   UNL d   1     -41.218-123.817 -51.913  0.00  0.00    -0.265 OA
ATOM      9  O   UNL d   1     -41.711-121.958 -54.081  0.00  0.00    -0.242 OA
ENDROOT
BRANCH   1  10
ATOM     10  C   UNL d   1     -41.123-122.561 -50.869  0.00  0.00     0.010 C 
BRANCH  10  11
ATOM     11  C   UNL d   1     -41.752-122.795 -50.389  0.00  0.00     0.000 A 
ATOM     12  C   UNL d   1     -42.323-122.250 -50.176  0.00  0.00     0.002 A 
ATOM     13  C   UNL d   1     -42.945-122.480 -49.702  0.00  0.00     0.030 A 
ATOM     14  C   UNL d   1     -42.998-123.264 -49.436  0.00  0.00     0.140 A 
ATOM     15  C   UNL d   1     -42.426-123.809 -49.648  0.00  0.00     0.030 A 
ATOM     16  F   UNL d   1     -43.630-123.526 -48.944  0.00  0.00    -0.204 F 
ATOM     17  C   UNL d   1     -41.804-123.579 -50.123  0.00  0.00     0.002 A 
ENDBRANCH  10  11
ENDBRANCH   1  10
TORSDOF 2
ENDMDL
MODEL 2
REMARK VINA RESULT:      -4.9      0.841      1.183
REMARK  2 active torsions:
REMARK  status: ('A' for Active; 'I' for Inactive)
REMARK    1  A    between atoms: C_7  and  C_1 
REMARK    2  A    between atoms: C_11  and  C_7 
ROOT
ATOM      1  C   UNL d   1     -41.494-122.473 -52.668  0.00  0.00     0.116 A 
ATOM      2  N   UNL d   1     -42.207-122.778 -53.856  0.00  0.00    -0.152 NA
ATOM      3  N   UNL d   1     -41.864-121.408 -53.550  0.00  0.00    -0.152 NA
ATOM      4  C   UNL d   1     -41.841-123.003 -53.162  0.00  0.00     0.288 A 
ATOM      5  C   UNL d   1     -41.505-121.670 -52.861  0.00  0.00     0.288 A 
ATOM      6  C   UNL d   1     -42.218-121.954 -54.055  0.00  0.00     0.374 A 
ATOM      7  O   UNL d   1     -41.150-121.100 -52.360  0.00  0.00    -0.265 OA
ATOM      8  O   UNL d   1     -41.824-123.816 -52.957  0.00  0.00    -0.265 OA
ATOM      9  O   UNL d   1     -42.578-121.667 -54.750  0.00  0.00    -0.242 OA
ENDROOT
BRANCH   1  10
ATOM     10  C   UNL d   1     -41.123-122.726 -51.959  0.00  0.00     0.010 C 
BRANCH  10  11
ATOM     11  C   UNL d   1     -41.584-122.804 -51.279  0.00  0.00     0.000 A 
ATOM     12  C   UNL d   1     -41.745-123.548 -50.982  0.00  0.00     0.002 A 
ATOM     13  C   UNL d   1     -42.201-123.626 -50.310  0.00  0.00     0.030 A 
ATOM     14  C   UNL d   1     -42.500-122.951 -49.930  0.00  0.00     0.140 A 
ATOM     15  C   UNL d   1     -42.338-122.207 -50.228  0.00  0.00     0.030 A 
ATOM     16  F   UNL d   1     -42.973-123.005 -49.235  0.00  0.00    -0.204 F 
ATOM     17  C   UNL d   1     -41.883-122.129 -50.900  0.00  0.00     0.002 A 
ENDBRANCH  10  11
ENDBRANCH   1  10
TORSDOF 2
ENDMDL
MODEL 3
REMARK VINA RESULT:      -4.8      1.188      2.136
REMARK  2 active torsions:
REMARK  status: ('A' for Active; 'I' for Inactive)
REMARK    1  A    between atoms: C_7  and  C_1 
REMARK    2  A    between atoms: C_11  and  C_7 
ROOT
ATOM      1  C   UNL d   1     -41.607-122.388 -53.351  0.00  0.00     0.116 A 
ATOM      2  N   UNL d   1     -42.387-121.613 -54.249  0.00  0.00    -0.152 NA
ATOM      3  N   UNL d   1     -42.243-123.036 -54.458  0.00  0.00    -0.152 NA
ATOM      4  C   UNL d   1     -41.914-121.684 -53.587  0.00  0.00     0.288 A 
ATOM      5  C   UNL d   1     -41.771-123.070 -53.788  0.00  0.00     0.288 A 
ATOM      6  C   UNL d   1     -42.556-122.313 -54.697  0.00  0.00     0.374 A 
ATOM      7  O   UNL d   1     -41.462-123.814 -53.560  0.00  0.00    -0.265 OA
ATOM      8  O   UNL d   1     -41.741-120.998 -53.137  0.00  0.00    -0.265 OA
ATOM      9  O   UNL d   1     -43.033-122.301 -55.381  0.00  0.00    -0.242 OA
ENDROOT
BRANCH   1  10
ATOM     10  C   UNL d   1     -41.123-122.437 -52.668  0.00  0.00     0.010 C 
BRANCH  10  11
ATOM     11  C   UNL d   1     -41.485-122.574 -51.938  0.00  0.00     0.000 A 
ATOM     12  C   UNL d   1     -41.513-123.333 -51.636  0.00  0.00     0.002 A 
ATOM     13  C   UNL d   1     -41.871-123.468 -50.915  0.00  0.00     0.030 A 
ATOM     14  C   UNL d   1     -42.203-122.838 -50.491  0.00  0.00     0.140 A 
ATOM     15  C   UNL d   1     -42.175-122.078 -50.794  0.00  0.00     0.030 A 
ATOM     16  F   UNL d   1     -42.578-122.952 -49.745  0.00  0.00    -0.204 F 
ATOM     17  C   UNL d   1     -41.818-121.943 -51.514  0.00  0.00     0.002 A 
ENDBRANCH  10  11
ENDBRANCH   1  10
TORSDOF 2
ENDMDL
MODEL 4
REMARK VINA RESULT:      -4.8      2.235      3.498
REMARK  2 active torsions:
REMARK  status: ('A' for Active; 'I' for Inactive)
REMARK    1  A    between atoms: C_7  and  C_1 
REMARK    2  A    between atoms: C_11  and  C_7 
ROOT
ATOM      1  C   UNL d   1     -42.038-122.751 -50.364  0.00  0.00     0.116 A 
ATOM      2  N   UNL d   1     -43.381-122.741 -49.904  0.00  0.00    -0.152 NA
ATOM      3  N   UNL d   1     -42.468-123.766 -49.450  0.00  0.00    -0.152 NA
ATOM      4  C   UNL d   1     -42.773-122.429 -50.351  0.00  0.00     0.288 A 
ATOM      5  C   UNL d   1     -41.882-123.424 -49.911  0.00  0.00     0.288 A 
ATOM      6  C   UNL d   1     -43.221-123.432 -49.439  0.00  0.00     0.374 A 
ATOM      7  O   UNL d   1     -41.122-123.778 -49.909  0.00  0.00    -0.265 OA
ATOM      8  O   UNL d   1     -42.921-121.745 -50.814  0.00  0.00    -0.265 OA
ATOM      9  O   UNL d   1     -43.801-123.795 -48.964  0.00  0.00    -0.242 OA
ENDROOT
BRANCH   1  10
ATOM     10  C   UNL d   1     -41.429-122.413 -50.831  0.00  0.00     0.010 C 
BRANCH  10  11
ATOM     11  C   UNL d   1     -41.364-122.643 -51.621  0.00  0.00     0.000 A 
ATOM     12  C   UNL d   1     -41.186-123.421 -51.803  0.00  0.00     0.002 A 
ATOM     13  C   UNL d   1     -41.123-123.649 -52.583  0.00  0.00     0.030 A 
ATOM     14  C   UNL d   1     -41.238-123.095 -53.189  0.00  0.00     0.140 A 
ATOM     15  C   UNL d   1     -41.415-122.318 -53.007  0.00  0.00     0.030 A 
ATOM     16  F   UNL d   1     -41.177-123.307 -54.003  0.00  0.00    -0.204 F 
ATOM     17  C   UNL d   1     -41.479-122.089 -52.227  0.00  0.00     0.002 A 
ENDBRANCH  10  11
ENDBRANCH   1  10
TORSDOF 2
ENDMDL
MODEL 5
REMARK VINA RESULT:      -2.8      2.704      3.723
REMARK  2 active torsions:
REMARK  status: ('A' for Active; 'I' for Inactive)
REMARK    1  A    between atoms: C_7  and  C_1 
REMARK    2  A    between atoms: C_11  and  C_7 
ROOT
ATOM      1  C   UNL d   1     -42.470-123.437 -49.414  0.00  0.00     0.116 A 
ATOM      2  N   UNL d   1     -41.927-123.414 -48.103  0.00  0.00    -0.152 NA
ATOM      3  N   UNL d   1     -43.302-123.027 -48.324  0.00  0.00    -0.152 NA
ATOM      4  C   UNL d   1     -41.859-123.550 -48.904  0.00  0.00     0.288 A 
ATOM      5  C   UNL d   1     -43.197-123.174 -49.124  0.00  0.00     0.288 A 
ATOM      6  C   UNL d   1     -42.673-123.144 -47.804  0.00  0.00     0.374 A 
ATOM      7  O   UNL d   1     -43.848-123.050 -49.636  0.00  0.00    -0.265 OA
ATOM      8  O   UNL d   1     -41.124-123.817 -49.209  0.00  0.00    -0.265 OA
ATOM      9  O   UNL d   1     -42.802-122.989 -46.995  0.00  0.00    -0.242 OA
ENDROOT
BRANCH   1  10
ATOM     10  C   UNL d   1     -42.377-123.583 -50.235  0.00  0.00     0.010 C 
BRANCH  10  11
ATOM     11  C   UNL d   1     -42.071-122.981 -50.709  0.00  0.00     0.000 A 
ATOM     12  C   UNL d   1     -42.311-122.209 -50.588  0.00  0.00     0.002 A 
ATOM     13  C   UNL d   1     -42.010-121.613 -51.057  0.00  0.00     0.030 A 
ATOM     14  C   UNL d   1     -41.462-121.791 -51.654  0.00  0.00     0.140 A 
ATOM     15  C   UNL d   1     -41.222-122.564 -51.775  0.00  0.00     0.030 A 
ATOM     16  F   UNL d   1     -41.136-121.193 -52.152  0.00  0.00    -0.204 F 
ATOM     17  C   UNL d   1     -41.524-123.159 -51.307  0.00  0.00     0.002 A 
ENDBRANCH  10  11
ENDBRANCH   1  10
TORSDOF 2
ENDMDL
MODEL 6
REMARK VINA RESULT:      -2.6      1.530      2.131
REMARK  2 active torsions:
REMARK  status: ('A' for Active; 'I' for Inactive)
REMARK    1  A    between atoms: C_7  and  C_1 
REMARK    2  A    between atoms: C_11  and  C_7 
ROOT
ATOM      1  C   UNL d   1     -42.396-123.096 -50.674  0.00  0.00     0.116 A 
ATOM      2  N   UNL d   1     -42.796-121.925 -51.369  0.00  0.00    -0.152 NA
ATOM      3  N   UNL d   1     -41.593-122.625 -51.762  0.00  0.00    -0.152 NA
ATOM      4  C   UNL d   1     -42.905-122.485 -50.786  0.00  0.00     0.288 A 
ATOM      5  C   UNL d   1     -41.735-123.168 -51.164  0.00  0.00     0.288 A 
ATOM      6  C   UNL d   1     -42.118-121.999 -51.873  0.00  0.00     0.374 A 
ATOM      7  O   UNL d   1     -41.191-123.798 -51.067  0.00  0.00    -0.265 OA
ATOM      8  O   UNL d   1     -43.574-122.421 -50.282  0.00  0.00    -0.265 OA
ATOM      9  O   UNL d   1     -41.954-121.458 -52.486  0.00  0.00    -0.242 OA
ENDROOT
BRANCH   1  10
ATOM     10  C   UNL d   1     -42.529-123.660 -50.067  0.00  0.00     0.010 C 
BRANCH  10  11
ATOM     11  C   UNL d   1     -42.256-123.491 -49.307  0.00  0.00     0.000 A 
ATOM     12  C   UNL d   1     -41.553-123.817 -49.046  0.00  0.00     0.002 A 
ATOM     13  C   UNL d   1     -41.284-123.650 -48.295  0.00  0.00     0.030 A 
ATOM     14  C   UNL d   1     -41.721-123.151 -47.797  0.00  0.00     0.140 A 
ATOM     15  C   UNL d   1     -42.425-122.825 -48.058  0.00  0.00     0.030 A 
ATOM     16  F   UNL d   1     -41.464-122.963 -47.016  0.00  0.00    -0.204 F 
ATOM     17  C   UNL d   1     -42.694-122.992 -48.809  0.00  0.00     0.002 A 
ENDBRANCH  10  11
ENDBRANCH   1  10
TORSDOF 2
ENDMDL
