MODEL 1
REMARK VINA RESULT:      -3.2      0.000      0.000
REMARK  4 active torsions:
REMARK  status: ('A' for Active; 'I' for Inactive)
REMARK    1  A    between atoms: C_3  and  S_1 
REMARK    2  A    between atoms: N_4  and  S_1 
REMARK    3  A    between atoms: C_2  and  C_8 
REMARK       I    between atoms: N_5  and  C_2 
REMARK    4  A    between atoms: C_14  and  N_5 
ROOT
ATOM      1  C   UNL d   1      32.950  18.165 -23.354  0.00  0.00     0.104 A 
ATOM      2  C   UNL d   1      32.930  19.642 -22.558  0.00  0.00     0.058 A 
ATOM      3  C   UNL d   1      32.663  18.819 -23.704  0.00  0.00     0.013 A 
ATOM      4  C   UNL d   1      33.233  18.236 -22.598  0.00  0.00     0.013 A 
ATOM      5  C   UNL d   1      33.237  18.947 -22.180  0.00  0.00     0.005 A 
ATOM      6  C   UNL d   1      32.652  19.551 -23.313  0.00  0.00     0.005 A 
ENDROOT
BRANCH   2   7
ATOM      7  C   UNL d   1      32.919  20.391 -22.158  0.00  0.00     0.279 C 
ATOM      8  N   UNL d   1      32.680  20.469 -21.417  0.00  0.00    -0.208 NA
ATOM      9  O   UNL d   1      33.183  21.065 -22.607  0.00  0.00    -0.265 OA
BRANCH   8  10
ATOM     10  C   UNL d   1      32.680  21.210 -21.053  0.00  0.00     0.085 A 
ATOM     11  C   UNL d   1      32.165  21.777 -21.310  0.00  0.00     0.020 A 
ATOM     12  C   UNL d   1      32.165  22.516 -20.945  0.00  0.00     0.013 A 
ATOM     13  C   UNL d   1      32.680  22.689 -20.324  0.00  0.00     0.058 A 
ATOM     14  C   UNL d   1      33.209  22.095 -20.066  0.00  0.00     0.013 A 
ATOM     15 CL   UNL d   1      32.643  23.492 -19.968  0.00  0.00    -0.082 Cl
ATOM     16  C   UNL d   1      33.205  21.356 -20.434  0.00  0.00     0.020 A 
ENDBRANCH   8  10
ENDBRANCH   2   7
BRANCH   1  17
ATOM     17  S   UNL d   1      32.992  17.353 -23.713  0.00  0.00     0.271 S 
ATOM     18  O   UNL d   1      33.188  16.968 -22.989  0.00  0.00    -0.200 OA
ATOM     19  O   UNL d   1      32.805  17.727 -24.402  0.00  0.00    -0.200 OA
BRANCH  17  20
ATOM     20  N   UNL d   1      33.017  16.580 -24.131  0.00  0.00    -0.226 N 
ATOM     21  C   UNL d   1      33.081  16.562 -24.965  0.00  0.00     0.111 C 
ATOM     22  C   UNL d   1      32.978  15.875 -23.703  0.00  0.00     0.111 C 
ENDBRANCH  17  20
ENDBRANCH   1  17
TORSDOF 4
ENDMDL
MODEL 2
REMARK VINA RESULT:      -2.5      0.711      1.079
REMARK  4 active torsions:
REMARK  status: ('A' for Active; 'I' for Inactive)
REMARK    1  A    between atoms: C_3  and  S_1 
REMARK    2  A    between atoms: N_4  and  S_1 
REMARK    3  A    between atoms: C_2  and  C_8 
REMARK       I    between atoms: N_5  and  C_2 
REMARK    4  A    between atoms: C_14  and  N_5 
ROOT
ATOM      1  C   UNL d   1      32.543  17.788 -23.543  0.00  0.00     0.104 A 
ATOM      2  C   UNL d   1      32.763  19.284 -22.816  0.00  0.00     0.058 A 
ATOM      3  C   UNL d   1      33.130  17.911 -23.021  0.00  0.00     0.013 A 
ATOM      4  C   UNL d   1      32.053  18.411 -23.713  0.00  0.00     0.013 A 
ATOM      5  C   UNL d   1      32.135  19.158 -23.373  0.00  0.00     0.005 A 
ATOM      6  C   UNL d   1      33.241  18.650 -22.660  0.00  0.00     0.005 A 
ENDROOT
BRANCH   2   7
ATOM      7  C   UNL d   1      32.877  20.040 -22.447  0.00  0.00     0.279 C 
ATOM      8  N   UNL d   1      32.664  20.185 -21.709  0.00  0.00    -0.208 NA
ATOM      9  O   UNL d   1      33.240  20.645 -22.925  0.00  0.00    -0.265 OA
BRANCH   8  10
ATOM     10  C   UNL d   1      32.787  20.930 -21.375  0.00  0.00     0.085 A 
ATOM     11  C   UNL d   1      33.100  20.984 -20.632  0.00  0.00     0.020 A 
ATOM     12  C   UNL d   1      33.223  21.728 -20.300  0.00  0.00     0.013 A 
ATOM     13  C   UNL d   1      33.032  22.419 -20.710  0.00  0.00     0.058 A 
ATOM     14  C   UNL d   1      32.708  22.351 -21.478  0.00  0.00     0.013 A 
ATOM     15 CL   UNL d   1      33.180  23.189 -20.314  0.00  0.00    -0.082 Cl
ATOM     16  C   UNL d   1      32.587  21.604 -21.806  0.00  0.00     0.020 A 
ENDBRANCH   8  10
ENDBRANCH   2   7
BRANCH   1  17
ATOM     17  S   UNL d   1      32.367  17.026 -23.965  0.00  0.00     0.271 S 
ATOM     18  O   UNL d   1      32.005  16.659 -23.298  0.00  0.00    -0.200 OA
ATOM     19  O   UNL d   1      32.714  17.381 -24.600  0.00  0.00    -0.200 OA
BRANCH  17  20
ATOM     20  N   UNL d   1      32.223  16.301 -24.442  0.00  0.00    -0.226 N 
ATOM     21  C   UNL d   1      32.823  16.012 -24.948  0.00  0.00     0.111 C 
ATOM     22  C   UNL d   1      31.499  15.907 -24.390  0.00  0.00     0.111 C 
ENDBRANCH  17  20
ENDBRANCH   1  17
TORSDOF 4
ENDMDL
MODEL 3
REMARK VINA RESULT:      -2.0      2.624      5.382
REMARK  4 active torsions:
REMARK  status: ('A' for Active; 'I' for Inactive)
REMARK    1  A    between atoms: C_3  and  S_1 
REMARK    2  A    between atoms: N_4  and  S_1 
REMARK    3  A    between atoms: C_2  and  C_8 
REMARK       I    between atoms: N_5  and  C_2 
REMARK    4  A    between atoms: C_14  and  N_5 
ROOT
ATOM      1  C   UNL d   1      32.723  22.034 -20.664  0.00  0.00     0.104 A 
ATOM      2  C   UNL d   1      32.891  20.847 -21.838  0.00  0.00     0.058 A 
ATOM      3  C   UNL d   1      32.456  21.295 -20.545  0.00  0.00     0.013 A 
ATOM      4  C   UNL d   1      33.081  22.196 -21.373  0.00  0.00     0.013 A 
ATOM      5  C   UNL d   1      33.179  21.636 -21.970  0.00  0.00     0.005 A 
ATOM      6  C   UNL d   1      32.537  20.706 -21.124  0.00  0.00     0.005 A 
ENDROOT
BRANCH   2   7
ATOM      7  C   UNL d   1      32.975  20.245 -22.431  0.00  0.00     0.279 C 
ATOM      8  N   UNL d   1      32.820  19.492 -22.290  0.00  0.00    -0.208 NA
ATOM      9  O   UNL d   1      33.241  20.502 -23.198  0.00  0.00    -0.265 OA
BRANCH   8  10
ATOM     10  C   UNL d   1      32.910  18.927 -22.885  0.00  0.00     0.085 A 
ATOM     11  C   UNL d   1      33.126  18.174 -22.686  0.00  0.00     0.020 A 
ATOM     12  C   UNL d   1      33.216  17.610 -23.282  0.00  0.00     0.013 A 
ATOM     13  C   UNL d   1      33.090  17.799 -24.075  0.00  0.00     0.058 A 
ATOM     14  C   UNL d   1      32.867  18.582 -24.269  0.00  0.00     0.013 A 
ATOM     15 CL   UNL d   1      33.198  17.165 -24.674  0.00  0.00    -0.082 Cl
ATOM     16  C   UNL d   1      32.778  19.142 -23.670  0.00  0.00     0.020 A 
ENDBRANCH   8  10
ENDBRANCH   2   7
BRANCH   1  17
ATOM     17  S   UNL d   1      32.669  22.711 -20.090  0.00  0.00     0.271 S 
ATOM     18  O   UNL d   1      33.241  23.185 -20.488  0.00  0.00    -0.200 OA
ATOM     19  O   UNL d   1      32.123  22.253 -19.714  0.00  0.00    -0.200 OA
BRANCH  17  20
ATOM     20  N   UNL d   1      32.566  23.341 -19.486  0.00  0.00    -0.226 N 
ATOM     21  C   UNL d   1      31.816  23.694 -19.379  0.00  0.00     0.111 C 
ATOM     22  C   UNL d   1      33.208  23.585 -19.027  0.00  0.00     0.111 C 
ENDBRANCH  17  20
ENDBRANCH   1  17
TORSDOF 4
ENDMDL
MODEL 4
REMARK VINA RESULT:      -0.9      4.014      6.079
REMARK  4 active torsions:
REMARK  status: ('A' for Active; 'I' for Inactive)
REMARK    1  A    between atoms: C_3  and  S_1 
REMARK    2  A    between atoms: N_4  and  S_1 
REMARK    3  A    between atoms: C_2  and  C_8 
REMARK       I    between atoms: N_5  and  C_2 
REMARK    4  A    between atoms: C_14  and  N_5 
ROOT
ATOM      1  C   UNL d   1      32.730  23.118 -18.516  0.00  0.00     0.104 A 
ATOM      2  C   UNL d   1      32.904  23.021 -20.182  0.00  0.00     0.058 A 
ATOM      3  C   UNL d   1      32.417  23.668 -18.996  0.00  0.00     0.013 A 
ATOM      4  C   UNL d   1      33.138  22.507 -18.859  0.00  0.00     0.013 A 
ATOM      5  C   UNL d   1      33.241  22.431 -19.674  0.00  0.00     0.005 A 
ATOM      6  C   UNL d   1      32.501  23.623 -19.821  0.00  0.00     0.005 A 
ENDROOT
BRANCH   2   7
ATOM      7  C   UNL d   1      32.990  22.975 -21.026  0.00  0.00     0.279 C 
ATOM      8  N   UNL d   1      32.875  22.312 -21.425  0.00  0.00    -0.208 NA
ATOM      9  O   UNL d   1      33.211  23.695 -21.424  0.00  0.00    -0.265 OA
BRANCH   8  10
ATOM     10  C   UNL d   1      32.966  22.297 -22.245  0.00  0.00     0.085 A 
ATOM     11  C   UNL d   1      32.875  22.980 -22.667  0.00  0.00     0.020 A 
ATOM     12  C   UNL d   1      32.966  22.963 -23.486  0.00  0.00     0.013 A 
ATOM     13  C   UNL d   1      33.148  22.264 -23.884  0.00  0.00     0.058 A 
ATOM     14  C   UNL d   1      33.241  21.562 -23.438  0.00  0.00     0.013 A 
ATOM     15 CL   UNL d   1      33.236  22.296 -24.758  0.00  0.00    -0.082 Cl
ATOM     16  C   UNL d   1      33.149  21.584 -22.618  0.00  0.00     0.020 A 
ENDBRANCH   8  10
ENDBRANCH   2   7
BRANCH   1  17
ATOM     17  S   UNL d   1      32.678  23.104 -17.629  0.00  0.00     0.271 S 
ATOM     18  O   UNL d   1      33.241  22.483 -17.536  0.00  0.00    -0.200 OA
ATOM     19  O   UNL d   1      32.141  23.698 -17.724  0.00  0.00    -0.200 OA
BRANCH  17  20
ATOM     20  N   UNL d   1      32.579  23.144 -16.756  0.00  0.00    -0.226 N 
ATOM     21  C   UNL d   1      33.184  23.475 -16.284  0.00  0.00     0.111 C 
ATOM     22  C   UNL d   1      31.890  22.856 -16.404  0.00  0.00     0.111 C 
ENDBRANCH  17  20
ENDBRANCH   1  17
TORSDOF 4
ENDMDL
