MODEL 1
REMARK VINA RESULT:       2.1      0.000      0.000
REMARK  7 active torsions:
REMARK  status: ('A' for Active; 'I' for Inactive)
REMARK    1  A    between atoms: S_3  and  C_1 
REMARK    2  A    between atoms: C_10  and  S_3 
REMARK    3  A    between atoms: N_11  and  C_4 
REMARK    4  A    between atoms: C_9  and  C_5 
REMARK    5  A    between atoms: C_20  and  N_11 
REMARK    6  A    between atoms: C_22  and  C_20 
REMARK    7  A    between atoms: C_23  and  C_22 
ROOT
ATOM      1  C   UNL d   1     -42.176-122.738 -49.847  0.00  0.00     0.042 A 
ATOM      2  C   UNL d   1     -41.672-123.256 -49.457  0.00  0.00     0.006 A 
ATOM      3  C   UNL d   1     -42.877-122.479 -49.488  0.00  0.00     0.006 A 
ATOM      4  C   UNL d   1     -42.567-123.272 -48.327  0.00  0.00     0.094 A 
ATOM      5  C   UNL d   1     -43.080-122.740 -48.732  0.00  0.00     0.024 A 
ATOM      6  C   UNL d   1     -41.866-123.525 -48.696  0.00  0.00     0.024 A 
ATOM      7  O   UNL d   1     -42.765-123.538 -47.566  0.00  0.00    -0.328 OA
ATOM      8  C   UNL d   1     -42.957-123.816 -46.790  0.00  0.00     0.181 C 
ENDROOT
BRANCH   1   9
ATOM      9  C   UNL d   1     -41.988-122.466 -50.606  0.00  0.00     0.185 A 
ATOM     10  N   UNL d   1     -41.935-122.970 -51.254  0.00  0.00    -0.207 NA
ATOM     11  C   UNL d   1     -41.740-122.516 -51.915  0.00  0.00     0.212 A 
ATOM     12  C   UNL d   1     -41.676-121.739 -51.666  0.00  0.00     0.213 A 
ATOM     13  O   UNL d   1     -41.825-121.698 -50.868  0.00  0.00    -0.269 OA
BRANCH  11  14
ATOM     14  S   UNL d   1     -41.606-122.683 -52.727  0.00  0.00     0.230 S 
ATOM     15  O   UNL d   1     -41.123-123.277 -52.235  0.00  0.00    -0.215 OA
ATOM     16  O   UNL d   1     -42.057-122.130 -53.215  0.00  0.00    -0.215 OA
BRANCH  14  17
ATOM     17  C   UNL d   1     -41.476-122.846 -53.521  0.00  0.00     0.090 A 
ATOM     18  C   UNL d   1     -41.324-123.612 -53.759  0.00  0.00     0.011 A 
ATOM     19  C   UNL d   1     -41.194-123.778 -54.549  0.00  0.00     0.001 A 
ATOM     20  C   UNL d   1     -41.216-123.176 -55.100  0.00  0.00     0.000 A 
ATOM     21  C   UNL d   1     -41.369-122.401 -54.865  0.00  0.00     0.001 A 
ATOM     22  C   UNL d   1     -41.499-122.236 -54.076  0.00  0.00     0.011 A 
ENDBRANCH  14  17
ENDBRANCH  11  14
BRANCH  12  23
ATOM     23  N   UNL d   1     -41.484-121.119 -52.185  0.00  0.00    -0.219 NA
BRANCH  23  24
ATOM     24  C   UNL d   1     -41.125-120.388 -52.109  0.00  0.00     0.101 C 
BRANCH  24  25
ATOM     25  C   UNL d   1     -41.513-119.900 -52.645  0.00  0.00     0.021 C 
BRANCH  25  26
ATOM     26  C   UNL d   1     -41.197-119.150 -52.832  0.00  0.00     0.002 C 
ATOM     27  C   UNL d   1     -41.156-118.553 -52.256  0.00  0.00     0.000 C 
ENDBRANCH  25  26
ENDBRANCH  24  25
ENDBRANCH  23  24
ENDBRANCH  12  23
ENDBRANCH   1   9
TORSDOF 7
ENDMDL
