MODEL 1
REMARK VINA RESULT:      -5.7      0.000      0.000
REMARK  2 active torsions:
REMARK  status: ('A' for Active; 'I' for Inactive)
REMARK    1  A    between atoms: N_2  and  S_1 
REMARK    2  A    between atoms: C_3  and  S_1 
ROOT
ATOM      1  S   UNL d   1     -41.491-122.689 -52.704  0.00  0.00     0.272 S 
ATOM      2  O   UNL d   1     -41.860-123.427 -52.695  0.00  0.00    -0.200 OA
ATOM      3  O   UNL d   1     -41.123-121.952 -52.708  0.00  0.00    -0.200 OA
ENDROOT
BRANCH   1   4
ATOM      4  N   UNL d   1     -41.417-122.716 -51.883  0.00  0.00    -0.225 N 
ATOM      5  C   UNL d   1     -41.460-121.953 -51.399  0.00  0.00     0.118 A 
ATOM      6  C   UNL d   1     -41.379-121.982 -50.496  0.00  0.00     0.142 A 
ATOM      7  O   UNL d   1     -41.254-122.775 -50.077  0.00  0.00    -0.300 OA
ATOM      8  C   UNL d   1     -41.211-123.539 -50.562  0.00  0.00     0.142 A 
ATOM      9  C   UNL d   1     -41.293-123.509 -51.465  0.00  0.00     0.118 A 
ENDBRANCH   1   4
BRANCH   1  10
ATOM     10  C   UNL d   1     -41.563-122.658 -53.524  0.00  0.00     0.104 A 
ATOM     11  C   UNL d   1     -42.074-122.115 -53.873  0.00  0.00     0.015 A 
ATOM     12  C   UNL d   1     -42.150-122.080 -54.697  0.00  0.00     0.028 A 
ATOM     13  C   UNL d   1     -42.662-121.537 -55.050  0.00  0.00     0.002 C 
ATOM     14  C   UNL d   1     -41.709-122.596 -55.166  0.00  0.00     0.140 A 
ATOM     15  C   UNL d   1     -41.198-123.139 -54.814  0.00  0.00     0.030 A 
ATOM     16  F   UNL d   1     -41.778-122.569 -55.987  0.00  0.00    -0.204 F 
ATOM     17  C   UNL d   1     -41.123-123.174 -53.994  0.00  0.00     0.015 A 
ENDBRANCH   1  10
TORSDOF 2
ENDMDL
MODEL 2
REMARK VINA RESULT:      -5.0      1.803      3.704
REMARK  2 active torsions:
REMARK  status: ('A' for Active; 'I' for Inactive)
REMARK    1  A    between atoms: N_2  and  S_1 
REMARK    2  A    between atoms: C_3  and  S_1 
ROOT
ATOM      1  S   UNL d   1     -41.566-122.673 -52.997  0.00  0.00     0.272 S 
ATOM      2  O   UNL d   1     -41.212-121.942 -52.854  0.00  0.00    -0.200 OA
ATOM      3  O   UNL d   1     -41.920-123.403 -53.144  0.00  0.00    -0.200 OA
ENDROOT
BRANCH   1   4
ATOM      4  N   UNL d   1     -41.641-122.481 -53.796  0.00  0.00    -0.225 N 
ATOM      5  C   UNL d   1     -41.135-122.905 -54.414  0.00  0.00     0.118 A 
ATOM      6  C   UNL d   1     -41.217-122.694 -55.292  0.00  0.00     0.142 A 
ATOM      7  O   UNL d   1     -41.807-122.058 -55.552  0.00  0.00    -0.300 OA
ATOM      8  C   UNL d   1     -42.314-121.633 -54.933  0.00  0.00     0.142 A 
ATOM      9  C   UNL d   1     -42.231-121.845 -54.055  0.00  0.00     0.118 A 
ENDBRANCH   1   4
BRANCH   1  10
ATOM     10  C   UNL d   1     -41.492-122.869 -52.200  0.00  0.00     0.104 A 
ATOM     11  C   UNL d   1     -41.712-122.327 -51.621  0.00  0.00     0.015 A 
ATOM     12  C   UNL d   1     -41.640-122.519 -50.818  0.00  0.00     0.028 A 
ATOM     13  C   UNL d   1     -41.859-121.978 -50.235  0.00  0.00     0.002 C 
ATOM     14  C   UNL d   1     -41.346-123.260 -50.605  0.00  0.00     0.140 A 
ATOM     15  C   UNL d   1     -41.127-123.801 -51.187  0.00  0.00     0.030 A 
ATOM     16  F   UNL d   1     -41.271-123.460 -49.808  0.00  0.00    -0.204 F 
ATOM     17  C   UNL d   1     -41.198-123.609 -51.985  0.00  0.00     0.015 A 
ENDBRANCH   1  10
TORSDOF 2
ENDMDL
MODEL 3
REMARK VINA RESULT:      -4.8      2.907      4.950
REMARK  2 active torsions:
REMARK  status: ('A' for Active; 'I' for Inactive)
REMARK    1  A    between atoms: N_2  and  S_1 
REMARK    2  A    between atoms: C_3  and  S_1 
ROOT
ATOM      1  S   UNL d   1     -41.891-123.168 -50.094  0.00  0.00     0.272 S 
ATOM      2  O   UNL d   1     -41.263-123.695 -50.002  0.00  0.00    -0.200 OA
ATOM      3  O   UNL d   1     -42.517-122.641 -50.191  0.00  0.00    -0.200 OA
ENDROOT
BRANCH   1   4
ATOM      4  N   UNL d   1     -41.652-123.018 -50.869  0.00  0.00    -0.225 N 
ATOM      5  C   UNL d   1     -41.413-123.703 -51.410  0.00  0.00     0.118 A 
ATOM      6  C   UNL d   1     -41.150-123.538 -52.262  0.00  0.00     0.142 A 
ATOM      7  O   UNL d   1     -41.125-122.689 -52.573  0.00  0.00    -0.300 OA
ATOM      8  C   UNL d   1     -41.364-122.003 -52.031  0.00  0.00     0.142 A 
ATOM      9  C   UNL d   1     -41.628-122.168 -51.179  0.00  0.00     0.118 A 
ENDBRANCH   1   4
BRANCH   1  10
ATOM     10  C   UNL d   1     -42.133-123.315 -49.320  0.00  0.00     0.104 A 
ATOM     11  C   UNL d   1     -41.633-123.138 -48.691  0.00  0.00     0.015 A 
ATOM     12  C   UNL d   1     -41.872-123.284 -47.911  0.00  0.00     0.028 A 
ATOM     13  C   UNL d   1     -41.372-123.107 -47.279  0.00  0.00     0.002 C 
ATOM     14  C   UNL d   1     -42.617-123.610 -47.771  0.00  0.00     0.140 A 
ATOM     15  C   UNL d   1     -43.116-123.786 -48.404  0.00  0.00     0.030 A 
ATOM     16  F   UNL d   1     -42.863-123.758 -46.998  0.00  0.00    -0.204 F 
ATOM     17  C   UNL d   1     -42.878-123.641 -49.179  0.00  0.00     0.015 A 
ENDBRANCH   1  10
TORSDOF 2
ENDMDL
MODEL 4
REMARK VINA RESULT:      -4.7      2.098      2.959
REMARK  2 active torsions:
REMARK  status: ('A' for Active; 'I' for Inactive)
REMARK    1  A    between atoms: N_2  and  S_1 
REMARK    2  A    between atoms: C_3  and  S_1 
ROOT
ATOM      1  S   UNL d   1     -41.825-122.979 -50.080  0.00  0.00     0.272 S 
ATOM      2  O   UNL d   1     -41.127-123.417 -50.036  0.00  0.00    -0.200 OA
ATOM      3  O   UNL d   1     -42.524-122.543 -50.119  0.00  0.00    -0.200 OA
ENDROOT
BRANCH   1   4
ATOM      4  N   UNL d   1     -42.005-123.186 -49.302  0.00  0.00    -0.225 N 
ATOM      5  C   UNL d   1     -42.796-123.580 -49.109  0.00  0.00     0.118 A 
ATOM      6  C   UNL d   1     -42.993-123.808 -48.253  0.00  0.00     0.142 A 
ATOM      7  O   UNL d   1     -42.399-123.643 -47.591  0.00  0.00    -0.300 OA
ATOM      8  C   UNL d   1     -41.606-123.248 -47.785  0.00  0.00     0.142 A 
ATOM      9  C   UNL d   1     -41.409-123.020 -48.640  0.00  0.00     0.118 A 
ENDBRANCH   1   4
BRANCH   1  10
ATOM     10  C   UNL d   1     -41.650-122.769 -50.857  0.00  0.00     0.104 A 
ATOM     11  C   UNL d   1     -41.476-123.353 -51.411  0.00  0.00     0.015 A 
ATOM     12  C   UNL d   1     -41.298-123.147 -52.195  0.00  0.00     0.028 A 
ATOM     13  C   UNL d   1     -41.123-123.729 -52.752  0.00  0.00     0.002 C 
ATOM     14  C   UNL d   1     -41.298-122.351 -52.413  0.00  0.00     0.140 A 
ATOM     15  C   UNL d   1     -41.474-121.770 -51.856  0.00  0.00     0.030 A 
ATOM     16  F   UNL d   1     -41.123-122.138 -53.191  0.00  0.00    -0.204 F 
ATOM     17  C   UNL d   1     -41.650-121.975 -51.077  0.00  0.00     0.015 A 
ENDBRANCH   1  10
TORSDOF 2
ENDMDL
