MODEL 1
REMARK VINA RESULT:      50.6      0.000      0.000
REMARK  5 active torsions:
REMARK  status: ('A' for Active; 'I' for Inactive)
REMARK    1  A    between atoms: C_14  and  C_3 
REMARK    2  A    between atoms: C_8  and  C_4 
REMARK    3  A    between atoms: N_10  and  C_9 
REMARK    4  A    between atoms: O_21  and  C_14 
REMARK    5  A    between atoms: C_25  and  O_21 
ROOT
ATOM      1  C   UNL d   1      13.879  13.467  -2.893  0.00  0.00     0.059 A 
ATOM      2  C   UNL d   1      13.785  12.650  -2.956  0.00  0.00     0.085 A 
ATOM      3  C   UNL d   1      14.445  13.301  -1.596  0.00  0.00     0.083 A 
ATOM      4  C   UNL d   1      14.209  13.788  -2.212  0.00  0.00     0.034 A 
ATOM      5  N   UNL d   1      14.017  12.155  -2.348  0.00  0.00    -0.245 NA
ATOM      6  C   UNL d   1      13.597  13.814  -3.585  0.00  0.00     0.197 A 
ATOM      7  C   UNL d   1      14.351  12.480  -1.660  0.00  0.00     0.087 A 
ATOM      8  C   UNL d   1      13.443  12.491  -3.693  0.00  0.00     0.021 A 
ATOM      9  C   UNL d   1      13.326  13.207  -4.081  0.00  0.00     0.041 A 
ATOM     10  O   UNL d   1      13.585  14.624  -3.756  0.00  0.00    -0.286 OA
ATOM     11  C   UNL d   1      14.588  11.987  -1.043  0.00  0.00     0.021 C 
ATOM     12  C   UNL d   1      13.219  11.779  -4.066  0.00  0.00     0.002 A 
ATOM     13  C   UNL d   1      12.989  13.225  -4.838  0.00  0.00     0.003 A 
ATOM     14  C   UNL d   1      12.886  11.800  -4.815  0.00  0.00     0.000 A 
ATOM     15  C   UNL d   1      12.769  12.513  -5.204  0.00  0.00     0.000 A 
ENDROOT
BRANCH   4  16
ATOM     16  C   UNL d   1      14.302  14.605  -2.148  0.00  0.00     0.102 A 
ATOM     17  O   UNL d   1      14.904  15.056  -2.490  0.00  0.00    -0.286 OA
ATOM     18  C   UNL d   1      14.788  15.840  -2.287  0.00  0.00     0.227 A 
ATOM     19  C   UNL d   1      14.112  15.888  -1.817  0.00  0.00     0.051 A 
ATOM     20  C   UNL d   1      13.807  15.122  -1.729  0.00  0.00     0.029 A 
BRANCH  18  21
ATOM     21  N   UNL d   1      15.261  16.484  -2.510  0.00  0.00    -0.089 N 
ATOM     22  O   UNL d   1      15.788  16.818  -1.976  0.00  0.00    -0.530 OA
ATOM     23  O   UNL d   1      15.195  16.789  -3.280  0.00  0.00    -0.530 OA
ENDBRANCH  18  21
ENDBRANCH   4  16
BRANCH   3  24
ATOM     24  C   UNL d   1      14.777  13.621  -0.912  0.00  0.00     0.302 C 
ATOM     25  O   UNL d   1      14.303  14.053  -0.392  0.00  0.00    -0.259 OA
BRANCH  24  26
ATOM     26  O   UNL d   1      15.576  13.511  -0.747  0.00  0.00    -0.271 OA
BRANCH  26  27
ATOM     27  C   UNL d   1      15.885  13.766  -0.028  0.00  0.00     0.126 C 
ATOM     28  C   UNL d   1      16.493  14.321  -0.017  0.00  0.00     0.029 C 
ENDBRANCH  26  27
ENDBRANCH  24  26
ENDBRANCH   3  24
TORSDOF 5
ENDMDL
MODEL 2
REMARK VINA RESULT:      50.9      1.561      3.813
REMARK  5 active torsions:
REMARK  status: ('A' for Active; 'I' for Inactive)
REMARK    1  A    between atoms: C_14  and  C_3 
REMARK    2  A    between atoms: C_8  and  C_4 
REMARK    3  A    between atoms: N_10  and  C_9 
REMARK    4  A    between atoms: O_21  and  C_14 
REMARK    5  A    between atoms: C_25  and  O_21 
ROOT
ATOM      1  C   UNL d   1      14.206  13.543  -2.377  0.00  0.00     0.059 A 
ATOM      2  C   UNL d   1      14.595  13.835  -1.711  0.00  0.00     0.085 A 
ATOM      3  C   UNL d   1      14.258  14.835  -2.975  0.00  0.00     0.083 A 
ATOM      4  C   UNL d   1      14.040  14.045  -3.006  0.00  0.00     0.034 A 
ATOM      5  N   UNL d   1      14.818  14.621  -1.670  0.00  0.00    -0.245 NA
ATOM      6  C   UNL d   1      14.056  12.741  -2.257  0.00  0.00     0.197 A 
ATOM      7  C   UNL d   1      14.649  15.129  -2.306  0.00  0.00     0.087 A 
ATOM      8  C   UNL d   1      14.686  13.211  -1.175  0.00  0.00     0.021 A 
ATOM      9  C   UNL d   1      14.354  12.536  -1.510  0.00  0.00     0.041 A 
ATOM     10  O   UNL d   1      13.675  12.231  -2.785  0.00  0.00    -0.286 OA
ATOM     11  C   UNL d   1      14.870  15.922  -2.272  0.00  0.00     0.021 C 
ATOM     12  C   UNL d   1      15.031  13.167  -0.418  0.00  0.00     0.002 A 
ATOM     13  C   UNL d   1      14.361  11.816  -1.100  0.00  0.00     0.003 A 
ATOM     14  C   UNL d   1      15.037  12.452  -0.014  0.00  0.00     0.000 A 
ATOM     15  C   UNL d   1      14.706  11.779  -0.347  0.00  0.00     0.000 A 
ENDROOT
BRANCH   4  16
ATOM     16  C   UNL d   1      13.651  13.752  -3.672  0.00  0.00     0.102 A 
ATOM     17  O   UNL d   1      13.870  13.091  -4.114  0.00  0.00    -0.286 OA
ATOM     18  C   UNL d   1      13.334  12.998  -4.725  0.00  0.00     0.227 A 
ATOM     19  C   UNL d   1      12.773  13.600  -4.671  0.00  0.00     0.051 A 
ATOM     20  C   UNL d   1      12.967  14.071  -4.017  0.00  0.00     0.029 A 
BRANCH  18  21
ATOM     21  N   UNL d   1      13.342  12.404  -5.305  0.00  0.00    -0.089 N 
ATOM     22  O   UNL d   1      12.811  11.780  -5.269  0.00  0.00    -0.530 OA
ATOM     23  O   UNL d   1      13.895  12.449  -5.924  0.00  0.00    -0.530 OA
ENDBRANCH  18  21
ENDBRANCH   4  16
BRANCH   3  24
ATOM     24  C   UNL d   1      14.092  15.341  -3.605  0.00  0.00     0.302 C 
ATOM     25  O   UNL d   1      13.396  15.783  -3.601  0.00  0.00    -0.259 OA
BRANCH  24  26
ATOM     26  O   UNL d   1      14.618  15.404  -4.236  0.00  0.00    -0.271 OA
BRANCH  26  27
ATOM     27  C   UNL d   1      14.752  16.139  -4.585  0.00  0.00     0.126 C 
ATOM     28  C   UNL d   1      15.510  16.340  -4.836  0.00  0.00     0.029 C 
ENDBRANCH  26  27
ENDBRANCH  24  26
ENDBRANCH   3  24
TORSDOF 5
ENDMDL
MODEL 3
REMARK VINA RESULT:      51.0      1.216      2.644
REMARK  5 active torsions:
REMARK  status: ('A' for Active; 'I' for Inactive)
REMARK    1  A    between atoms: C_14  and  C_3 
REMARK    2  A    between atoms: C_8  and  C_4 
REMARK    3  A    between atoms: N_10  and  C_9 
REMARK    4  A    between atoms: O_21  and  C_14 
REMARK    5  A    between atoms: C_25  and  O_21 
ROOT
ATOM      1  C   UNL d   1      13.870  13.366  -2.988  0.00  0.00     0.059 A 
ATOM      2  C   UNL d   1      13.658  13.759  -3.682  0.00  0.00     0.085 A 
ATOM      3  C   UNL d   1      14.269  14.604  -2.407  0.00  0.00     0.083 A 
ATOM      4  C   UNL d   1      14.175  13.790  -2.355  0.00  0.00     0.034 A 
ATOM      5  N   UNL d   1      13.748  14.570  -3.745  0.00  0.00    -0.245 NA
ATOM      6  C   UNL d   1      13.717  12.562  -3.091  0.00  0.00     0.197 A 
ATOM      7  C   UNL d   1      14.056  14.999  -3.104  0.00  0.00     0.087 A 
ATOM      8  C   UNL d   1      13.371  13.196  -4.216  0.00  0.00     0.021 A 
ATOM      9  C   UNL d   1      13.407  12.458  -3.854  0.00  0.00     0.041 A 
ATOM     10  O   UNL d   1      13.847  11.965  -2.534  0.00  0.00    -0.286 OA
ATOM     11  C   UNL d   1      14.150  15.816  -3.160  0.00  0.00     0.021 C 
ATOM     12  C   UNL d   1      13.080  13.259  -4.995  0.00  0.00     0.002 A 
ATOM     13  C   UNL d   1      13.156  11.779  -4.257  0.00  0.00     0.003 A 
ATOM     14  C   UNL d   1      12.831  12.585  -5.391  0.00  0.00     0.000 A 
ATOM     15  C   UNL d   1      12.866  11.848  -5.031  0.00  0.00     0.000 A 
ENDROOT
BRANCH   4  16
ATOM     16  C   UNL d   1      14.387  13.396  -1.662  0.00  0.00     0.102 A 
ATOM     17  O   UNL d   1      15.156  13.236  -1.407  0.00  0.00    -0.286 OA
ATOM     18  C   UNL d   1      15.114  12.837  -0.694  0.00  0.00     0.227 A 
ATOM     19  C   UNL d   1      14.319  12.743  -0.495  0.00  0.00     0.051 A 
ATOM     20  C   UNL d   1      13.864  13.090  -1.095  0.00  0.00     0.029 A 
BRANCH  18  21
ATOM     21  N   UNL d   1      15.754  12.567  -0.240  0.00  0.00    -0.089 N 
ATOM     22  O   UNL d   1      15.803  11.779  -0.016  0.00  0.00    -0.530 OA
ATOM     23  O   UNL d   1      16.347  13.104  -0.014  0.00  0.00    -0.530 OA
ENDBRANCH  18  21
ENDBRANCH   4  16
BRANCH   3  24
ATOM     24  C   UNL d   1      14.575  15.032  -1.772  0.00  0.00     0.302 C 
ATOM     25  O   UNL d   1      14.326  14.858  -1.005  0.00  0.00    -0.259 OA
BRANCH  24  26
ATOM     26  O   UNL d   1      15.126  15.629  -1.902  0.00  0.00    -0.271 OA
BRANCH  26  27
ATOM     27  C   UNL d   1      15.337  16.134  -1.285  0.00  0.00     0.126 C 
ATOM     28  C   UNL d   1      15.413  16.941  -1.425  0.00  0.00     0.029 C 
ENDBRANCH  26  27
ENDBRANCH  24  26
ENDBRANCH   3  24
TORSDOF 5
ENDMDL
MODEL 4
REMARK VINA RESULT:      51.4      1.423      3.508
REMARK  5 active torsions:
REMARK  status: ('A' for Active; 'I' for Inactive)
REMARK    1  A    between atoms: C_14  and  C_3 
REMARK    2  A    between atoms: C_8  and  C_4 
REMARK    3  A    between atoms: N_10  and  C_9 
REMARK    4  A    between atoms: O_21  and  C_14 
REMARK    5  A    between atoms: C_25  and  O_21 
ROOT
ATOM      1  C   UNL d   1      14.448  14.326  -2.206  0.00  0.00     0.059 A 
ATOM      2  C   UNL d   1      14.881  14.734  -1.634  0.00  0.00     0.085 A 
ATOM      3  C   UNL d   1      14.625  13.114  -1.477  0.00  0.00     0.083 A 
ATOM      4  C   UNL d   1      14.323  13.518  -2.124  0.00  0.00     0.034 A 
ATOM      5  N   UNL d   1      15.187  14.341  -0.985  0.00  0.00    -0.245 NA
ATOM      6  C   UNL d   1      14.215  14.864  -2.786  0.00  0.00     0.197 A 
ATOM      7  C   UNL d   1      15.060  13.524  -0.902  0.00  0.00     0.087 A 
ATOM      8  C   UNL d   1      14.916  15.529  -1.861  0.00  0.00     0.021 A 
ATOM      9  C   UNL d   1      14.506  15.610  -2.570  0.00  0.00     0.041 A 
ATOM     10  O   UNL d   1      13.771  14.692  -3.462  0.00  0.00    -0.286 OA
ATOM     11  C   UNL d   1      15.365  13.122  -0.251  0.00  0.00     0.021 C 
ATOM     12  C   UNL d   1      15.271  16.197  -1.512  0.00  0.00     0.002 A 
ATOM     13  C   UNL d   1      14.445  16.351  -2.938  0.00  0.00     0.003 A 
ATOM     14  C   UNL d   1      15.209  16.929  -1.878  0.00  0.00     0.000 A 
ATOM     15  C   UNL d   1      14.801  17.012  -2.585  0.00  0.00     0.000 A 
ENDROOT
BRANCH   4  16
ATOM     16  C   UNL d   1      13.890  13.110  -2.696  0.00  0.00     0.102 A 
ATOM     17  O   UNL d   1      14.160  12.884  -3.443  0.00  0.00    -0.286 OA
ATOM     18  C   UNL d   1      13.554  12.494  -3.830  0.00  0.00     0.227 A 
ATOM     19  C   UNL d   1      12.899  12.471  -3.329  0.00  0.00     0.051 A 
ATOM     20  C   UNL d   1      13.105  12.854  -2.623  0.00  0.00     0.029 A 
BRANCH  18  21
ATOM     21  N   UNL d   1      13.581  12.171  -4.594  0.00  0.00    -0.089 N 
ATOM     22  O   UNL d   1      14.291  12.134  -5.005  0.00  0.00    -0.530 OA
ATOM     23  O   UNL d   1      12.881  11.886  -4.940  0.00  0.00    -0.530 OA
ENDBRANCH  18  21
ENDBRANCH   4  16
BRANCH   3  24
ATOM     24  C   UNL d   1      14.501  12.303  -1.393  0.00  0.00     0.302 C 
ATOM     25  O   UNL d   1      15.125  11.779  -1.520  0.00  0.00    -0.259 OA
BRANCH  24  26
ATOM     26  O   UNL d   1      13.758  12.018  -1.184  0.00  0.00    -0.271 OA
BRANCH  26  27
ATOM     27  C   UNL d   1      13.614  11.780  -0.408  0.00  0.00     0.126 C 
ATOM     28  C   UNL d   1      12.944  12.051  -0.014  0.00  0.00     0.029 C 
ENDBRANCH  26  27
ENDBRANCH  24  26
ENDBRANCH   3  24
TORSDOF 5
ENDMDL
