MODEL 1
REMARK VINA RESULT:      -4.2      0.000      0.000
REMARK  6 active torsions:
REMARK  status: ('A' for Active; 'I' for Inactive)
REMARK    1  A    between atoms: N_3  and  C_1 
REMARK    2  A    between atoms: C_16  and  N_2 
REMARK       I    between atoms: C_7  and  N_3 
REMARK    3  A    between atoms: C_14  and  C_7 
REMARK    4  A    between atoms: C_10  and  S_11 
REMARK    5  A    between atoms: S_11  and  C_14 
REMARK    6  A    between atoms: O_18  and  C_15 
ROOT
ATOM      1  C   UNL d   1     -41.170-122.955 -51.031  0.00  0.00     0.182 A 
ATOM      2  N   UNL d   1     -41.231-122.282 -51.508  0.00  0.00    -0.285 N 
ATOM      3  S   UNL d   1     -41.138-123.618 -51.530  0.00  0.00    -0.048 SA
ATOM      4  C   UNL d   1     -41.181-123.348 -52.315  0.00  0.00     0.050 A 
ATOM      5  C   UNL d   1     -41.238-122.524 -52.302  0.00  0.00     0.072 A 
ATOM      6  C   UNL d   1     -41.173-123.759 -53.036  0.00  0.00     0.032 A 
ATOM      7  C   UNL d   1     -41.288-122.109 -53.009  0.00  0.00     0.020 A 
ATOM      8  C   UNL d   1     -41.224-123.328 -53.734  0.00  0.00     0.095 A 
ATOM      9  C   UNL d   1     -41.281-122.504 -53.721  0.00  0.00     0.026 A 
ENDROOT
BRANCH   1  10
ATOM     10  N   UNL d   1     -41.144-122.967 -50.205  0.00  0.00    -0.183 NA
ATOM     11  C   UNL d   1     -41.769-123.465 -49.980  0.00  0.00     0.288 C 
ATOM     12  O   UNL d   1     -42.247-123.818 -50.559  0.00  0.00    -0.265 OA
BRANCH  11  13
ATOM     13  C   UNL d   1     -41.918-123.613 -49.187  0.00  0.00     0.101 C 
BRANCH  13  14
ATOM     14  S   UNL d   1     -42.496-123.179 -48.779  0.00  0.00    -0.040 SA
BRANCH  14  15
ATOM     15  C   UNL d   1     -42.657-123.345 -47.979  0.00  0.00     0.226 C 
ATOM     16  O   UNL d   1     -43.355-123.737 -47.781  0.00  0.00    -0.279 OA
ATOM     17  C   UNL d   1     -42.124-123.120 -47.401  0.00  0.00     0.053 C 
ENDBRANCH  14  15
ENDBRANCH  13  14
ENDBRANCH  11  13
ENDBRANCH   1  10
BRANCH   2  18
ATOM     18  C   UNL d   1     -41.277-121.510 -51.236  0.00  0.00     0.082 C 
ATOM     19  C   UNL d   1     -41.123-120.876 -51.740  0.00  0.00     0.021 C 
ENDBRANCH   2  18
BRANCH   8  20
ATOM     20  O   UNL d   1     -41.218-123.726 -54.463  0.00  0.00    -0.328 OA
ATOM     21  C   UNL d   1     -41.421-123.329 -55.149  0.00  0.00     0.181 C 
ENDBRANCH   8  20
TORSDOF 6
ENDMDL
MODEL 2
REMARK VINA RESULT:      -4.2      1.327      4.439
REMARK  6 active torsions:
REMARK  status: ('A' for Active; 'I' for Inactive)
REMARK    1  A    between atoms: N_3  and  C_1 
REMARK    2  A    between atoms: C_16  and  N_2 
REMARK       I    between atoms: C_7  and  N_3 
REMARK    3  A    between atoms: C_14  and  C_7 
REMARK    4  A    between atoms: C_10  and  S_11 
REMARK    5  A    between atoms: S_11  and  C_14 
REMARK    6  A    between atoms: O_18  and  C_15 
ROOT
ATOM      1  C   UNL d   1     -41.229-122.380 -52.225  0.00  0.00     0.182 A 
ATOM      2  N   UNL d   1     -41.458-121.835 -51.647  0.00  0.00    -0.285 N 
ATOM      3  S   UNL d   1     -41.123-123.115 -51.854  0.00  0.00    -0.048 SA
ATOM      4  C   UNL d   1     -41.287-123.018 -51.045  0.00  0.00     0.050 A 
ATOM      5  C   UNL d   1     -41.494-122.228 -50.917  0.00  0.00     0.072 A 
ATOM      6  C   UNL d   1     -41.272-123.557 -50.415  0.00  0.00     0.032 A 
ATOM      7  C   UNL d   1     -41.685-121.976 -50.160  0.00  0.00     0.020 A 
ATOM      8  C   UNL d   1     -41.467-123.288 -49.662  0.00  0.00     0.095 A 
ATOM      9  C   UNL d   1     -41.673-122.498 -49.535  0.00  0.00     0.026 A 
ENDROOT
BRANCH   1  10
ATOM     10  N   UNL d   1     -41.125-122.223 -53.031  0.00  0.00    -0.183 NA
ATOM     11  C   UNL d   1     -41.463-122.873 -53.420  0.00  0.00     0.288 C 
ATOM     12  O   UNL d   1     -41.804-123.489 -52.979  0.00  0.00    -0.265 OA
BRANCH  11  13
ATOM     13  C   UNL d   1     -41.464-122.913 -54.239  0.00  0.00     0.101 C 
BRANCH  13  14
ATOM     14  S   UNL d   1     -42.164-122.787 -54.667  0.00  0.00    -0.040 SA
BRANCH  14  15
ATOM     15  C   UNL d   1     -42.177-122.240 -55.295  0.00  0.00     0.226 C 
ATOM     16  O   UNL d   1     -41.469-122.036 -55.666  0.00  0.00    -0.279 OA
ATOM     17  C   UNL d   1     -42.886-121.914 -55.536  0.00  0.00     0.053 C 
ENDBRANCH  14  15
ENDBRANCH  13  14
ENDBRANCH  11  13
ENDBRANCH   1  10
BRANCH   2  18
ATOM     18  C   UNL d   1     -41.619-121.043 -51.780  0.00  0.00     0.082 C 
ATOM     19  C   UNL d   1     -41.123-120.455 -51.481  0.00  0.00     0.021 C 
ENDBRANCH   2  18
BRANCH   8  20
ATOM     20  O   UNL d   1     -41.455-123.817 -49.023  0.00  0.00    -0.328 OA
ATOM     21  C   UNL d   1     -41.434-123.532 -48.256  0.00  0.00     0.181 C 
ENDBRANCH   8  20
TORSDOF 6
ENDMDL
MODEL 3
REMARK VINA RESULT:      -4.1      1.385      4.604
REMARK  6 active torsions:
REMARK  status: ('A' for Active; 'I' for Inactive)
REMARK    1  A    between atoms: N_3  and  C_1 
REMARK    2  A    between atoms: C_16  and  N_2 
REMARK       I    between atoms: C_7  and  N_3 
REMARK    3  A    between atoms: C_14  and  C_7 
REMARK    4  A    between atoms: C_10  and  S_11 
REMARK    5  A    between atoms: S_11  and  C_14 
REMARK    6  A    between atoms: O_18  and  C_15 
ROOT
ATOM      1  C   UNL d   1     -42.113-122.376 -50.657  0.00  0.00     0.182 A 
ATOM      2  N   UNL d   1     -42.779-122.539 -50.196  0.00  0.00    -0.285 N 
ATOM      3  S   UNL d   1     -41.442-122.611 -50.228  0.00  0.00    -0.048 SA
ATOM      4  C   UNL d   1     -41.700-122.920 -49.501  0.00  0.00     0.050 A 
ATOM      5  C   UNL d   1     -42.524-122.876 -49.481  0.00  0.00     0.072 A 
ATOM      6  C   UNL d   1     -41.278-123.234 -48.860  0.00  0.00     0.032 A 
ATOM      7  C   UNL d   1     -42.929-123.146 -48.819  0.00  0.00     0.020 A 
ATOM      8  C   UNL d   1     -41.699-123.500 -48.205  0.00  0.00     0.095 A 
ATOM      9  C   UNL d   1     -42.524-123.456 -48.185  0.00  0.00     0.026 A 
ENDROOT
BRANCH   1  10
ATOM     10  N   UNL d   1     -42.113-122.038 -51.412  0.00  0.00    -0.183 NA
ATOM     11  C   UNL d   1     -41.540-122.463 -51.836  0.00  0.00     0.288 C 
ATOM     12  O   UNL d   1     -41.123-123.077 -51.466  0.00  0.00    -0.265 OA
BRANCH  11  13
ATOM     13  C   UNL d   1     -41.383-122.281 -52.621  0.00  0.00     0.101 C 
BRANCH  13  14
ATOM     14  S   UNL d   1     -41.330-122.883 -53.190  0.00  0.00    -0.040 SA
BRANCH  14  15
ATOM     15  C   UNL d   1     -41.444-122.707 -53.996  0.00  0.00     0.226 C 
ATOM     16  O   UNL d   1     -41.762-121.975 -54.207  0.00  0.00    -0.279 OA
ATOM     17  C   UNL d   1     -41.242-123.257 -54.565  0.00  0.00     0.053 C 
ENDBRANCH  14  15
ENDBRANCH  13  14
ENDBRANCH  11  13
ENDBRANCH   1  10
BRANCH   2  18
ATOM     18  C   UNL d   1     -43.555-122.392 -50.413  0.00  0.00     0.082 C 
ATOM     19  C   UNL d   1     -43.920-121.678 -50.217  0.00  0.00     0.021 C 
ENDBRANCH   2  18
BRANCH   8  20
ATOM     20  O   UNL d   1     -41.290-123.817 -47.556  0.00  0.00    -0.328 OA
ATOM     21  C   UNL d   1     -41.169-123.363 -46.886  0.00  0.00     0.181 C 
ENDBRANCH   8  20
TORSDOF 6
ENDMDL
