MODEL 1
REMARK VINA RESULT:     119.6      0.000      0.000
REMARK  7 active torsions:
REMARK  status: ('A' for Active; 'I' for Inactive)
REMARK    1  A    between atoms: C_7  and  C_1 
REMARK    2  A    between atoms: N_5  and  C_2 
REMARK       I    between atoms: C_8  and  N_5 
REMARK    3  A    between atoms: N_9  and  C_7 
REMARK    4  A    between atoms: C_11  and  C_7 
REMARK    5  A    between atoms: C_15  and  C_8 
REMARK    6  A    between atoms: O_25  and  C_20 
REMARK    7  A    between atoms: C_29  and  O_25 
ROOT
ATOM      1  C   UNL d   1     -56.015-100.501 -43.759  0.00  0.00     0.066 C 
ENDROOT
BRANCH   1   2
ATOM      2  C   UNL d   1     -55.539-100.285 -43.126  0.00  0.00     0.041 A 
ATOM      3  C   UNL d   1     -55.073-100.736 -42.618  0.00  0.00     0.115 A 
ATOM      4  S   UNL d   1     -54.715-100.218 -42.083  0.00  0.00    -0.068 SA
ATOM      5  C   UNL d   1     -54.966 -99.458 -42.271  0.00  0.00     0.031 A 
ATOM      6  C   UNL d   1     -55.476 -99.495 -42.916  0.00  0.00     0.009 A 
ATOM      7  C   UNL d   1     -54.711 -98.764 -41.836  0.00  0.00     0.007 C 
ATOM      8  C   UNL d   1     -55.873 -98.858 -43.307  0.00  0.00     0.001 C 
BRANCH   3   9
ATOM      9  N   UNL d   1     -54.965-101.554 -42.618  0.00  0.00    -0.201 NA
ATOM     10  C   UNL d   1     -54.869-101.969 -41.911  0.00  0.00     0.280 C 
ATOM     11  O   UNL d   1     -54.759-102.801 -41.927  0.00  0.00    -0.265 OA
BRANCH  10  12
ATOM     12  C   UNL d   1     -54.883-101.563 -41.202  0.00  0.00     0.058 A 
ATOM     13  C   UNL d   1     -54.802-101.969 -40.500  0.00  0.00     0.005 A 
ATOM     14  C   UNL d   1     -54.815-101.567 -39.794  0.00  0.00     0.000 A 
ATOM     15  C   UNL d   1     -54.909-100.762 -39.782  0.00  0.00     0.000 A 
ATOM     16  C   UNL d   1     -54.991-100.344 -40.487  0.00  0.00     0.000 A 
ATOM     17  C   UNL d   1     -54.979-100.744 -41.202  0.00  0.00     0.005 A 
ENDBRANCH  10  12
ENDBRANCH   3   9
ENDBRANCH   1   2
BRANCH   1  18
ATOM     18  N   UNL d   1     -55.740-101.044 -44.322  0.00  0.00    -0.301 N 
ATOM     19  C   UNL d   1     -54.965-100.968 -44.650  0.00  0.00     0.100 A 
ATOM     20  C   UNL d   1     -54.713-101.534 -45.220  0.00  0.00     0.100 A 
ATOM     21  N   UNL d   1     -55.193-102.157 -45.468  0.00  0.00    -0.299 N 
ATOM     22  C   UNL d   1     -55.968-102.234 -45.139  0.00  0.00     0.100 A 
ATOM     23  C   UNL d   1     -54.918-102.704 -46.034  0.00  0.00     0.100 C 
ATOM     24  C   UNL d   1     -56.226-101.683 -44.579  0.00  0.00     0.100 A 
ENDBRANCH   1  18
BRANCH   1  25
ATOM     25  C   UNL d   1     -56.775-100.184 -43.847  0.00  0.00     0.016 A 
ATOM     26  C   UNL d   1     -57.119-100.162 -44.588  0.00  0.00     0.004 A 
ATOM     27  C   UNL d   1     -57.867 -99.853 -44.698  0.00  0.00     0.025 A 
ATOM     28  C   UNL d   1     -58.300 -99.552 -44.054  0.00  0.00     0.100 A 
ATOM     29  C   UNL d   1     -57.957 -99.567 -43.274  0.00  0.00     0.025 A 
ATOM     30  C   UNL d   1     -57.183 -99.889 -43.177  0.00  0.00     0.004 A 
BRANCH  28  31
ATOM     31  O   UNL d   1     -59.053 -99.241 -44.164  0.00  0.00    -0.305 OA
BRANCH  31  32
ATOM     32  C   UNL d   1     -59.246 -98.842 -44.869  0.00  0.00     0.123 C 
ATOM     33  C   UNL d   1     -58.780 -98.933 -45.545  0.00  0.00     0.029 C 
ENDBRANCH  31  32
ENDBRANCH  28  31
ENDBRANCH   1  25
TORSDOF 7
ENDMDL
