MODEL 1
REMARK VINA RESULT:      -5.3      0.000      0.000
REMARK  3 active torsions:
REMARK  status: ('A' for Active; 'I' for Inactive)
REMARK    1  A    between atoms: C_3  and  C_1 
REMARK    2  A    between atoms: C_8  and  C_3 
REMARK    3  A    between atoms: C_10  and  C_4 
ROOT
ATOM      1  C   UNL d   1      58.331  -0.242  29.705  0.00  0.00     0.092 C 
ATOM      2  C   UNL d   1      58.044   0.209  29.078  0.00  0.00     0.103 C 
ATOM      3  N   UNL d   1      57.738   0.682  28.455  0.00  0.00    -0.191 NA
ENDROOT
BRANCH   1   4
ATOM      4  C   UNL d   1      58.067  -0.075  30.483  0.00  0.00     0.120 A 
ATOM      5  N   UNL d   1      57.359  -0.351  30.845  0.00  0.00    -0.238 NA
ATOM      6  C   UNL d   1      57.327  -0.047  31.616  0.00  0.00     0.088 A 
ATOM      7  C   UNL d   1      58.007   0.409  31.720  0.00  0.00     0.056 A 
ATOM      8  S   UNL d   1      58.436   0.376  31.024  0.00  0.00    -0.065 SA
BRANCH   6   9
ATOM      9  C   UNL d   1      56.702  -0.194  32.167  0.00  0.00     0.018 A 
ATOM     10  C   UNL d   1      56.577  -0.970  32.434  0.00  0.00     0.002 A 
ATOM     11  C   UNL d   1      55.971  -1.121  32.971  0.00  0.00     0.000 A 
ATOM     12  C   UNL d   1      55.470  -0.492  33.256  0.00  0.00     0.000 A 
ATOM     13  C   UNL d   1      55.604   0.276  32.984  0.00  0.00     0.000 A 
ATOM     14  C   UNL d   1      56.229   0.422  32.432  0.00  0.00     0.002 A 
ENDBRANCH   6   9
ENDBRANCH   1   4
BRANCH   1  15
ATOM     15  C   UNL d   1      58.867  -0.842  29.547  0.00  0.00     0.012 A 
ATOM     16  C   UNL d   1      59.700  -0.892  29.543  0.00  0.00     0.001 A 
ATOM     17  C   UNL d   1      59.913  -1.653  29.337  0.00  0.00     0.000 A 
ATOM     18  C   UNL d   1      59.229  -2.075  29.214  0.00  0.00     0.000 A 
ATOM     19  C   UNL d   1      58.585  -1.584  29.341  0.00  0.00     0.001 A 
ENDBRANCH   1  15
TORSDOF 3
ENDMDL
MODEL 2
REMARK VINA RESULT:      -4.4      1.045      4.125
REMARK  3 active torsions:
REMARK  status: ('A' for Active; 'I' for Inactive)
REMARK    1  A    between atoms: C_3  and  C_1 
REMARK    2  A    between atoms: C_8  and  C_3 
REMARK    3  A    between atoms: C_10  and  C_4 
ROOT
ATOM      1  C   UNL d   1      57.138   0.047  32.599  0.00  0.00     0.092 C 
ATOM      2  C   UNL d   1      57.613   0.357  33.197  0.00  0.00     0.103 C 
ATOM      3  N   UNL d   1      58.112   0.682  33.789  0.00  0.00    -0.191 NA
ENDROOT
BRANCH   1   4
ATOM      4  C   UNL d   1      57.364   0.156  31.800  0.00  0.00     0.120 A 
ATOM      5  N   UNL d   1      57.958  -0.269  31.381  0.00  0.00    -0.238 NA
ATOM      6  C   UNL d   1      57.990   0.026  30.607  0.00  0.00     0.088 A 
ATOM      7  C   UNL d   1      57.422   0.623  30.557  0.00  0.00     0.056 A 
ATOM      8  S   UNL d   1      57.059   0.682  31.287  0.00  0.00    -0.065 SA
BRANCH   6   9
ATOM      9  C   UNL d   1      58.516  -0.253  30.006  0.00  0.00     0.018 A 
ATOM     10  C   UNL d   1      58.371  -0.993  29.659  0.00  0.00     0.002 A 
ATOM     11  C   UNL d   1      58.878  -1.272  29.073  0.00  0.00     0.000 A 
ATOM     12  C   UNL d   1      59.550  -0.811  28.817  0.00  0.00     0.000 A 
ATOM     13  C   UNL d   1      59.683  -0.076  29.170  0.00  0.00     0.000 A 
ATOM     14  C   UNL d   1      59.157   0.203  29.772  0.00  0.00     0.002 A 
ENDBRANCH   6   9
ENDBRANCH   1   4
BRANCH   1  15
ATOM     15  C   UNL d   1      56.457  -0.360  32.808  0.00  0.00     0.012 A 
ATOM     16  C   UNL d   1      56.176  -1.133  32.672  0.00  0.00     0.001 A 
ATOM     17  C   UNL d   1      55.444  -1.211  33.027  0.00  0.00     0.000 A 
ATOM     18  C   UNL d   1      55.267  -0.500  33.379  0.00  0.00     0.000 A 
ATOM     19  C   UNL d   1      55.882   0.026  33.249  0.00  0.00     0.001 A 
ENDBRANCH   1  15
TORSDOF 3
ENDMDL
MODEL 3
REMARK VINA RESULT:      -4.2      1.106      1.446
REMARK  3 active torsions:
REMARK  status: ('A' for Active; 'I' for Inactive)
REMARK    1  A    between atoms: C_3  and  C_1 
REMARK    2  A    between atoms: C_8  and  C_3 
REMARK    3  A    between atoms: C_10  and  C_4 
ROOT
ATOM      1  C   UNL d   1      58.984  -0.351  29.547  0.00  0.00     0.092 C 
ATOM      2  C   UNL d   1      58.833  -0.977  29.033  0.00  0.00     0.103 C 
ATOM      3  N   UNL d   1      58.656  -1.615  28.517  0.00  0.00    -0.191 NA
ENDROOT
BRANCH   1   4
ATOM      4  C   UNL d   1      58.368  -0.072  30.043  0.00  0.00     0.120 A 
ATOM      5  N   UNL d   1      58.084  -0.436  30.747  0.00  0.00    -0.238 NA
ATOM      6  C   UNL d   1      57.473   0.034  31.052  0.00  0.00     0.088 A 
ATOM      7  C   UNL d   1      57.388   0.676  30.540  0.00  0.00     0.056 A 
ATOM      8  S   UNL d   1      57.938   0.589  29.941  0.00  0.00    -0.065 SA
BRANCH   6   9
ATOM      9  C   UNL d   1      57.038  -0.138  31.758  0.00  0.00     0.018 A 
ATOM     10  C   UNL d   1      56.656  -0.872  31.823  0.00  0.00     0.002 A 
ATOM     11  C   UNL d   1      56.231  -1.047  32.507  0.00  0.00     0.000 A 
ATOM     12  C   UNL d   1      56.177  -0.486  33.147  0.00  0.00     0.000 A 
ATOM     13  C   UNL d   1      56.562   0.242  33.070  0.00  0.00     0.000 A 
ATOM     14  C   UNL d   1      56.997   0.413  32.364  0.00  0.00     0.002 A 
ENDBRANCH   6   9
ENDBRANCH   1   4
BRANCH   1  15
ATOM     15  C   UNL d   1      59.734  -0.020  29.557  0.00  0.00     0.012 A 
ATOM     16  C   UNL d   1      60.087   0.632  29.176  0.00  0.00     0.001 A 
ATOM     17  C   UNL d   1      60.867   0.682  29.415  0.00  0.00     0.000 A 
ATOM     18  C   UNL d   1      61.003   0.073  29.936  0.00  0.00     0.000 A 
ATOM     19  C   UNL d   1      60.313  -0.361  30.028  0.00  0.00     0.001 A 
ENDBRANCH   1  15
TORSDOF 3
ENDMDL
MODEL 4
REMARK VINA RESULT:      -3.1      1.204      1.806
REMARK  3 active torsions:
REMARK  status: ('A' for Active; 'I' for Inactive)
REMARK    1  A    between atoms: C_3  and  C_1 
REMARK    2  A    between atoms: C_8  and  C_3 
REMARK    3  A    between atoms: C_10  and  C_4 
ROOT
ATOM      1  C   UNL d   1      59.045  -1.770  29.160  0.00  0.00     0.092 C 
ATOM      2  C   UNL d   1      58.653  -2.446  28.897  0.00  0.00     0.103 C 
ATOM      3  N   UNL d   1      58.232  -3.124  28.638  0.00  0.00    -0.191 NA
ENDROOT
BRANCH   1   4
ATOM      4  C   UNL d   1      58.609  -1.168  29.545  0.00  0.00     0.120 A 
ATOM      5  N   UNL d   1      58.202  -1.232  30.280  0.00  0.00    -0.238 NA
ATOM      6  C   UNL d   1      57.848  -0.499  30.444  0.00  0.00     0.088 A 
ATOM      7  C   UNL d   1      58.039   0.002  29.817  0.00  0.00     0.056 A 
ATOM      8  S   UNL d   1      58.497  -0.424  29.289  0.00  0.00    -0.065 SA
BRANCH   6   9
ATOM      9  C   UNL d   1      57.386  -0.330  31.132  0.00  0.00     0.018 A 
ATOM     10  C   UNL d   1      56.953  -0.944  31.485  0.00  0.00     0.002 A 
ATOM     11  C   UNL d   1      56.501  -0.787  32.155  0.00  0.00     0.000 A 
ATOM     12  C   UNL d   1      56.471  -0.004  32.492  0.00  0.00     0.000 A 
ATOM     13  C   UNL d   1      56.906   0.599  32.132  0.00  0.00     0.000 A 
ATOM     14  C   UNL d   1      57.369   0.429  31.443  0.00  0.00     0.002 A 
ENDBRANCH   6   9
ENDBRANCH   1   4
BRANCH   1  15
ATOM     15  C   UNL d   1      59.854  -1.710  29.036  0.00  0.00     0.012 A 
ATOM     16  C   UNL d   1      60.327  -1.343  28.455  0.00  0.00     0.001 A 
ATOM     17  C   UNL d   1      61.112  -1.481  28.635  0.00  0.00     0.000 A 
ATOM     18  C   UNL d   1      61.133  -1.925  29.316  0.00  0.00     0.000 A 
ATOM     19  C   UNL d   1      60.366  -2.069  29.567  0.00  0.00     0.001 A 
ENDBRANCH   1  15
TORSDOF 3
ENDMDL
