MODEL 1
REMARK VINA RESULT:      69.1      0.000      0.000
REMARK  4 active torsions:
REMARK  status: ('A' for Active; 'I' for Inactive)
REMARK    1  A    between atoms: C_3  and  C_1 
REMARK    2  A    between atoms: N_5  and  C_3 
REMARK    3  A    between atoms: C_10  and  C_3 
REMARK    4  A    between atoms: C_7  and  N_5 
ROOT
ATOM      1  C   UNL d   1      60.337  49.203  51.038  0.00  0.00     0.086 C 
ENDROOT
BRANCH   1   2
ATOM      2  C   UNL d   1      59.512  49.293  50.902  0.00  0.00     0.058 A 
ATOM      3  C   UNL d   1      59.263  49.411  50.117  0.00  0.00     0.214 A 
ATOM      4  C   UNL d   1      58.452  49.498  49.994  0.00  0.00     0.120 A 
ATOM      5  O   UNL d   1      59.803  49.439  49.493  0.00  0.00    -0.285 OA
ATOM      6  N   UNL d   1      58.189  49.619  49.196  0.00  0.00    -0.241 NA
ATOM      7  C   UNL d   1      57.912  49.471  50.617  0.00  0.00     0.021 A 
ATOM      8  C   UNL d   1      57.378  49.707  49.073  0.00  0.00     0.099 A 
ATOM      9  C   UNL d   1      56.838  49.679  49.696  0.00  0.00     0.021 A 
ATOM     10  C   UNL d   1      57.109  49.563  50.442  0.00  0.00     0.003 A 
ATOM     11  C   UNL d   1      58.183  49.355  51.363  0.00  0.00     0.002 A 
ATOM     12  C   UNL d   1      58.972  49.265  51.526  0.00  0.00     0.005 A 
ENDBRANCH   1   2
BRANCH   1  13
ATOM     13  N   UNL d   1      60.835  48.944  50.425  0.00  0.00    -0.227 NA
BRANCH  13  14
ATOM     14  C   UNL d   1      61.061  48.172  50.361  0.00  0.00     0.162 A 
ATOM     15  N   UNL d   1      61.770  47.925  50.701  0.00  0.00    -0.225 NA
ATOM     16  C   UNL d   1      62.018  47.137  50.645  0.00  0.00     0.101 A 
ATOM     17  C   UNL d   1      61.535  46.611  50.241  0.00  0.00     0.021 A 
ATOM     18  C   UNL d   1      60.825  46.858  49.900  0.00  0.00     0.005 A 
ATOM     19  C   UNL d   1      60.599  47.631  49.964  0.00  0.00     0.039 A 
ENDBRANCH  13  14
ENDBRANCH   1  13
BRANCH   1  20
ATOM     20  C   UNL d   1      60.664  49.365  51.762  0.00  0.00     0.018 A 
ATOM     21  C   UNL d   1      61.454  49.531  51.821  0.00  0.00     0.002 A 
ATOM     22  C   UNL d   1      61.786  49.696  52.558  0.00  0.00     0.000 A 
ATOM     23  C   UNL d   1      61.328  49.696  53.235  0.00  0.00     0.000 A 
ATOM     24  C   UNL d   1      60.524  49.526  53.165  0.00  0.00     0.000 A 
ATOM     25  C   UNL d   1      60.191  49.361  52.428  0.00  0.00     0.002 A 
ENDBRANCH   1  20
TORSDOF 4
ENDMDL
