MODEL 1
REMARK VINA RESULT:      -7.1      0.000      0.000
REMARK  7 active torsions:
REMARK  status: ('A' for Active; 'I' for Inactive)
REMARK    1  A    between atoms: C_6  and  C_2 
REMARK    2  A    between atoms: S_7  and  C_4 
REMARK    3  A    between atoms: C_12  and  S_7 
REMARK    4  A    between atoms: C_8  and  C_12 
REMARK    5  A    between atoms: O_16  and  C_8 
REMARK    6  A    between atoms: O_17  and  C_13 
REMARK    7  A    between atoms: C_18  and  O_16 
ROOT
ATOM      1  N   UNL d   1      51.751  33.113  52.797  0.00  0.00    -0.212 NA
ATOM      2  C   UNL d   1      52.494  32.946  53.097  0.00  0.00     0.171 A 
ATOM      3  N   UNL d   1      52.880  33.662  53.251  0.00  0.00    -0.188 NA
ATOM      4  C   UNL d   1      51.661  33.933  52.759  0.00  0.00     0.160 A 
ATOM      5  S   UNL d   1      52.364  34.273  53.042  0.00  0.00     0.041 SA
ENDROOT
BRANCH   2   6
ATOM      6  C   UNL d   1      52.815  32.194  53.228  0.00  0.00     0.037 A 
ATOM      7  C   UNL d   1      53.462  32.087  53.743  0.00  0.00     0.005 A 
ATOM      8  C   UNL d   1      53.775  31.344  53.869  0.00  0.00     0.024 A 
ATOM      9  C   UNL d   1      53.448  30.695  53.485  0.00  0.00     0.094 A 
ATOM     10  C   UNL d   1      52.803  30.794  52.971  0.00  0.00     0.024 A 
ATOM     11  C   UNL d   1      52.496  31.544  52.852  0.00  0.00     0.005 A 
BRANCH   9  12
ATOM     12  O   UNL d   1      53.756  29.941  53.606  0.00  0.00    -0.328 OA
ATOM     13  C   UNL d   1      53.350  29.403  54.072  0.00  0.00     0.181 C 
ENDBRANCH   9  12
ENDBRANCH   2   6
BRANCH   4  14
ATOM     14  S   UNL d   1      50.998  34.348  52.490  0.00  0.00    -0.054 SA
BRANCH  14  15
ATOM     15  C   UNL d   1      50.325  34.392  52.954  0.00  0.00     0.106 C 
BRANCH  15  16
ATOM     16  C   UNL d   1      49.655  34.795  52.688  0.00  0.00     0.307 C 
ATOM     17  O   UNL d   1      49.347  34.625  51.937  0.00  0.00    -0.258 OA
BRANCH  16  18
ATOM     18  O   UNL d   1      49.291  35.364  53.164  0.00  0.00    -0.271 OA
BRANCH  18  19
ATOM     19  C   UNL d   1      48.505  35.594  53.017  0.00  0.00     0.126 C 
ATOM     20  C   UNL d   1      48.130  36.129  53.520  0.00  0.00     0.029 C 
ENDBRANCH  18  19
ENDBRANCH  16  18
ENDBRANCH  15  16
ENDBRANCH  14  15
ENDBRANCH   4  14
TORSDOF 7
ENDMDL
MODEL 2
REMARK VINA RESULT:      -6.7      1.219      5.062
REMARK  7 active torsions:
REMARK  status: ('A' for Active; 'I' for Inactive)
REMARK    1  A    between atoms: C_6  and  C_2 
REMARK    2  A    between atoms: S_7  and  C_4 
REMARK    3  A    between atoms: C_12  and  S_7 
REMARK    4  A    between atoms: C_8  and  C_12 
REMARK    5  A    between atoms: O_16  and  C_8 
REMARK    6  A    between atoms: O_17  and  C_13 
REMARK    7  A    between atoms: C_18  and  O_16 
ROOT
ATOM      1  N   UNL d   1      52.397  32.540  52.999  0.00  0.00    -0.212 NA
ATOM      2  C   UNL d   1      52.229  33.339  53.057  0.00  0.00     0.171 A 
ATOM      3  N   UNL d   1      52.875  33.715  53.412  0.00  0.00    -0.188 NA
ATOM      4  C   UNL d   1      53.147  32.405  53.316  0.00  0.00     0.160 A 
ATOM      5  S   UNL d   1      53.443  33.138  53.572  0.00  0.00     0.041 SA
ENDROOT
BRANCH   2   6
ATOM      6  C   UNL d   1      51.536  33.716  52.807  0.00  0.00     0.037 A 
ATOM      7  C   UNL d   1      51.490  34.079  52.058  0.00  0.00     0.005 A 
ATOM      8  C   UNL d   1      50.805  34.449  51.816  0.00  0.00     0.024 A 
ATOM      9  C   UNL d   1      50.153  34.466  52.316  0.00  0.00     0.094 A 
ATOM     10  C   UNL d   1      50.191  34.107  53.064  0.00  0.00     0.024 A 
ATOM     11  C   UNL d   1      50.884  33.737  53.297  0.00  0.00     0.005 A 
BRANCH   9  12
ATOM     12  O   UNL d   1      49.457  34.837  52.081  0.00  0.00    -0.328 OA
ATOM     13  C   UNL d   1      49.031  34.542  51.445  0.00  0.00     0.181 C 
ENDBRANCH   9  12
ENDBRANCH   2   6
BRANCH   4  14
ATOM     14  S   UNL d   1      53.540  31.679  53.372  0.00  0.00    -0.054 SA
BRANCH  14  15
ATOM     15  C   UNL d   1      53.119  30.996  53.533  0.00  0.00     0.106 C 
BRANCH  15  16
ATOM     16  C   UNL d   1      53.508  30.275  53.637  0.00  0.00     0.307 C 
ATOM     17  O   UNL d   1      53.980  29.973  53.025  0.00  0.00    -0.258 OA
BRANCH  16  18
ATOM     18  O   UNL d   1      53.430  29.854  54.344  0.00  0.00    -0.271 OA
BRANCH  18  19
ATOM     19  C   UNL d   1      53.319  29.030  54.332  0.00  0.00     0.126 C 
ATOM     20  C   UNL d   1      53.350  28.598  55.033  0.00  0.00     0.029 C 
ENDBRANCH  18  19
ENDBRANCH  16  18
ENDBRANCH  15  16
ENDBRANCH  14  15
ENDBRANCH   4  14
TORSDOF 7
ENDMDL
MODEL 3
REMARK VINA RESULT:      -6.6      2.549      5.160
REMARK  7 active torsions:
REMARK  status: ('A' for Active; 'I' for Inactive)
REMARK    1  A    between atoms: C_6  and  C_2 
REMARK    2  A    between atoms: S_7  and  C_4 
REMARK    3  A    between atoms: C_12  and  S_7 
REMARK    4  A    between atoms: C_8  and  C_12 
REMARK    5  A    between atoms: O_16  and  C_8 
REMARK    6  A    between atoms: O_17  and  C_13 
REMARK    7  A    between atoms: C_18  and  O_16 
ROOT
ATOM      1  N   UNL d   1      52.945  32.436  53.615  0.00  0.00    -0.212 NA
ATOM      2  C   UNL d   1      53.460  33.072  53.660  0.00  0.00     0.171 A 
ATOM      3  N   UNL d   1      54.208  32.819  53.411  0.00  0.00    -0.188 NA
ATOM      4  C   UNL d   1      53.362  31.779  53.338  0.00  0.00     0.160 A 
ATOM      5  S   UNL d   1      54.147  32.019  53.213  0.00  0.00     0.041 SA
ENDROOT
BRANCH   2   6
ATOM      6  C   UNL d   1      53.274  33.839  53.909  0.00  0.00     0.037 A 
ATOM      7  C   UNL d   1      52.867  34.367  53.409  0.00  0.00     0.005 A 
ATOM      8  C   UNL d   1      52.686  35.122  53.660  0.00  0.00     0.024 A 
ATOM      9  C   UNL d   1      52.909  35.365  54.413  0.00  0.00     0.094 A 
ATOM     10  C   UNL d   1      53.315  34.844  54.917  0.00  0.00     0.024 A 
ATOM     11  C   UNL d   1      53.491  34.088  54.656  0.00  0.00     0.005 A 
BRANCH   9  12
ATOM     12  O   UNL d   1      52.731  36.125  54.675  0.00  0.00    -0.328 OA
ATOM     13  C   UNL d   1      53.336  36.656  54.829  0.00  0.00     0.181 C 
ENDBRANCH   9  12
ENDBRANCH   2   6
BRANCH   4  14
ATOM     14  S   UNL d   1      53.062  31.019  53.208  0.00  0.00    -0.054 SA
BRANCH  14  15
ATOM     15  C   UNL d   1      53.395  30.376  53.589  0.00  0.00     0.106 C 
BRANCH  15  16
ATOM     16  C   UNL d   1      52.971  29.672  53.675  0.00  0.00     0.307 C 
ATOM     17  O   UNL d   1      52.597  29.336  53.016  0.00  0.00    -0.258 OA
BRANCH  16  18
ATOM     18  O   UNL d   1      52.919  29.301  54.412  0.00  0.00    -0.271 OA
BRANCH  18  19
ATOM     19  C   UNL d   1      53.427  28.671  54.603  0.00  0.00     0.126 C 
ATOM     20  C   UNL d   1      53.473  28.397  55.379  0.00  0.00     0.029 C 
ENDBRANCH  18  19
ENDBRANCH  16  18
ENDBRANCH  15  16
ENDBRANCH  14  15
ENDBRANCH   4  14
TORSDOF 7
ENDMDL
MODEL 4
REMARK VINA RESULT:      -6.5      1.658      2.085
REMARK  7 active torsions:
REMARK  status: ('A' for Active; 'I' for Inactive)
REMARK    1  A    between atoms: C_6  and  C_2 
REMARK    2  A    between atoms: S_7  and  C_4 
REMARK    3  A    between atoms: C_12  and  S_7 
REMARK    4  A    between atoms: C_8  and  C_12 
REMARK    5  A    between atoms: O_16  and  C_8 
REMARK    6  A    between atoms: O_17  and  C_13 
REMARK    7  A    between atoms: C_18  and  O_16 
ROOT
ATOM      1  N   UNL d   1      51.766  34.115  53.249  0.00  0.00    -0.212 NA
ATOM      2  C   UNL d   1      52.156  33.435  53.484  0.00  0.00     0.171 A 
ATOM      3  N   UNL d   1      51.674  32.785  53.310  0.00  0.00    -0.188 NA
ATOM      4  C   UNL d   1      51.037  33.901  52.925  0.00  0.00     0.160 A 
ATOM      5  S   UNL d   1      50.982  33.074  52.964  0.00  0.00     0.041 SA
ENDROOT
BRANCH   2   6
ATOM      6  C   UNL d   1      52.904  33.393  53.837  0.00  0.00     0.037 A 
ATOM      7  C   UNL d   1      53.529  32.979  53.472  0.00  0.00     0.005 A 
ATOM      8  C   UNL d   1      54.264  32.940  53.823  0.00  0.00     0.024 A 
ATOM      9  C   UNL d   1      54.390  33.314  54.544  0.00  0.00     0.094 A 
ATOM     10  C   UNL d   1      53.773  33.729  54.914  0.00  0.00     0.024 A 
ATOM     11  C   UNL d   1      53.038  33.761  54.552  0.00  0.00     0.005 A 
BRANCH   9  12
ATOM     12  O   UNL d   1      55.129  33.280  54.906  0.00  0.00    -0.328 OA
ATOM     13  C   UNL d   1      55.494  33.971  55.153  0.00  0.00     0.181 C 
ENDBRANCH   9  12
ENDBRANCH   2   6
BRANCH   4  14
ATOM     14  S   UNL d   1      50.462  34.410  52.616  0.00  0.00    -0.054 SA
BRANCH  14  15
ATOM     15  C   UNL d   1      49.789  34.579  53.050  0.00  0.00     0.106 C 
BRANCH  15  16
ATOM     16  C   UNL d   1      49.227  35.113  52.764  0.00  0.00     0.307 C 
ATOM     17  O   UNL d   1      48.945  35.035  51.988  0.00  0.00    -0.258 OA
BRANCH  16  18
ATOM     18  O   UNL d   1      48.945  35.724  53.245  0.00  0.00    -0.271 OA
BRANCH  18  19
ATOM     19  C   UNL d   1      48.156  35.979  53.181  0.00  0.00     0.126 C 
ATOM     20  C   UNL d   1      47.869  36.566  53.684  0.00  0.00     0.029 C 
ENDBRANCH  18  19
ENDBRANCH  16  18
ENDBRANCH  15  16
ENDBRANCH  14  15
ENDBRANCH   4  14
TORSDOF 7
ENDMDL
MODEL 5
REMARK VINA RESULT:      -5.1      9.877     10.350
REMARK  7 active torsions:
REMARK  status: ('A' for Active; 'I' for Inactive)
REMARK    1  A    between atoms: C_6  and  C_2 
REMARK    2  A    between atoms: S_7  and  C_4 
REMARK    3  A    between atoms: C_12  and  S_7 
REMARK    4  A    between atoms: C_8  and  C_12 
REMARK    5  A    between atoms: O_16  and  C_8 
REMARK    6  A    between atoms: O_17  and  C_13 
REMARK    7  A    between atoms: C_18  and  O_16 
ROOT
ATOM      1  N   UNL d   1      44.700  29.442  59.171  0.00  0.00    -0.212 NA
ATOM      2  C   UNL d   1      45.003  29.372  58.414  0.00  0.00     0.171 A 
ATOM      3  N   UNL d   1      45.222  30.126  58.151  0.00  0.00    -0.188 NA
ATOM      4  C   UNL d   1      44.725  30.237  59.392  0.00  0.00     0.160 A 
ATOM      5  S   UNL d   1      45.050  30.661  58.756  0.00  0.00     0.041 SA
ENDROOT
BRANCH   2   6
ATOM      6  C   UNL d   1      45.081  28.674  57.977  0.00  0.00     0.037 A 
ATOM      7  C   UNL d   1      45.373  27.976  58.329  0.00  0.00     0.005 A 
ATOM      8  C   UNL d   1      45.448  27.290  57.895  0.00  0.00     0.024 A 
ATOM      9  C   UNL d   1      45.234  27.286  57.101  0.00  0.00     0.094 A 
ATOM     10  C   UNL d   1      44.943  27.977  56.743  0.00  0.00     0.024 A 
ATOM     11  C   UNL d   1      44.871  28.660  57.189  0.00  0.00     0.005 A 
BRANCH   9  12
ATOM     12  O   UNL d   1      45.307  26.599  56.654  0.00  0.00    -0.328 OA
ATOM     13  C   UNL d   1      44.644  26.268  56.302  0.00  0.00     0.181 C 
ENDBRANCH   9  12
ENDBRANCH   2   6
BRANCH   4  14
ATOM     14  S   UNL d   1      44.475  30.561  60.112  0.00  0.00    -0.054 SA
BRANCH  14  15
ATOM     15  C   UNL d   1      44.878  30.385  60.803  0.00  0.00     0.106 C 
BRANCH  15  16
ATOM     16  C   UNL d   1      44.614  30.675  61.530  0.00  0.00     0.307 C 
ATOM     17  O   UNL d   1      44.650  31.489  61.683  0.00  0.00    -0.258 OA
BRANCH  16  18
ATOM     18  O   UNL d   1      44.314  30.160  62.103  0.00  0.00    -0.271 OA
BRANCH  18  19
ATOM     19  C   UNL d   1      44.695  30.083  62.838  0.00  0.00     0.126 C 
ATOM     20  C   UNL d   1      44.430  29.526  63.385  0.00  0.00     0.029 C 
ENDBRANCH  18  19
ENDBRANCH  16  18
ENDBRANCH  15  16
ENDBRANCH  14  15
ENDBRANCH   4  14
TORSDOF 7
ENDMDL
MODEL 6
REMARK VINA RESULT:      -4.9      9.147     10.525
REMARK  7 active torsions:
REMARK  status: ('A' for Active; 'I' for Inactive)
REMARK    1  A    between atoms: C_6  and  C_2 
REMARK    2  A    between atoms: S_7  and  C_4 
REMARK    3  A    between atoms: C_12  and  S_7 
REMARK    4  A    between atoms: C_8  and  C_12 
REMARK    5  A    between atoms: O_16  and  C_8 
REMARK    6  A    between atoms: O_17  and  C_13 
REMARK    7  A    between atoms: C_18  and  O_16 
ROOT
ATOM      1  N   UNL d   1      44.539  27.688  56.711  0.00  0.00    -0.212 NA
ATOM      2  C   UNL d   1      44.939  28.319  57.045  0.00  0.00     0.171 A 
ATOM      3  N   UNL d   1      45.500  28.020  57.575  0.00  0.00    -0.188 NA
ATOM      4  C   UNL d   1      44.842  26.987  57.027  0.00  0.00     0.160 A 
ATOM      5  S   UNL d   1      45.440  27.196  57.564  0.00  0.00     0.041 SA
ENDROOT
BRANCH   2   6
ATOM      6  C   UNL d   1      44.813  29.121  56.887  0.00  0.00     0.037 A 
ATOM      7  C   UNL d   1      44.717  29.396  56.106  0.00  0.00     0.005 A 
ATOM      8  C   UNL d   1      44.593  30.188  55.955  0.00  0.00     0.024 A 
ATOM      9  C   UNL d   1      44.561  30.721  56.580  0.00  0.00     0.094 A 
ATOM     10  C   UNL d   1      44.656  30.455  57.361  0.00  0.00     0.024 A 
ATOM     11  C   UNL d   1      44.780  29.657  57.501  0.00  0.00     0.005 A 
BRANCH   9  12
ATOM     12  O   UNL d   1      44.436  31.522  56.437  0.00  0.00    -0.328 OA
ATOM     13  C   UNL d   1      44.471  32.057  57.057  0.00  0.00     0.181 C 
ENDBRANCH   9  12
ENDBRANCH   2   6
BRANCH   4  14
ATOM     14  S   UNL d   1      44.602  26.216  56.846  0.00  0.00    -0.054 SA
BRANCH  14  15
ATOM     15  C   UNL d   1      44.986  25.792  56.261  0.00  0.00     0.106 C 
BRANCH  15  16
ATOM     16  C   UNL d   1      44.712  25.048  56.031  0.00  0.00     0.307 C 
ATOM     17  O   UNL d   1      44.416  24.526  56.604  0.00  0.00    -0.258 OA
BRANCH  16  18
ATOM     18  O   UNL d   1      44.732  24.821  55.237  0.00  0.00    -0.271 OA
BRANCH  18  19
ATOM     19  C   UNL d   1      44.734  24.015  55.031  0.00  0.00     0.126 C 
ATOM     20  C   UNL d   1      44.780  23.791  54.239  0.00  0.00     0.029 C 
ENDBRANCH  18  19
ENDBRANCH  16  18
ENDBRANCH  15  16
ENDBRANCH  14  15
ENDBRANCH   4  14
TORSDOF 7
ENDMDL
MODEL 7
REMARK VINA RESULT:      -4.6     10.019     11.010
REMARK  7 active torsions:
REMARK  status: ('A' for Active; 'I' for Inactive)
REMARK    1  A    between atoms: C_6  and  C_2 
REMARK    2  A    between atoms: S_7  and  C_4 
REMARK    3  A    between atoms: C_12  and  S_7 
REMARK    4  A    between atoms: C_8  and  C_12 
REMARK    5  A    between atoms: O_16  and  C_8 
REMARK    6  A    between atoms: O_17  and  C_13 
REMARK    7  A    between atoms: C_18  and  O_16 
ROOT
ATOM      1  N   UNL d   1      44.461  29.775  59.502  0.00  0.00    -0.212 NA
ATOM      2  C   UNL d   1      44.735  30.400  59.954  0.00  0.00     0.171 A 
ATOM      3  N   UNL d   1      45.141  30.922  59.456  0.00  0.00    -0.188 NA
ATOM      4  C   UNL d   1      44.691  29.896  58.718  0.00  0.00     0.160 A 
ATOM      5  S   UNL d   1      45.113  30.611  58.692  0.00  0.00     0.041 SA
ENDROOT
BRANCH   2   6
ATOM      6  C   UNL d   1      44.631  30.502  60.768  0.00  0.00     0.037 A 
ATOM      7  C   UNL d   1      44.421  31.244  61.086  0.00  0.00     0.005 A 
ATOM      8  C   UNL d   1      44.319  31.340  61.889  0.00  0.00     0.024 A 
ATOM      9  C   UNL d   1      44.424  30.698  62.392  0.00  0.00     0.094 A 
ATOM     10  C   UNL d   1      44.633  29.956  62.084  0.00  0.00     0.024 A 
ATOM     11  C   UNL d   1      44.733  29.871  61.275  0.00  0.00     0.005 A 
BRANCH   9  12
ATOM     12  O   UNL d   1      44.323  30.785  63.204  0.00  0.00    -0.328 OA
ATOM     13  C   UNL d   1      44.366  31.530  63.543  0.00  0.00     0.181 C 
ENDBRANCH   9  12
ENDBRANCH   2   6
BRANCH   4  14
ATOM     14  S   UNL d   1      44.533  29.404  58.072  0.00  0.00    -0.054 SA
BRANCH  14  15
ATOM     15  C   UNL d   1      44.913  28.682  58.005  0.00  0.00     0.106 C 
BRANCH  15  16
ATOM     16  C   UNL d   1      44.780  28.195  57.350  0.00  0.00     0.307 C 
ATOM     17  O   UNL d   1      44.323  28.476  56.718  0.00  0.00    -0.258 OA
BRANCH  16  18
ATOM     18  O   UNL d   1      45.098  27.433  57.323  0.00  0.00    -0.271 OA
BRANCH  18  19
ATOM     19  C   UNL d   1      44.830  26.886  56.756  0.00  0.00     0.126 C 
ATOM     20  C   UNL d   1      45.229  26.173  56.648  0.00  0.00     0.029 C 
ENDBRANCH  18  19
ENDBRANCH  16  18
ENDBRANCH  15  16
ENDBRANCH  14  15
ENDBRANCH   4  14
TORSDOF 7
ENDMDL
MODEL 8
REMARK VINA RESULT:      -4.3      9.990     10.538
REMARK  7 active torsions:
REMARK  status: ('A' for Active; 'I' for Inactive)
REMARK    1  A    between atoms: C_6  and  C_2 
REMARK    2  A    between atoms: S_7  and  C_4 
REMARK    3  A    between atoms: C_12  and  S_7 
REMARK    4  A    between atoms: C_8  and  C_12 
REMARK    5  A    between atoms: O_16  and  C_8 
REMARK    6  A    between atoms: O_17  and  C_13 
REMARK    7  A    between atoms: C_18  and  O_16 
ROOT
ATOM      1  N   UNL d   1      44.583  27.735  58.173  0.00  0.00    -0.212 NA
ATOM      2  C   UNL d   1      44.918  27.142  57.719  0.00  0.00     0.171 A 
ATOM      3  N   UNL d   1      45.439  27.490  57.179  0.00  0.00    -0.188 NA
ATOM      4  C   UNL d   1      44.889  28.461  57.923  0.00  0.00     0.160 A 
ATOM      5  S   UNL d   1      45.422  28.306  57.305  0.00  0.00     0.041 SA
ENDROOT
BRANCH   2   6
ATOM      6  C   UNL d   1      44.768  26.330  57.782  0.00  0.00     0.037 A 
ATOM      7  C   UNL d   1      44.845  25.933  58.511  0.00  0.00     0.005 A 
ATOM      8  C   UNL d   1      44.696  25.133  58.568  0.00  0.00     0.024 A 
ATOM      9  C   UNL d   1      44.467  24.714  57.899  0.00  0.00     0.094 A 
ATOM     10  C   UNL d   1      44.387  25.102  57.169  0.00  0.00     0.024 A 
ATOM     11  C   UNL d   1      44.539  25.906  57.123  0.00  0.00     0.005 A 
BRANCH   9  12
ATOM     12  O   UNL d   1      44.314  23.906  57.947  0.00  0.00    -0.328 OA
ATOM     13  C   UNL d   1      44.683  23.454  58.523  0.00  0.00     0.181 C 
ENDBRANCH   9  12
ENDBRANCH   2   6
BRANCH   4  14
ATOM     14  S   UNL d   1      44.706  29.208  58.228  0.00  0.00    -0.054 SA
BRANCH  14  15
ATOM     15  C   UNL d   1      45.073  29.476  58.908  0.00  0.00     0.106 C 
BRANCH  15  16
ATOM     16  C   UNL d   1      44.879  30.211  59.230  0.00  0.00     0.307 C 
ATOM     17  O   UNL d   1      45.000  30.899  58.783  0.00  0.00    -0.258 OA
BRANCH  16  18
ATOM     18  O   UNL d   1      44.566  30.266  59.993  0.00  0.00    -0.271 OA
BRANCH  18  19
ATOM     19  C   UNL d   1      44.953  30.718  60.574  0.00  0.00     0.126 C 
ATOM     20  C   UNL d   1      44.678  30.714  61.352  0.00  0.00     0.029 C 
ENDBRANCH  18  19
ENDBRANCH  16  18
ENDBRANCH  15  16
ENDBRANCH  14  15
ENDBRANCH   4  14
TORSDOF 7
ENDMDL
MODEL 9
REMARK VINA RESULT:      -4.3      9.857     10.432
REMARK  7 active torsions:
REMARK  status: ('A' for Active; 'I' for Inactive)
REMARK    1  A    between atoms: C_6  and  C_2 
REMARK    2  A    between atoms: S_7  and  C_4 
REMARK    3  A    between atoms: C_12  and  S_7 
REMARK    4  A    between atoms: C_8  and  C_12 
REMARK    5  A    between atoms: O_16  and  C_8 
REMARK    6  A    between atoms: O_17  and  C_13 
REMARK    7  A    between atoms: C_18  and  O_16 
ROOT
ATOM      1  N   UNL d   1      44.569  27.158  57.786  0.00  0.00    -0.212 NA
ATOM      2  C   UNL d   1      44.771  26.365  57.818  0.00  0.00     0.171 A 
ATOM      3  N   UNL d   1      45.079  26.206  58.570  0.00  0.00    -0.188 NA
ATOM      4  C   UNL d   1      44.747  27.504  58.514  0.00  0.00     0.160 A 
ATOM      5  S   UNL d   1      45.064  26.911  59.000  0.00  0.00     0.041 SA
ENDROOT
BRANCH   2   6
ATOM      6  C   UNL d   1      44.687  25.810  57.210  0.00  0.00     0.037 A 
ATOM      7  C   UNL d   1      44.397  25.043  57.365  0.00  0.00     0.005 A 
ATOM      8  C   UNL d   1      44.316  24.499  56.763  0.00  0.00     0.024 A 
ATOM      9  C   UNL d   1      44.521  24.709  55.995  0.00  0.00     0.094 A 
ATOM     10  C   UNL d   1      44.810  25.471  55.833  0.00  0.00     0.024 A 
ATOM     11  C   UNL d   1      44.888  26.010  56.445  0.00  0.00     0.005 A 
BRANCH   9  12
ATOM     12  O   UNL d   1      44.442  24.167  55.380  0.00  0.00    -0.328 OA
ATOM     13  C   UNL d   1      44.861  23.463  55.400  0.00  0.00     0.181 C 
ENDBRANCH   9  12
ENDBRANCH   2   6
BRANCH   4  14
ATOM     14  S   UNL d   1      44.633  28.296  58.728  0.00  0.00    -0.054 SA
BRANCH  14  15
ATOM     15  C   UNL d   1      45.138  28.874  58.446  0.00  0.00     0.106 C 
BRANCH  15  16
ATOM     16  C   UNL d   1      45.005  29.671  58.618  0.00  0.00     0.307 C 
ATOM     17  O   UNL d   1      44.952  29.915  59.408  0.00  0.00    -0.258 OA
BRANCH  16  18
ATOM     18  O   UNL d   1      44.924  30.224  58.008  0.00  0.00    -0.271 OA
BRANCH  18  19
ATOM     19  C   UNL d   1      44.958  31.038  58.174  0.00  0.00     0.126 C 
ATOM     20  C   UNL d   1      44.787  31.587  57.583  0.00  0.00     0.029 C 
ENDBRANCH  18  19
ENDBRANCH  16  18
ENDBRANCH  15  16
ENDBRANCH  14  15
ENDBRANCH   4  14
TORSDOF 7
ENDMDL
