MODEL 1
REMARK VINA RESULT:      49.0      0.000      0.000
REMARK  6 active torsions:
REMARK  status: ('A' for Active; 'I' for Inactive)
REMARK       I    between atoms: N_2  and  C_1 
REMARK    1  A    between atoms: C_5  and  C_1 
REMARK    2  A    between atoms: C_3  and  N_2 
REMARK    3  A    between atoms: O_14  and  C_10 
REMARK    4  A    between atoms: C_18  and  O_14 
REMARK    5  A    between atoms: C_19  and  C_18 
REMARK    6  A    between atoms: C_20  and  C_19 
ROOT
ATOM      1  C   UNL d   1     -50.682  24.451  33.803  0.00  0.00     0.058 A 
ATOM      2  C   UNL d   1     -50.344  25.017  33.307  0.00  0.00     0.007 A 
ATOM      3  C   UNL d   1     -51.026  24.679  34.500  0.00  0.00     0.007 A 
ATOM      4  C   UNL d   1     -50.701  26.055  34.220  0.00  0.00     0.100 A 
ATOM      5  C   UNL d   1     -50.359  25.810  33.523  0.00  0.00     0.025 A 
ATOM      6  C   UNL d   1     -51.045  25.460  34.720  0.00  0.00     0.025 A 
ENDROOT
BRANCH   1   7
ATOM      7  C   UNL d   1     -50.657  23.652  33.566  0.00  0.00     0.281 C 
ATOM      8  N   UNL d   1     -51.343  23.200  33.509  0.00  0.00    -0.189 NA
ATOM      9  O   UNL d   1     -49.932  23.311  33.386  0.00  0.00    -0.265 OA
BRANCH   8  10
ATOM     10  C   UNL d   1     -52.086  23.549  33.693  0.00  0.00     0.166 A 
ATOM     11  N   UNL d   1     -52.529  23.194  34.300  0.00  0.00    -0.227 NA
ATOM     12  C   UNL d   1     -53.244  23.507  34.498  0.00  0.00     0.083 A 
ATOM     13  C   UNL d   1     -53.759  23.189  35.121  0.00  0.00     0.021 C 
ATOM     14  C   UNL d   1     -53.521  24.185  34.082  0.00  0.00     0.019 A 
ATOM     15  C   UNL d   1     -53.061  24.522  33.480  0.00  0.00     0.005 A 
ATOM     16  C   UNL d   1     -52.352  24.186  33.306  0.00  0.00     0.039 A 
ENDBRANCH   8  10
ENDBRANCH   1   7
BRANCH   4  17
ATOM     17  O   UNL d   1     -50.718  26.855  34.441  0.00  0.00    -0.305 OA
BRANCH  17  18
ATOM     18  C   UNL d   1     -50.041  27.240  34.707  0.00  0.00     0.123 C 
BRANCH  18  19
ATOM     19  C   UNL d   1     -49.633  27.738  34.194  0.00  0.00     0.027 C 
BRANCH  19  20
ATOM     20  C   UNL d   1     -49.120  28.312  34.527  0.00  0.00     0.002 C 
ATOM     21  C   UNL d   1     -48.605  28.105  35.139  0.00  0.00     0.000 C 
ENDBRANCH  19  20
ENDBRANCH  18  19
ENDBRANCH  17  18
ENDBRANCH   4  17
TORSDOF 6
ENDMDL
MODEL 2
REMARK VINA RESULT:      50.6      4.142      7.305
REMARK  6 active torsions:
REMARK  status: ('A' for Active; 'I' for Inactive)
REMARK       I    between atoms: N_2  and  C_1 
REMARK    1  A    between atoms: C_5  and  C_1 
REMARK    2  A    between atoms: C_3  and  N_2 
REMARK    3  A    between atoms: O_14  and  C_10 
REMARK    4  A    between atoms: C_18  and  O_14 
REMARK    5  A    between atoms: C_19  and  C_18 
REMARK    6  A    between atoms: C_20  and  C_19 
ROOT
ATOM      1  C   UNL d   1     -47.312  30.015  35.742  0.00  0.00     0.058 A 
ATOM      2  C   UNL d   1     -48.053  29.707  35.934  0.00  0.00     0.007 A 
ATOM      3  C   UNL d   1     -46.899  29.713  35.114  0.00  0.00     0.007 A 
ATOM      4  C   UNL d   1     -47.966  28.780  34.851  0.00  0.00     0.100 A 
ATOM      5  C   UNL d   1     -48.369  29.094  35.485  0.00  0.00     0.025 A 
ATOM      6  C   UNL d   1     -47.204  29.108  34.666  0.00  0.00     0.025 A 
ENDROOT
BRANCH   1   7
ATOM      7  C   UNL d   1     -47.011  30.637  36.209  0.00  0.00     0.281 C 
ATOM      8  N   UNL d   1     -47.092  31.423  35.980  0.00  0.00    -0.189 NA
ATOM      9  O   UNL d   1     -46.625  30.458  36.911  0.00  0.00    -0.265 OA
BRANCH   8  10
ATOM     10  C   UNL d   1     -47.488  31.607  35.259  0.00  0.00     0.166 A 
ATOM     11  N   UNL d   1     -47.106  32.136  34.744  0.00  0.00    -0.227 NA
ATOM     12  C   UNL d   1     -47.461  32.330  34.049  0.00  0.00     0.083 A 
ATOM     13  C   UNL d   1     -47.121  32.875  33.463  0.00  0.00     0.021 C 
ATOM     14  C   UNL d   1     -48.209  31.990  33.864  0.00  0.00     0.019 A 
ATOM     15  C   UNL d   1     -48.571  31.464  34.394  0.00  0.00     0.005 A 
ATOM     16  C   UNL d   1     -48.190  31.291  35.081  0.00  0.00     0.039 A 
ENDBRANCH   8  10
ENDBRANCH   1   7
BRANCH   4  17
ATOM     17  O   UNL d   1     -48.280  28.161  34.396  0.00  0.00    -0.305 OA
BRANCH  17  18
ATOM     18  C   UNL d   1     -49.071  27.941  34.461  0.00  0.00     0.123 C 
BRANCH  18  19
ATOM     19  C   UNL d   1     -49.348  27.300  34.027  0.00  0.00     0.027 C 
BRANCH  19  20
ATOM     20  C   UNL d   1     -50.091  27.374  33.645  0.00  0.00     0.002 C 
ATOM     21  C   UNL d   1     -50.454  26.712  33.307  0.00  0.00     0.000 C 
ENDBRANCH  19  20
ENDBRANCH  18  19
ENDBRANCH  17  18
ENDBRANCH   4  17
TORSDOF 6
ENDMDL
MODEL 3
REMARK VINA RESULT:      51.5      1.960      2.852
REMARK  6 active torsions:
REMARK  status: ('A' for Active; 'I' for Inactive)
REMARK       I    between atoms: N_2  and  C_1 
REMARK    1  A    between atoms: C_5  and  C_1 
REMARK    2  A    between atoms: C_3  and  N_2 
REMARK    3  A    between atoms: O_14  and  C_10 
REMARK    4  A    between atoms: C_18  and  O_14 
REMARK    5  A    between atoms: C_19  and  C_18 
REMARK    6  A    between atoms: C_20  and  C_19 
ROOT
ATOM      1  C   UNL d   1     -50.900  27.177  33.575  0.00  0.00     0.058 A 
ATOM      2  C   UNL d   1     -50.274  26.671  33.755  0.00  0.00     0.007 A 
ATOM      3  C   UNL d   1     -50.781  27.978  33.561  0.00  0.00     0.007 A 
ATOM      4  C   UNL d   1     -49.395  27.787  33.911  0.00  0.00     0.100 A 
ATOM      5  C   UNL d   1     -49.531  26.983  33.921  0.00  0.00     0.025 A 
ATOM      6  C   UNL d   1     -50.051  28.294  33.723  0.00  0.00     0.025 A 
ENDROOT
BRANCH   1   7
ATOM      7  C   UNL d   1     -51.645  26.839  33.411  0.00  0.00     0.281 C 
ATOM      8  N   UNL d   1     -51.734  26.028  33.306  0.00  0.00    -0.189 NA
ATOM      9  O   UNL d   1     -52.301  27.329  33.353  0.00  0.00    -0.265 OA
BRANCH   8  10
ATOM     10  C   UNL d   1     -51.061  25.525  33.365  0.00  0.00     0.166 A 
ATOM     11  N   UNL d   1     -51.195  24.707  33.309  0.00  0.00    -0.227 NA
ATOM     12  C   UNL d   1     -50.570  24.203  33.362  0.00  0.00     0.083 A 
ATOM     13  C   UNL d   1     -50.636  23.338  33.312  0.00  0.00     0.021 C 
ATOM     14  C   UNL d   1     -49.798  24.521  33.473  0.00  0.00     0.019 A 
ATOM     15  C   UNL d   1     -49.688  25.342  33.526  0.00  0.00     0.005 A 
ATOM     16  C   UNL d   1     -50.333  25.818  33.469  0.00  0.00     0.039 A 
ENDBRANCH   8  10
ENDBRANCH   1   7
BRANCH   4  17
ATOM     17  O   UNL d   1     -48.648  28.106  34.076  0.00  0.00    -0.305 OA
BRANCH  17  18
ATOM     18  C   UNL d   1     -48.544  28.670  34.666  0.00  0.00     0.123 C 
BRANCH  18  19
ATOM     19  C   UNL d   1     -47.801  29.006  34.778  0.00  0.00     0.027 C 
BRANCH  19  20
ATOM     20  C   UNL d   1     -47.533  29.116  35.565  0.00  0.00     0.002 C 
ATOM     21  C   UNL d   1     -47.305  29.866  35.826  0.00  0.00     0.000 C 
ENDBRANCH  19  20
ENDBRANCH  18  19
ENDBRANCH  17  18
ENDBRANCH   4  17
TORSDOF 6
ENDMDL
