MODEL 1
REMARK VINA RESULT:      43.4      0.000      0.000
REMARK  3 active torsions:
REMARK  status: ('A' for Active; 'I' for Inactive)
REMARK    1  A    between atoms: C_7  and  C_2 
REMARK    2  A    between atoms: N_5  and  C_8 
REMARK    3  A    between atoms: C_9  and  C_7 
ROOT
ATOM      1  C   UNL d   1     -55.204-100.558 -44.479  0.00  0.00     0.127 A 
ATOM      2  C   UNL d   1     -55.003-100.596 -43.675  0.00  0.00     0.023 A 
ATOM      3  C   UNL d   1     -55.017 -99.914 -43.217  0.00  0.00     0.002 A 
ATOM      4  C   UNL d   1     -55.415 -99.844 -44.815  0.00  0.00     0.024 A 
ATOM      5  C   UNL d   1     -55.230 -99.191 -43.554  0.00  0.00     0.000 A 
ATOM      6  C   UNL d   1     -55.429 -99.161 -44.357  0.00  0.00     0.002 A 
ENDROOT
BRANCH   2   7
ATOM      7  C   UNL d   1     -54.792-101.316 -43.341  0.00  0.00     0.013 C 
BRANCH   7   8
ATOM      8  C   UNL d   1     -54.778-101.402 -42.519  0.00  0.00     0.092 A 
ATOM      9  C   UNL d   1     -54.741-102.116 -42.105  0.00  0.00     0.288 A 
ATOM     10  N   UNL d   1     -54.740-101.935 -41.298  0.00  0.00    -0.163 NA
ATOM     11  O   UNL d   1     -54.711-102.868 -42.439  0.00  0.00    -0.265 OA
ATOM     12  C   UNL d   1     -54.776-101.121 -41.213  0.00  0.00     0.313 A 
ATOM     13  S   UNL d   1     -54.800-100.787 -41.966  0.00  0.00    -0.021 SA
ATOM     14  O   UNL d   1     -54.787-100.706 -40.500  0.00  0.00    -0.258 OA
ENDBRANCH   7   8
ENDBRANCH   2   7
BRANCH   1  15
ATOM     15  N   UNL d   1     -55.189-101.246 -44.938  0.00  0.00    -0.114 N 
ATOM     16  O   UNL d   1     -54.756-101.271 -45.641  0.00  0.00    -0.532 OA
ATOM     17  O   UNL d   1     -55.613-101.915 -44.690  0.00  0.00    -0.532 OA
ENDBRANCH   1  15
TORSDOF 3
ENDMDL
