MODEL 1
REMARK VINA RESULT:      23.3      0.000      0.000
REMARK  4 active torsions:
REMARK  status: ('A' for Active; 'I' for Inactive)
REMARK    1  A    between atoms: N_3  and  C_1 
REMARK    2  A    between atoms: C_2  and  S_10 
REMARK    3  A    between atoms: N_5  and  C_9 
REMARK    4  A    between atoms: S_10  and  C_8 
ROOT
ATOM      1  C   UNL d   1      45.984 -18.189  42.806  0.00  0.00     0.134 A 
ATOM      2  C   UNL d   1      45.910 -18.946  43.138  0.00  0.00     0.048 A 
ATOM      3  C   UNL d   1      46.260 -17.550  43.265  0.00  0.00     0.055 A 
ATOM      4  C   UNL d   1      46.109 -19.085  43.937  0.00  0.00     0.128 A 
ATOM      5  C   UNL d   1      46.455 -17.678  44.045  0.00  0.00     0.010 A 
ATOM      6  C   UNL d   1      46.384 -18.428  44.382  0.00  0.00     0.024 A 
ENDROOT
BRANCH   3   7
ATOM      7  S   UNL d   1      46.337 -16.808  42.956  0.00  0.00    -0.041 SA
BRANCH   7   8
ATOM      8  C   UNL d   1      46.044 -16.081  43.473  0.00  0.00     0.215 A 
ATOM      9  N   UNL d   1      46.508 -15.481  43.717  0.00  0.00    -0.214 NA
ATOM     10  C   UNL d   1      46.027 -14.961  44.157  0.00  0.00     0.107 A 
ATOM     11  C   UNL d   1      46.178 -14.241  44.555  0.00  0.00     0.021 A 
ATOM     12  C   UNL d   1      45.266 -15.265  44.170  0.00  0.00     0.120 A 
ATOM     13  C   UNL d   1      45.567 -13.861  44.944  0.00  0.00     0.002 A 
ATOM     14  C   UNL d   1      44.816 -14.166  44.955  0.00  0.00     0.002 A 
ATOM     15  C   UNL d   1      44.657 -14.877  44.564  0.00  0.00     0.026 A 
ATOM     16  O   UNL d   1      45.281 -15.990  43.727  0.00  0.00    -0.283 OA
ENDBRANCH   7   8
ENDBRANCH   3   7
BRANCH   1  17
ATOM     17  N   UNL d   1      45.779 -18.088  42.016  0.00  0.00    -0.113 N 
ATOM     18  O   UNL d   1      46.301 -18.125  41.409  0.00  0.00    -0.532 OA
ATOM     19  O   UNL d   1      45.002 -17.935  41.770  0.00  0.00    -0.532 OA
ENDBRANCH   1  17
BRANCH   4  20
ATOM     20  N   UNL d   1      46.044 -19.824  44.287  0.00  0.00    -0.114 N 
ATOM     21  O   UNL d   1      46.633 -20.165  44.793  0.00  0.00    -0.532 OA
ATOM     22  O   UNL d   1      45.423 -20.330  44.204  0.00  0.00    -0.532 OA
ENDBRANCH   4  20
TORSDOF 4
ENDMDL
