MODEL 1
REMARK VINA RESULT:      63.6      0.000      0.000
REMARK  4 active torsions:
REMARK  status: ('A' for Active; 'I' for Inactive)
REMARK    1  A    between atoms: C_10  and  C_1 
REMARK    2  A    between atoms: C_18  and  N_6 
REMARK       I    between atoms: N_13  and  C_10 
REMARK    3  A    between atoms: C_12  and  C_20 
REMARK    4  A    between atoms: C_20  and  N_13 
ROOT
ATOM      1  C   UNL d   1      14.152  14.239  -2.887  0.00  0.00     0.077 A 
ATOM      2  C   UNL d   1      14.214  12.934  -2.285  0.00  0.00     0.121 A 
ATOM      3  C   UNL d   1      14.356  13.750  -2.254  0.00  0.00     0.028 A 
ATOM      4  C   UNL d   1      13.862  12.604  -2.964  0.00  0.00     0.281 A 
ATOM      5  N   UNL d   1      14.476  12.609  -1.579  0.00  0.00    -0.300 N 
ATOM      6  N   UNL d   1      13.654  13.083  -3.601  0.00  0.00    -0.272 N 
ATOM      7  C   UNL d   1      13.800  13.911  -3.564  0.00  0.00     0.088 A 
ATOM      8  C   UNL d   1      14.707  13.913  -1.519  0.00  0.00     0.018 A 
ATOM      9  C   UNL d   1      14.775  13.198  -1.113  0.00  0.00     0.064 A 
ATOM     10  O   UNL d   1      13.719  11.779  -2.996  0.00  0.00    -0.265 OA
ATOM     11  C   UNL d   1      14.432  11.798  -1.393  0.00  0.00     0.100 C 
ATOM     12  C   UNL d   1      14.966  14.609  -1.181  0.00  0.00     0.002 A 
ATOM     13  C   UNL d   1      15.110  13.201  -0.359  0.00  0.00     0.018 A 
ATOM     14  C   UNL d   1      15.299  14.600  -0.426  0.00  0.00     0.000 A 
ATOM     15  C   UNL d   1      15.372  13.904  -0.016  0.00  0.00     0.002 A 
ENDROOT
BRANCH   1  16
ATOM     16  C   UNL d   1      14.292  15.045  -2.855  0.00  0.00     0.281 C 
ATOM     17  N   UNL d   1      14.773  15.404  -3.419  0.00  0.00    -0.204 NA
ATOM     18  O   UNL d   1      13.949  15.502  -2.255  0.00  0.00    -0.265 OA
BRANCH  17  19
ATOM     19  C   UNL d   1      14.914  16.215  -3.388  0.00  0.00     0.127 C 
BRANCH  19  20
ATOM     20  C   UNL d   1      15.017  16.639  -4.089  0.00  0.00     0.119 A 
ATOM     21  O   UNL d   1      14.728  17.393  -4.251  0.00  0.00    -0.306 OA
ATOM     22  C   UNL d   1      14.966  17.595  -5.017  0.00  0.00     0.100 A 
ATOM     23  C   UNL d   1      14.798  18.299  -5.402  0.00  0.00     0.027 C 
ATOM     24  C   UNL d   1      15.394  16.980  -5.326  0.00  0.00     0.027 A 
ATOM     25  C   UNL d   1      15.431  16.383  -4.758  0.00  0.00     0.028 A 
ENDBRANCH  19  20
ENDBRANCH  17  19
ENDBRANCH   1  16
BRANCH   6  26
ATOM     26  C   UNL d   1      13.306  12.752  -4.270  0.00  0.00     0.067 A 
ATOM     27  C   UNL d   1      13.112  13.157  -4.960  0.00  0.00     0.018 A 
ATOM     28  C   UNL d   1      12.780  12.618  -5.476  0.00  0.00     0.002 A 
ATOM     29  C   UNL d   1      12.769  11.884  -5.107  0.00  0.00     0.002 A 
ATOM     30  C   UNL d   1      13.096  11.970  -4.357  0.00  0.00     0.018 A 
ENDBRANCH   6  26
TORSDOF 4
ENDMDL
MODEL 2
REMARK VINA RESULT:      66.2      1.512      3.433
REMARK  4 active torsions:
REMARK  status: ('A' for Active; 'I' for Inactive)
REMARK    1  A    between atoms: C_10  and  C_1 
REMARK    2  A    between atoms: C_18  and  N_6 
REMARK       I    between atoms: N_13  and  C_10 
REMARK    3  A    between atoms: C_12  and  C_20 
REMARK    4  A    between atoms: C_20  and  N_13 
ROOT
ATOM      1  C   UNL d   1      14.248  14.125  -2.639  0.00  0.00     0.077 A 
ATOM      2  C   UNL d   1      13.548  12.950  -3.083  0.00  0.00     0.121 A 
ATOM      3  C   UNL d   1      13.804  13.727  -3.210  0.00  0.00     0.028 A 
ATOM      4  C   UNL d   1      13.740  12.566  -2.370  0.00  0.00     0.281 A 
ATOM      5  N   UNL d   1      13.125  12.716  -3.746  0.00  0.00    -0.300 N 
ATOM      6  N   UNL d   1      14.183  12.952  -1.793  0.00  0.00    -0.272 N 
ATOM      7  C   UNL d   1      14.441  13.742  -1.928  0.00  0.00     0.088 A 
ATOM      8  C   UNL d   1      13.530  13.960  -3.960  0.00  0.00     0.018 A 
ATOM      9  C   UNL d   1      13.113  13.324  -4.278  0.00  0.00     0.064 A 
ATOM     10  O   UNL d   1      13.481  11.779  -2.241  0.00  0.00    -0.265 OA
ATOM     11  C   UNL d   1      12.773  11.966  -3.836  0.00  0.00     0.100 C 
ATOM     12  C   UNL d   1      13.611  14.656  -4.377  0.00  0.00     0.002 A 
ATOM     13  C   UNL d   1      12.777  13.407  -5.028  0.00  0.00     0.018 A 
ATOM     14  C   UNL d   1      13.271  14.727  -5.126  0.00  0.00     0.000 A 
ATOM     15  C   UNL d   1      12.858  14.110  -5.451  0.00  0.00     0.002 A 
ENDROOT
BRANCH   1  16
ATOM     16  C   UNL d   1      14.501  14.893  -2.765  0.00  0.00     0.281 C 
ATOM     17  N   UNL d   1      14.395  15.466  -2.183  0.00  0.00    -0.204 NA
ATOM     18  O   UNL d   1      14.867  15.097  -3.481  0.00  0.00    -0.265 OA
BRANCH  17  19
ATOM     19  C   UNL d   1      14.649  16.238  -2.309  0.00  0.00     0.127 C 
BRANCH  19  20
ATOM     20  C   UNL d   1      15.011  16.656  -1.694  0.00  0.00     0.119 A 
ATOM     21  O   UNL d   1      15.042  17.475  -1.612  0.00  0.00    -0.306 OA
ATOM     22  C   UNL d   1      15.458  17.642  -0.916  0.00  0.00     0.100 A 
ATOM     23  C   UNL d   1      15.618  18.389  -0.622  0.00  0.00     0.027 C 
ATOM     24  C   UNL d   1      15.681  16.942  -0.573  0.00  0.00     0.027 A 
ATOM     25  C   UNL d   1      15.408  16.325  -1.048  0.00  0.00     0.028 A 
ENDBRANCH  19  20
ENDBRANCH  17  19
ENDBRANCH   1  16
BRANCH   6  26
ATOM     26  C   UNL d   1      14.371  12.568  -1.090  0.00  0.00     0.067 A 
ATOM     27  C   UNL d   1      15.084  12.635  -0.682  0.00  0.00     0.018 A 
ATOM     28  C   UNL d   1      15.033  12.162  -0.019  0.00  0.00     0.002 A 
ATOM     29  C   UNL d   1      14.293  11.803  -0.016  0.00  0.00     0.002 A 
ATOM     30  C   UNL d   1      13.885  12.058  -0.684  0.00  0.00     0.018 A 
ENDBRANCH   6  26
TORSDOF 4
ENDMDL
