MODEL 1
REMARK VINA RESULT:      15.7      0.000      0.000
REMARK  4 active torsions:
REMARK  status: ('A' for Active; 'I' for Inactive)
REMARK    1  A    between atoms: N_2  and  S_1 
REMARK    2  A    between atoms: C_4  and  S_1 
REMARK    3  A    between atoms: C_3  and  N_2 
REMARK    4  A    between atoms: N_5  and  C_6 
REMARK       I    between atoms: C_9  and  N_5 
ROOT
ATOM      1  N   UNL d   1      45.884 -17.479  44.349  0.00  0.00    -0.157 NA
ENDROOT
BRANCH   1   2
ATOM      2  S   UNL d   1      45.798 -16.634  44.406  0.00  0.00     0.285 S 
ATOM      3  O   UNL d   1      45.151 -16.662  43.872  0.00  0.00    -0.198 OA
ATOM      4  O   UNL d   1      46.446 -16.606  44.941  0.00  0.00    -0.198 OA
BRANCH   2   5
ATOM      5  C   UNL d   1      45.719 -15.804  44.467  0.00  0.00     0.105 A 
ATOM      6  C   UNL d   1      45.039 -15.476  44.807  0.00  0.00     0.013 A 
ATOM      7  C   UNL d   1      44.961 -14.667  44.867  0.00  0.00     0.001 A 
ATOM      8  C   UNL d   1      45.559 -14.173  44.589  0.00  0.00     0.000 A 
ATOM      9  C   UNL d   1      46.239 -14.500  44.249  0.00  0.00     0.001 A 
ATOM     10  C   UNL d   1      45.472 -13.339  44.654  0.00  0.00     0.000 C 
ATOM     11  C   UNL d   1      46.313 -15.319  44.191  0.00  0.00     0.013 A 
ENDBRANCH   2   5
ENDBRANCH   1   2
BRANCH   1  12
ATOM     12  C   UNL d   1      46.112 -17.824  43.622  0.00  0.00     0.112 A 
ATOM     13  C   UNL d   1      46.422 -18.590  43.609  0.00  0.00     0.103 A 
ATOM     14  C   UNL d   1      46.647 -18.929  42.891  0.00  0.00     0.021 A 
ATOM     15  C   UNL d   1      46.561 -18.503  42.189  0.00  0.00     0.002 A 
ATOM     16  C   UNL d   1      46.248 -17.730  42.209  0.00  0.00     0.002 A 
ATOM     17  C   UNL d   1      46.025 -17.392  42.911  0.00  0.00     0.021 A 
BRANCH  13  18
ATOM     18  N   UNL d   1      46.511 -19.023  44.304  0.00  0.00    -0.206 NA
ATOM     19  C   UNL d   1      46.553 -19.846  44.264  0.00  0.00     0.280 C 
ATOM     20  O   UNL d   1      46.506 -20.219  43.539  0.00  0.00    -0.265 OA
ATOM     21  C   UNL d   1      46.642 -20.288  44.953  0.00  0.00     0.068 C 
ENDBRANCH  13  18
ENDBRANCH   1  12
TORSDOF 4
ENDMDL
