MODEL 1
REMARK VINA RESULT:      14.2      0.000      0.000
REMARK  1 active torsions:
REMARK  status: ('A' for Active; 'I' for Inactive)
REMARK    1  A    between atoms: O_15  and  C_11 
ROOT
ATOM      1  C   UNL d   1      14.566  12.820  -1.386  0.00  0.00     0.139 A 
ATOM      2  N   UNL d   1      14.784  13.238  -2.084  0.00  0.00    -0.241 NA
ATOM      3  C   UNL d   1      13.981  12.286  -1.591  0.00  0.00     0.025 A 
ATOM      4  C   UNL d   1      13.824  12.356  -2.400  0.00  0.00     0.021 A 
ATOM      5  C   UNL d   1      14.320  12.941  -2.693  0.00  0.00     0.082 A 
ATOM      6  C   UNL d   1      14.849  12.881  -0.590  0.00  0.00     0.297 A 
ATOM      7  N   UNL d   1      14.526  12.391  -0.014  0.00  0.00    -0.205 NA
ATOM      8  C   UNL d   1      13.304  11.973  -2.903  0.00  0.00     0.026 A 
ATOM      9  O   UNL d   1      15.452  13.434  -0.394  0.00  0.00    -0.264 OA
ATOM     10  C   UNL d   1      14.300  13.146  -3.489  0.00  0.00     0.021 A 
ATOM     11  C   UNL d   1      13.285  12.180  -3.702  0.00  0.00     0.094 A 
ATOM     12  C   UNL d   1      13.649  11.780  -0.986  0.00  0.00     0.022 A 
ATOM     13  C   UNL d   1      13.924  11.838  -0.210  0.00  0.00     0.102 A 
ATOM     14  C   UNL d   1      13.763  12.746  -3.994  0.00  0.00     0.026 A 
ENDROOT
BRANCH  11  15
ATOM     15  O   UNL d   1      12.769  11.810  -4.238  0.00  0.00    -0.328 OA
ATOM     16  C   UNL d   1      12.946  11.783  -5.054  0.00  0.00     0.181 C 
ENDBRANCH  11  15
TORSDOF 1
ENDMDL
MODEL 2
REMARK VINA RESULT:      16.1      1.081      3.506
REMARK  1 active torsions:
REMARK  status: ('A' for Active; 'I' for Inactive)
REMARK    1  A    between atoms: O_15  and  C_11 
ROOT
ATOM      1  C   UNL d   1      13.517  12.458  -3.234  0.00  0.00     0.139 A 
ATOM      2  N   UNL d   1      13.608  11.830  -2.680  0.00  0.00    -0.241 NA
ATOM      3  C   UNL d   1      13.858  13.126  -2.908  0.00  0.00     0.025 A 
ATOM      4  C   UNL d   1      14.163  12.937  -2.163  0.00  0.00     0.021 A 
ATOM      5  C   UNL d   1      14.005  12.142  -2.032  0.00  0.00     0.082 A 
ATOM      6  C   UNL d   1      13.154  12.475  -4.000  0.00  0.00     0.297 A 
ATOM      7  N   UNL d   1      13.148  13.180  -4.421  0.00  0.00    -0.205 NA
ATOM      8  C   UNL d   1      14.556  13.373  -1.595  0.00  0.00     0.026 A 
ATOM      9  O   UNL d   1      12.807  11.779  -4.322  0.00  0.00    -0.264 OA
ATOM     10  C   UNL d   1      14.240  11.779  -1.332  0.00  0.00     0.021 A 
ATOM     11  C   UNL d   1      14.792  13.008  -0.892  0.00  0.00     0.094 A 
ATOM     12  C   UNL d   1      13.847  13.857  -3.353  0.00  0.00     0.022 A 
ATOM     13  C   UNL d   1      13.495  13.875  -4.099  0.00  0.00     0.102 A 
ATOM     14  C   UNL d   1      14.643  12.238  -0.757  0.00  0.00     0.026 A 
ENDROOT
BRANCH  11  15
ATOM     15  O   UNL d   1      15.193  13.423  -0.295  0.00  0.00    -0.328 OA
ATOM     16  C   UNL d   1      14.927  14.174  -0.041  0.00  0.00     0.181 C 
ENDBRANCH  11  15
TORSDOF 1
ENDMDL
