MODEL 1
REMARK VINA RESULT:      59.2      0.000      0.000
REMARK  3 active torsions:
REMARK  status: ('A' for Active; 'I' for Inactive)
REMARK    1  A    between atoms: N_2  and  S_1 
REMARK    2  A    between atoms: C_4  and  S_1 
REMARK    3  A    between atoms: C_3  and  N_2 
ROOT
ATOM      1  N   UNL d   1     -49.230  26.779  33.649  0.00  0.00    -0.157 NA
ENDROOT
BRANCH   1   2
ATOM      2  S   UNL d   1     -48.952  27.368  34.156  0.00  0.00     0.285 S 
ATOM      3  O   UNL d   1     -49.278  27.945  33.665  0.00  0.00    -0.198 OA
ATOM      4  O   UNL d   1     -48.620  26.793  34.655  0.00  0.00    -0.198 OA
BRANCH   2   5
ATOM      5  C   UNL d   1     -48.673  27.956  34.663  0.00  0.00     0.105 A 
ATOM      6  C   UNL d   1     -48.771  27.877  35.486  0.00  0.00     0.013 A 
ATOM      7  C   UNL d   1     -48.492  28.465  35.994  0.00  0.00     0.001 A 
ATOM      8  C   UNL d   1     -48.116  29.132  35.690  0.00  0.00     0.000 A 
ATOM      9  C   UNL d   1     -48.017  29.213  34.875  0.00  0.00     0.001 A 
ATOM     10  C   UNL d   1     -47.838  29.718  36.205  0.00  0.00     0.000 C 
ATOM     11  C   UNL d   1     -48.296  28.626  34.363  0.00  0.00     0.013 A 
ENDBRANCH   2   5
ENDBRANCH   1   2
BRANCH   1  12
ATOM     12  C   UNL d   1     -50.042  26.654  33.569  0.00  0.00     0.111 A 
ATOM     13  C   UNL d   1     -50.338  25.887  33.486  0.00  0.00     0.100 A 
ATOM     14  N   UNL d   1     -49.815  25.237  33.482  0.00  0.00    -0.242 NA
ATOM     15  C   UNL d   1     -51.150  25.762  33.406  0.00  0.00     0.019 A 
ATOM     16  C   UNL d   1     -50.110  24.465  33.398  0.00  0.00     0.099 A 
ATOM     17  C   UNL d   1     -50.922  24.340  33.318  0.00  0.00     0.021 A 
ATOM     18  C   UNL d   1     -51.441  24.986  33.323  0.00  0.00     0.003 A 
ATOM     19  C   UNL d   1     -51.668  26.403  33.410  0.00  0.00     0.002 A 
ATOM     20  C   UNL d   1     -51.376  27.170  33.493  0.00  0.00     0.002 A 
ATOM     21  C   UNL d   1     -50.564  27.295  33.573  0.00  0.00     0.021 A 
ENDBRANCH   1  12
TORSDOF 3
ENDMDL
