MODEL 1
REMARK VINA RESULT:      39.8      0.000      0.000
REMARK  2 active torsions:
REMARK  status: ('A' for Active; 'I' for Inactive)
REMARK    1  A    between atoms: C_6  and  C_3 
REMARK    2  A    between atoms: C_13  and  C_7 
ROOT
ATOM      1  C   UNL d   1     -51.341  26.292  33.584  0.00  0.00     0.018 A 
ATOM      2  C   UNL d   1     -52.409  25.049  33.715  0.00  0.00     0.000 A 
ATOM      3  C   UNL d   1     -52.122  26.399  33.351  0.00  0.00     0.002 A 
ATOM      4  C   UNL d   1     -51.087  25.565  33.884  0.00  0.00     0.002 A 
ATOM      5  C   UNL d   1     -52.662  25.777  33.415  0.00  0.00     0.000 A 
ATOM      6  C   UNL d   1     -51.624  24.946  33.948  0.00  0.00     0.000 A 
ENDROOT
BRANCH   1   7
ATOM      7  C   UNL d   1     -50.801  26.915  33.520  0.00  0.00     0.090 A 
ATOM      8  N   UNL d   1     -50.980  27.720  33.547  0.00  0.00    -0.219 NA
ATOM      9  C   UNL d   1     -50.279  28.142  33.461  0.00  0.00     0.215 A 
ATOM     10  S   UNL d   1     -49.657  27.606  33.380  0.00  0.00    -0.045 SA
ATOM     11  N   UNL d   1     -50.205  28.965  33.456  0.00  0.00    -0.120 N 
ATOM     12  C   UNL d   1     -49.977  26.844  33.416  0.00  0.00     0.058 A 
ENDBRANCH   1   7
BRANCH   2  13
ATOM     13  C   UNL d   1     -52.946  24.425  33.781  0.00  0.00     0.000 A 
ATOM     14  C   UNL d   1     -53.620  24.420  33.306  0.00  0.00     0.000 A 
ATOM     15  C   UNL d   1     -54.148  23.804  33.372  0.00  0.00     0.000 A 
ATOM     16  C   UNL d   1     -54.016  23.188  33.906  0.00  0.00     0.000 A 
ATOM     17  C   UNL d   1     -53.344  23.200  34.375  0.00  0.00     0.000 A 
ATOM     18  C   UNL d   1     -52.807  23.819  34.313  0.00  0.00     0.000 A 
ENDBRANCH   2  13
TORSDOF 2
ENDMDL
MODEL 2
REMARK VINA RESULT:      42.0      0.974      1.527
REMARK  2 active torsions:
REMARK  status: ('A' for Active; 'I' for Inactive)
REMARK    1  A    between atoms: C_6  and  C_3 
REMARK    2  A    between atoms: C_13  and  C_7 
ROOT
ATOM      1  C   UNL d   1     -50.574  26.785  33.672  0.00  0.00     0.018 A 
ATOM      2  C   UNL d   1     -51.444  25.395  33.562  0.00  0.00     0.000 A 
ATOM      3  C   UNL d   1     -50.188  26.072  33.538  0.00  0.00     0.002 A 
ATOM      4  C   UNL d   1     -51.396  26.810  33.753  0.00  0.00     0.002 A 
ATOM      5  C   UNL d   1     -50.622  25.371  33.482  0.00  0.00     0.000 A 
ATOM      6  C   UNL d   1     -51.827  26.113  33.697  0.00  0.00     0.000 A 
ENDROOT
BRANCH   1   7
ATOM      7  C   UNL d   1     -50.139  27.486  33.728  0.00  0.00     0.090 A 
ATOM      8  N   UNL d   1     -49.429  27.588  34.136  0.00  0.00    -0.219 NA
ATOM      9  C   UNL d   1     -49.191  28.370  34.046  0.00  0.00     0.215 A 
ATOM     10  S   UNL d   1     -49.749  28.763  33.582  0.00  0.00    -0.045 SA
ATOM     11  N   UNL d   1     -48.509  28.711  34.364  0.00  0.00    -0.120 N 
ATOM     12  C   UNL d   1     -50.339  28.218  33.383  0.00  0.00     0.058 A 
ENDBRANCH   1   7
BRANCH   2  13
ATOM     13  C   UNL d   1     -51.881  24.696  33.507  0.00  0.00     0.000 A 
ATOM     14  C   UNL d   1     -51.486  23.972  33.489  0.00  0.00     0.000 A 
ATOM     15  C   UNL d   1     -51.919  23.285  33.435  0.00  0.00     0.000 A 
ATOM     16  C   UNL d   1     -52.744  23.305  33.397  0.00  0.00     0.000 A 
ATOM     17  C   UNL d   1     -53.129  24.027  33.415  0.00  0.00     0.000 A 
ATOM     18  C   UNL d   1     -52.698  24.726  33.470  0.00  0.00     0.000 A 
ENDBRANCH   2  13
TORSDOF 2
ENDMDL
