MODEL 1
REMARK VINA RESULT:      45.8      0.000      0.000
REMARK  4 active torsions:
REMARK  status: ('A' for Active; 'I' for Inactive)
REMARK    1  A    between atoms: C_7  and  N_1 
REMARK    2  A    between atoms: C_10  and  C_5 
REMARK    3  A    between atoms: N_6  and  C_9 
REMARK    4  A    between atoms: O_18  and  C_13 
ROOT
ATOM      1  N   UNL d   1      13.823  12.933  -2.226  0.00  0.00    -0.279 N 
ATOM      2  C   UNL d   1      13.458  12.560  -2.866  0.00  0.00     0.206 A 
ATOM      3  N   UNL d   1      13.470  13.074  -3.486  0.00  0.00    -0.217 NA
ATOM      4  C   UNL d   1      14.054  13.679  -2.476  0.00  0.00     0.101 A 
ATOM      5  C   UNL d   1      13.829  13.743  -3.245  0.00  0.00     0.101 A 
ATOM      6  S   UNL d   1      13.134  11.779  -2.857  0.00  0.00    -0.038 SA
ENDROOT
BRANCH   5   7
ATOM      7  C   UNL d   1      13.983  14.431  -3.655  0.00  0.00     0.019 A 
ATOM      8  C   UNL d   1      14.429  15.090  -3.464  0.00  0.00     0.003 A 
ATOM      9  C   UNL d   1      14.493  15.731  -4.001  0.00  0.00     0.024 A 
ATOM     10  C   UNL d   1      14.108  15.699  -4.720  0.00  0.00     0.127 A 
ATOM     11  C   UNL d   1      13.651  15.021  -4.912  0.00  0.00     0.024 A 
ATOM     12  C   UNL d   1      13.598  14.398  -4.373  0.00  0.00     0.003 A 
BRANCH  10  13
ATOM     13  N   UNL d   1      14.169  16.329  -5.251  0.00  0.00    -0.114 N 
ATOM     14  O   UNL d   1      14.670  16.953  -5.090  0.00  0.00    -0.532 OA
ATOM     15  O   UNL d   1      13.721  16.325  -5.947  0.00  0.00    -0.532 OA
ENDBRANCH  10  13
ENDBRANCH   5   7
BRANCH   1  16
ATOM     16  C   UNL d   1      13.903  12.547  -1.487  0.00  0.00     0.088 A 
ATOM     17  C   UNL d   1      14.629  12.542  -1.093  0.00  0.00     0.110 A 
ATOM     18  C   UNL d   1      14.699  12.169  -0.382  0.00  0.00     0.026 A 
ATOM     19  C   UNL d   1      14.049  11.784  -0.032  0.00  0.00     0.002 A 
ATOM     20  C   UNL d   1      13.316  11.780  -0.415  0.00  0.00     0.002 A 
ATOM     21  C   UNL d   1      13.254  12.174  -1.158  0.00  0.00     0.020 A 
BRANCH  17  22
ATOM     22  O   UNL d   1      15.292  12.942  -1.464  0.00  0.00    -0.327 OA
ATOM     23  C   UNL d   1      16.051  12.848  -1.118  0.00  0.00     0.181 C 
ENDBRANCH  17  22
ENDBRANCH   1  16
TORSDOF 4
ENDMDL
