MODEL 1
REMARK VINA RESULT:      -7.6      0.000      0.000
REMARK  5 active torsions:
REMARK  status: ('A' for Active; 'I' for Inactive)
REMARK       I    between atoms: C_2  and  N_1 
REMARK    1  A    between atoms: C_10  and  C_2 
REMARK    2  A    between atoms: C_7  and  C_3 
REMARK       I    between atoms: C_5  and  N_8 
REMARK    3  A    between atoms: C_15  and  C_5 
REMARK    4  A    between atoms: N_8  and  C_7 
REMARK    5  A    between atoms: N_9  and  C_10 
ROOT
ATOM      1  N   UNL d   1     -46.868  13.215  23.084  0.00  0.00    -0.271 N 
ATOM      2  C   UNL d   1     -46.708  12.424  23.290  0.00  0.00     0.282 C 
ATOM      3  C   UNL d   1     -47.618  13.398  22.803  0.00  0.00     0.086 A 
ATOM      4  C   UNL d   1     -47.796  14.152  22.598  0.00  0.00     0.018 A 
ATOM      5  C   UNL d   1     -46.288  13.825  23.153  0.00  0.00     0.083 A 
ATOM      6  C   UNL d   1     -47.233  14.745  22.666  0.00  0.00     0.003 A 
ATOM      7  O   UNL d   1     -47.271  11.830  23.223  0.00  0.00    -0.265 OA
ATOM      8  C   UNL d   1     -46.487  14.589  22.939  0.00  0.00     0.019 A 
ATOM      9  C   UNL d   1     -48.552  14.341  22.315  0.00  0.00     0.002 A 
ATOM     10  C   UNL d   1     -47.421  15.532  22.451  0.00  0.00     0.000 A 
ATOM     11  C   UNL d   1     -48.746  15.111  22.102  0.00  0.00     0.000 A 
ATOM     12  C   UNL d   1     -48.167  15.721  22.171  0.00  0.00     0.000 A 
ENDROOT
BRANCH   3  13
ATOM     13  C   UNL d   1     -48.185  12.802  22.735  0.00  0.00     0.120 C 
BRANCH  13  14
ATOM     14  N   UNL d   1     -48.279  12.405  22.019  0.00  0.00    -0.205 NA
ATOM     15  C   UNL d   1     -48.981  11.969  21.872  0.00  0.00     0.279 C 
ATOM     16  O   UNL d   1     -49.089  11.569  21.163  0.00  0.00    -0.265 OA
BRANCH  15  17
ATOM     17  C   UNL d   1     -49.556  11.949  22.448  0.00  0.00     0.058 A 
ATOM     18  C   UNL d   1     -49.498  11.482  23.109  0.00  0.00     0.005 A 
ATOM     19  C   UNL d   1     -50.076  11.459  23.695  0.00  0.00     0.000 A 
ATOM     20  C   UNL d   1     -50.760  11.945  23.600  0.00  0.00     0.000 A 
ATOM     21  C   UNL d   1     -50.826  12.426  22.925  0.00  0.00     0.000 A 
ATOM     22  C   UNL d   1     -50.234  12.419  22.372  0.00  0.00     0.005 A 
ENDBRANCH  15  17
ENDBRANCH  13  14
ENDBRANCH   3  13
BRANCH   2  23
ATOM     23  C   UNL d   1     -45.948  12.203  23.581  0.00  0.00     0.142 C 
BRANCH  23  24
ATOM     24  N   UNL d   1     -45.754  11.402  23.601  0.00  0.00    -0.295 N 
ATOM     25  C   UNL d   1     -44.956  11.188  23.672  0.00  0.00     0.107 A 
ATOM     26  C   UNL d   1     -44.731  10.387  23.695  0.00  0.00     0.142 A 
ATOM     27  O   UNL d   1     -45.320   9.810  23.645  0.00  0.00    -0.300 OA
ATOM     28  C   UNL d   1     -46.130  10.013  23.572  0.00  0.00     0.142 A 
ATOM     29  C   UNL d   1     -46.341  10.818  23.550  0.00  0.00     0.107 A 
ENDBRANCH  23  24
ENDBRANCH   2  23
TORSDOF 5
ENDMDL
MODEL 2
REMARK VINA RESULT:      -6.3      8.273      9.782
REMARK  5 active torsions:
REMARK  status: ('A' for Active; 'I' for Inactive)
REMARK       I    between atoms: C_2  and  N_1 
REMARK    1  A    between atoms: C_10  and  C_2 
REMARK    2  A    between atoms: C_7  and  C_3 
REMARK       I    between atoms: C_5  and  N_8 
REMARK    3  A    between atoms: C_15  and  C_5 
REMARK    4  A    between atoms: N_8  and  C_7 
REMARK    5  A    between atoms: N_9  and  C_10 
ROOT
ATOM      1  N   UNL d   1     -41.027  15.479  18.600  0.00  0.00    -0.271 N 
ATOM      2  C   UNL d   1     -40.577  15.323  19.283  0.00  0.00     0.282 C 
ATOM      3  C   UNL d   1     -40.678  15.347  17.867  0.00  0.00     0.086 A 
ATOM      4  C   UNL d   1     -41.091  15.489  17.195  0.00  0.00     0.018 A 
ATOM      5  C   UNL d   1     -41.820  15.764  18.638  0.00  0.00     0.083 A 
ATOM      6  C   UNL d   1     -41.861  15.767  17.232  0.00  0.00     0.003 A 
ATOM      7  O   UNL d   1     -39.805  15.045  19.246  0.00  0.00    -0.265 OA
ATOM      8  C   UNL d   1     -42.227  15.904  17.941  0.00  0.00     0.019 A 
ATOM      9  C   UNL d   1     -40.742  15.357  16.455  0.00  0.00     0.002 A 
ATOM     10  C   UNL d   1     -42.291  15.915  16.529  0.00  0.00     0.000 A 
ATOM     11  C   UNL d   1     -41.156  15.500  15.759  0.00  0.00     0.000 A 
ATOM     12  C   UNL d   1     -41.949  15.785  15.797  0.00  0.00     0.000 A 
ENDROOT
BRANCH   3  13
ATOM     13  C   UNL d   1     -39.902  15.068  17.830  0.00  0.00     0.120 C 
BRANCH  13  14
ATOM     14  N   UNL d   1     -39.301  15.562  17.560  0.00  0.00    -0.205 NA
ATOM     15  C   UNL d   1     -38.548  15.241  17.370  0.00  0.00     0.279 C 
ATOM     16  O   UNL d   1     -37.940  15.721  17.100  0.00  0.00    -0.265 OA
BRANCH  15  17
ATOM     17  C   UNL d   1     -38.433  14.439  17.460  0.00  0.00     0.058 A 
ATOM     18  C   UNL d   1     -38.241  14.102  18.171  0.00  0.00     0.005 A 
ATOM     19  C   UNL d   1     -38.124  13.292  18.267  0.00  0.00     0.000 A 
ATOM     20  C   UNL d   1     -38.208  12.793  17.591  0.00  0.00     0.000 A 
ATOM     21  C   UNL d   1     -38.405  13.134  16.858  0.00  0.00     0.000 A 
ATOM     22  C   UNL d   1     -38.512  13.935  16.807  0.00  0.00     0.005 A 
ENDBRANCH  15  17
ENDBRANCH  13  14
ENDBRANCH   3  13
BRANCH   2  23
ATOM     23  C   UNL d   1     -40.906  15.448  20.048  0.00  0.00     0.142 C 
BRANCH  23  24
ATOM     24  N   UNL d   1     -40.461  15.227  20.707  0.00  0.00    -0.295 N 
ATOM     25  C   UNL d   1     -40.080  15.818  21.146  0.00  0.00     0.107 A 
ATOM     26  C   UNL d   1     -39.624  15.623  21.816  0.00  0.00     0.142 A 
ATOM     27  O   UNL d   1     -39.562  14.829  22.032  0.00  0.00    -0.300 OA
ATOM     28  C   UNL d   1     -39.942  14.221  21.597  0.00  0.00     0.142 A 
ATOM     29  C   UNL d   1     -40.394  14.430  20.930  0.00  0.00     0.107 A 
ENDBRANCH  23  24
ENDBRANCH   2  23
TORSDOF 5
ENDMDL
MODEL 3
REMARK VINA RESULT:      -5.7      7.615      9.059
REMARK  5 active torsions:
REMARK  status: ('A' for Active; 'I' for Inactive)
REMARK       I    between atoms: C_2  and  N_1 
REMARK    1  A    between atoms: C_10  and  C_2 
REMARK    2  A    between atoms: C_7  and  C_3 
REMARK       I    between atoms: C_5  and  N_8 
REMARK    3  A    between atoms: C_15  and  C_5 
REMARK    4  A    between atoms: N_8  and  C_7 
REMARK    5  A    between atoms: N_9  and  C_10 
ROOT
ATOM      1  N   UNL d   1     -39.109  15.588  19.954  0.00  0.00    -0.271 N 
ATOM      2  C   UNL d   1     -39.522  15.506  19.235  0.00  0.00     0.282 C 
ATOM      3  C   UNL d   1     -39.503  15.399  20.650  0.00  0.00     0.086 A 
ATOM      4  C   UNL d   1     -39.128  15.469  21.355  0.00  0.00     0.018 A 
ATOM      5  C   UNL d   1     -38.310  15.856  19.987  0.00  0.00     0.083 A 
ATOM      6  C   UNL d   1     -38.351  15.729  21.387  0.00  0.00     0.003 A 
ATOM      7  O   UNL d   1     -40.299  15.246  19.202  0.00  0.00    -0.265 OA
ATOM      8  C   UNL d   1     -37.942  15.922  20.715  0.00  0.00     0.019 A 
ATOM      9  C   UNL d   1     -39.522  15.279  22.059  0.00  0.00     0.002 A 
ATOM     10  C   UNL d   1     -37.961  15.802  22.124  0.00  0.00     0.000 A 
ATOM     11  C   UNL d   1     -39.147  15.347  22.787  0.00  0.00     0.000 A 
ATOM     12  C   UNL d   1     -38.347  15.615  22.821  0.00  0.00     0.000 A 
ENDROOT
BRANCH   3  13
ATOM     13  C   UNL d   1     -40.285  15.137  20.617  0.00  0.00     0.120 C 
BRANCH  13  14
ATOM     14  N   UNL d   1     -40.902  15.675  20.707  0.00  0.00    -0.205 NA
ATOM     15  C   UNL d   1     -41.688  15.397  20.810  0.00  0.00     0.279 C 
ATOM     16  O   UNL d   1     -42.313  15.922  20.900  0.00  0.00    -0.265 OA
BRANCH  15  17
ATOM     17  C   UNL d   1     -41.819  14.593  20.818  0.00  0.00     0.058 A 
ATOM     18  C   UNL d   1     -41.870  14.152  20.139  0.00  0.00     0.005 A 
ATOM     19  C   UNL d   1     -42.003  13.338  20.142  0.00  0.00     0.000 A 
ATOM     20  C   UNL d   1     -42.090  12.950  20.887  0.00  0.00     0.000 A 
ATOM     21  C   UNL d   1     -42.039  13.398  21.586  0.00  0.00     0.000 A 
ATOM     22  C   UNL d   1     -41.907  14.196  21.539  0.00  0.00     0.005 A 
ENDBRANCH  15  17
ENDBRANCH  13  14
ENDBRANCH   3  13
BRANCH   2  23
ATOM     23  C   UNL d   1     -39.146  15.692  18.504  0.00  0.00     0.142 C 
BRANCH  23  24
ATOM     24  N   UNL d   1     -39.404  15.308  17.821  0.00  0.00    -0.295 N 
ATOM     25  C   UNL d   1     -39.950  15.693  17.330  0.00  0.00     0.107 A 
ATOM     26  C   UNL d   1     -40.227  15.328  16.635  0.00  0.00     0.142 A 
ATOM     27  O   UNL d   1     -39.947  14.575  16.446  0.00  0.00    -0.300 OA
ATOM     28  C   UNL d   1     -39.395  14.174  16.934  0.00  0.00     0.142 A 
ATOM     29  C   UNL d   1     -39.126  14.550  17.626  0.00  0.00     0.107 A 
ENDBRANCH  23  24
ENDBRANCH   2  23
TORSDOF 5
ENDMDL
MODEL 4
REMARK VINA RESULT:      -5.6      0.874      2.915
REMARK  5 active torsions:
REMARK  status: ('A' for Active; 'I' for Inactive)
REMARK       I    between atoms: C_2  and  N_1 
REMARK    1  A    between atoms: C_10  and  C_2 
REMARK    2  A    between atoms: C_7  and  C_3 
REMARK       I    between atoms: C_5  and  N_8 
REMARK    3  A    between atoms: C_15  and  C_5 
REMARK    4  A    between atoms: N_8  and  C_7 
REMARK    5  A    between atoms: N_9  and  C_10 
ROOT
ATOM      1  N   UNL d   1     -48.232  11.584  23.343  0.00  0.00    -0.271 N 
ATOM      2  C   UNL d   1     -47.400  11.551  23.326  0.00  0.00     0.282 C 
ATOM      3  C   UNL d   1     -48.601  12.234  23.001  0.00  0.00     0.086 A 
ATOM      4  C   UNL d   1     -49.401  12.289  23.006  0.00  0.00     0.018 A 
ATOM      5  C   UNL d   1     -48.700  10.977  23.697  0.00  0.00     0.083 A 
ATOM      6  C   UNL d   1     -49.856  11.699  23.350  0.00  0.00     0.003 A 
ATOM      7  O   UNL d   1     -46.945  12.141  22.981  0.00  0.00    -0.265 OA
ATOM      8  C   UNL d   1     -49.515  11.050  23.693  0.00  0.00     0.019 A 
ATOM      9  C   UNL d   1     -49.777  12.943  22.662  0.00  0.00     0.002 A 
ATOM     10  C   UNL d   1     -50.691  11.759  23.353  0.00  0.00     0.000 A 
ATOM     11  C   UNL d   1     -50.596  13.010  22.660  0.00  0.00     0.000 A 
ATOM     12  C   UNL d   1     -51.064  12.403  23.015  0.00  0.00     0.000 A 
ENDROOT
BRANCH   3  13
ATOM     13  C   UNL d   1     -48.144  12.827  22.655  0.00  0.00     0.120 C 
BRANCH  13  14
ATOM     14  N   UNL d   1     -47.939  12.775  21.858  0.00  0.00    -0.205 NA
ATOM     15  C   UNL d   1     -47.637  13.449  21.459  0.00  0.00     0.279 C 
ATOM     16  O   UNL d   1     -47.429  13.412  20.666  0.00  0.00    -0.265 OA
BRANCH  15  17
ATOM     17  C   UNL d   1     -47.553  14.144  21.876  0.00  0.00     0.058 A 
ATOM     18  C   UNL d   1     -46.911  14.297  22.347  0.00  0.00     0.005 A 
ATOM     19  C   UNL d   1     -46.822  14.998  22.771  0.00  0.00     0.000 A 
ATOM     20  C   UNL d   1     -47.429  15.582  22.709  0.00  0.00     0.000 A 
ATOM     21  C   UNL d   1     -48.090  15.431  22.228  0.00  0.00     0.000 A 
ATOM     22  C   UNL d   1     -48.139  14.728  21.827  0.00  0.00     0.005 A 
ENDBRANCH  15  17
ENDBRANCH  13  14
ENDBRANCH   3  13
BRANCH   2  23
ATOM     23  C   UNL d   1     -46.992  10.898  23.667  0.00  0.00     0.142 C 
BRANCH  23  24
ATOM     24  N   UNL d   1     -46.168  10.883  23.621  0.00  0.00    -0.295 N 
ATOM     25  C   UNL d   1     -45.764  11.595  23.495  0.00  0.00     0.107 A 
ATOM     26  C   UNL d   1     -44.932  11.610  23.443  0.00  0.00     0.142 A 
ATOM     27  O   UNL d   1     -44.521  10.898  23.521  0.00  0.00    -0.300 OA
ATOM     28  C   UNL d   1     -44.917  10.170  23.648  0.00  0.00     0.142 A 
ATOM     29  C   UNL d   1     -45.749  10.171  23.697  0.00  0.00     0.107 A 
ENDBRANCH  23  24
ENDBRANCH   2  23
TORSDOF 5
ENDMDL
