MODEL 1
REMARK VINA RESULT:      76.3      0.000      0.000
REMARK  3 active torsions:
REMARK  status: ('A' for Active; 'I' for Inactive)
REMARK    1  A    between atoms: N_4  and  C_1 
REMARK    2  A    between atoms: C_9  and  C_3 
REMARK    3  A    between atoms: C_7  and  N_4 
ROOT
ATOM      1  C   UNL d   1      58.883  49.493  51.135  0.00  0.00     0.196 A 
ATOM      2  N   UNL d   1      58.705  49.618  51.955  0.00  0.00    -0.221 NA
ATOM      3  C   UNL d   1      57.924  49.481  52.031  0.00  0.00     0.090 A 
ATOM      4  S   UNL d   1      58.221  49.287  50.733  0.00  0.00    -0.046 SA
ATOM      5  C   UNL d   1      57.599  49.274  51.291  0.00  0.00     0.058 A 
ENDROOT
BRANCH   1   6
ATOM      6  N   UNL d   1      59.651  49.565  50.740  0.00  0.00    -0.202 NA
BRANCH   6   7
ATOM      7  C   UNL d   1      60.245  48.996  50.885  0.00  0.00     0.165 A 
ATOM      8  N   UNL d   1      60.980  49.271  50.601  0.00  0.00    -0.225 NA
ATOM      9  C   UNL d   1      61.719  48.864  50.639  0.00  0.00     0.101 A 
ATOM     10  C   UNL d   1      61.894  48.136  50.947  0.00  0.00     0.021 A 
ATOM     11  C   UNL d   1      61.371  47.595  51.312  0.00  0.00     0.002 A 
ATOM     12  C   UNL d   1      60.569  47.656  51.451  0.00  0.00     0.003 A 
ATOM     13  C   UNL d   1      60.057  48.296  51.256  0.00  0.00     0.039 A 
ENDBRANCH   6   7
ENDBRANCH   1   6
BRANCH   3  14
ATOM     14  C   UNL d   1      57.472  49.527  52.714  0.00  0.00     0.018 A 
ATOM     15  C   UNL d   1      57.844  49.603  53.439  0.00  0.00     0.002 A 
ATOM     16  C   UNL d   1      57.401  49.649  54.124  0.00  0.00     0.007 A 
ATOM     17  C   UNL d   1      56.561  49.618  54.095  0.00  0.00     0.035 A 
ATOM     18  C   UNL d   1      56.186  49.540  53.358  0.00  0.00     0.007 A 
ATOM     19 BR   UNL d   1      56.072  49.660  54.759  0.00  0.00    -0.049 Br
ATOM     20  C   UNL d   1      56.637  49.495  52.675  0.00  0.00     0.002 A 
ENDBRANCH   3  14
TORSDOF 3
ENDMDL
MODEL 2
REMARK VINA RESULT:      76.9      9.340     10.226
REMARK  3 active torsions:
REMARK  status: ('A' for Active; 'I' for Inactive)
REMARK    1  A    between atoms: N_4  and  C_1 
REMARK    2  A    between atoms: C_9  and  C_3 
REMARK    3  A    between atoms: C_7  and  N_4 
ROOT
ATOM      1  C   UNL d   1      56.782  39.436  54.604  0.00  0.00     0.196 A 
ATOM      2  N   UNL d   1      57.446  39.927  54.797  0.00  0.00    -0.221 NA
ATOM      3  C   UNL d   1      57.986  39.443  55.129  0.00  0.00     0.090 A 
ATOM      4  S   UNL d   1      56.924  38.676  54.817  0.00  0.00    -0.046 SA
ATOM      5  C   UNL d   1      57.689  38.663  55.153  0.00  0.00     0.058 A 
ENDROOT
BRANCH   1   6
ATOM      6  N   UNL d   1      56.036  39.671  54.232  0.00  0.00    -0.202 NA
BRANCH   6   7
ATOM      7  C   UNL d   1      56.045  40.204  53.589  0.00  0.00     0.165 A 
ATOM      8  N   UNL d   1      56.067  39.784  52.869  0.00  0.00    -0.225 NA
ATOM      9  C   UNL d   1      56.082  40.115  52.092  0.00  0.00     0.101 A 
ATOM     10  C   UNL d   1      56.079  40.889  51.859  0.00  0.00     0.021 A 
ATOM     11  C   UNL d   1      56.060  41.570  52.346  0.00  0.00     0.002 A 
ATOM     12  C   UNL d   1      56.040  41.631  53.159  0.00  0.00     0.003 A 
ATOM     13  C   UNL d   1      56.033  41.007  53.725  0.00  0.00     0.039 A 
ENDBRANCH   6   7
ENDBRANCH   1   6
BRANCH   3  14
ATOM     14  C   UNL d   1      58.729  39.642  55.414  0.00  0.00     0.018 A 
ATOM     15  C   UNL d   1      59.070  39.185  56.001  0.00  0.00     0.002 A 
ATOM     16  C   UNL d   1      59.810  39.376  56.290  0.00  0.00     0.007 A 
ATOM     17  C   UNL d   1      60.229  40.042  55.991  0.00  0.00     0.035 A 
ATOM     18  C   UNL d   1      59.880  40.504  55.395  0.00  0.00     0.007 A 
ATOM     19 BR   UNL d   1      60.977  40.275  56.251  0.00  0.00    -0.049 Br
ATOM     20  C   UNL d   1      59.137  40.305  55.110  0.00  0.00     0.002 A 
ENDBRANCH   3  14
TORSDOF 3
ENDMDL
