MODEL 1
REMARK VINA RESULT:      -9.1      0.000      0.000
REMARK  2 active torsions:
REMARK  status: ('A' for Active; 'I' for Inactive)
REMARK    1  A    between atoms: C_6  and  C_1 
REMARK    2  A    between atoms: O_12  and  C_9 
ROOT
ATOM      1  C   UNL d   1      53.315  31.144  53.527  0.00  0.00     0.128 A 
ATOM      2  C   UNL d   1      52.909  31.632  53.000  0.00  0.00     0.306 A 
ATOM      3  O   UNL d   1      52.908  32.432  53.110  0.00  0.00    -0.271 OA
ATOM      4  C   UNL d   1      53.708  31.469  54.151  0.00  0.00     0.013 A 
ATOM      5  C   UNL d   1      53.314  32.787  53.758  0.00  0.00     0.125 A 
ATOM      6  C   UNL d   1      53.720  32.299  54.285  0.00  0.00     0.025 A 
ATOM      7  O   UNL d   1      52.514  31.310  52.374  0.00  0.00    -0.259 OA
ATOM      8  C   UNL d   1      53.319  33.606  53.880  0.00  0.00     0.117 A 
ATOM      9  C   UNL d   1      54.119  32.643  54.920  0.00  0.00     0.002 A 
ATOM     10  C   UNL d   1      54.127  33.461  55.047  0.00  0.00     0.002 A 
ATOM     11  C   UNL d   1      53.722  33.949  54.520  0.00  0.00     0.026 A 
ENDROOT
BRANCH   1  12
ATOM     12  C   UNL d   1      53.330  30.329  53.434  0.00  0.00     0.216 C 
ATOM     13  O   UNL d   1      52.656  29.855  53.632  0.00  0.00    -0.644 OA
ATOM     14  O   UNL d   1      54.017  30.038  53.149  0.00  0.00    -0.644 OA
ENDBRANCH   1  12
BRANCH   8  15
ATOM     15  O   UNL d   1      52.918  34.088  53.358  0.00  0.00    -0.326 OA
ATOM     16  C   UNL d   1      52.816  34.874  53.525  0.00  0.00     0.181 C 
ENDBRANCH   8  15
TORSDOF 2
ENDMDL
MODEL 2
REMARK VINA RESULT:      -8.9      1.884      2.957
REMARK  2 active torsions:
REMARK  status: ('A' for Active; 'I' for Inactive)
REMARK    1  A    between atoms: C_6  and  C_1 
REMARK    2  A    between atoms: O_12  and  C_9 
ROOT
ATOM      1  C   UNL d   1      54.225  33.563  54.810  0.00  0.00     0.128 A 
ATOM      2  C   UNL d   1      53.621  34.125  54.821  0.00  0.00     0.306 A 
ATOM      3  O   UNL d   1      52.962  34.018  54.367  0.00  0.00    -0.271 OA
ATOM      4  C   UNL d   1      54.154  32.909  54.346  0.00  0.00     0.013 A 
ATOM      5  C   UNL d   1      52.873  33.338  53.876  0.00  0.00     0.125 A 
ATOM      6  C   UNL d   1      53.477  32.776  53.866  0.00  0.00     0.025 A 
ATOM      7  O   UNL d   1      53.689  34.783  55.285  0.00  0.00    -0.259 OA
ATOM      8  C   UNL d   1      52.201  33.218  53.408  0.00  0.00     0.117 A 
ATOM      9  C   UNL d   1      53.393  32.109  53.387  0.00  0.00     0.002 A 
ATOM     10  C   UNL d   1      52.723  31.984  52.916  0.00  0.00     0.002 A 
ATOM     11  C   UNL d   1      52.120  32.546  52.926  0.00  0.00     0.026 A 
ENDROOT
BRANCH   1  12
ATOM     12  C   UNL d   1      54.904  33.653  55.264  0.00  0.00     0.216 C 
ATOM     13  O   UNL d   1      55.560  34.107  54.981  0.00  0.00    -0.644 OA
ATOM     14  O   UNL d   1      54.883  33.283  55.971  0.00  0.00    -0.644 OA
ENDBRANCH   1  12
BRANCH   8  15
ATOM     15  O   UNL d   1      51.604  33.774  53.418  0.00  0.00    -0.326 OA
ATOM     16  C   UNL d   1      50.917  33.642  53.012  0.00  0.00     0.181 C 
ENDBRANCH   8  15
TORSDOF 2
ENDMDL
MODEL 3
REMARK VINA RESULT:      -8.8      1.909      2.993
REMARK  2 active torsions:
REMARK  status: ('A' for Active; 'I' for Inactive)
REMARK    1  A    between atoms: C_6  and  C_1 
REMARK    2  A    between atoms: O_12  and  C_9 
ROOT
ATOM      1  C   UNL d   1      51.858  33.915  52.984  0.00  0.00     0.128 A 
ATOM      2  C   UNL d   1      52.240  34.465  53.466  0.00  0.00     0.306 A 
ATOM      3  O   UNL d   1      52.902  34.250  53.877  0.00  0.00    -0.271 OA
ATOM      4  C   UNL d   1      52.147  33.165  52.926  0.00  0.00     0.013 A 
ATOM      5  C   UNL d   1      53.216  33.469  53.827  0.00  0.00     0.125 A 
ATOM      6  C   UNL d   1      52.834  32.919  53.345  0.00  0.00     0.025 A 
ATOM      7  O   UNL d   1      51.954  35.217  53.526  0.00  0.00    -0.259 OA
ATOM      8  C   UNL d   1      53.893  33.239  54.243  0.00  0.00     0.117 A 
ATOM      9  C   UNL d   1      53.138  32.154  53.293  0.00  0.00     0.002 A 
ATOM     10  C   UNL d   1      53.815  31.918  53.708  0.00  0.00     0.002 A 
ATOM     11  C   UNL d   1      54.197  32.468  54.189  0.00  0.00     0.026 A 
ENDROOT
BRANCH   1  12
ATOM     12  C   UNL d   1      51.185  34.112  52.557  0.00  0.00     0.216 C 
ATOM     13  O   UNL d   1      50.419  34.097  52.920  0.00  0.00    -0.644 OA
ATOM     14  O   UNL d   1      51.320  34.311  51.796  0.00  0.00    -0.644 OA
ENDBRANCH   1  12
BRANCH   8  15
ATOM     15  O   UNL d   1      54.271  33.782  54.720  0.00  0.00    -0.326 OA
ATOM     16  C   UNL d   1      54.933  33.571  55.134  0.00  0.00     0.181 C 
ENDBRANCH   8  15
TORSDOF 2
ENDMDL
MODEL 4
REMARK VINA RESULT:      -8.6      1.020      3.295
REMARK  2 active torsions:
REMARK  status: ('A' for Active; 'I' for Inactive)
REMARK    1  A    between atoms: C_6  and  C_1 
REMARK    2  A    between atoms: O_12  and  C_9 
ROOT
ATOM      1  C   UNL d   1      53.051  34.725  54.119  0.00  0.00     0.128 A 
ATOM      2  C   UNL d   1      52.682  34.448  53.435  0.00  0.00     0.306 A 
ATOM      3  O   UNL d   1      52.744  33.669  53.230  0.00  0.00    -0.271 OA
ATOM      4  C   UNL d   1      53.472  34.216  54.580  0.00  0.00     0.013 A 
ATOM      5  C   UNL d   1      53.181  33.124  53.703  0.00  0.00     0.125 A 
ATOM      6  C   UNL d   1      53.550  33.402  54.387  0.00  0.00     0.025 A 
ATOM      7  O   UNL d   1      52.259  34.955  52.970  0.00  0.00    -0.259 OA
ATOM      8  C   UNL d   1      53.251  32.325  53.502  0.00  0.00     0.117 A 
ATOM      9  C   UNL d   1      53.978  32.872  54.852  0.00  0.00     0.002 A 
ATOM     10  C   UNL d   1      54.052  32.070  54.656  0.00  0.00     0.002 A 
ATOM     11  C   UNL d   1      53.683  31.793  53.972  0.00  0.00     0.026 A 
ENDROOT
BRANCH   1  12
ATOM     12  C   UNL d   1      53.000  35.513  54.346  0.00  0.00     0.216 C 
ATOM     13  O   UNL d   1      52.298  35.818  54.707  0.00  0.00    -0.644 OA
ATOM     14  O   UNL d   1      53.656  35.944  54.196  0.00  0.00    -0.644 OA
ENDBRANCH   1  12
BRANCH   8  15
ATOM     15  O   UNL d   1      52.887  32.050  52.826  0.00  0.00    -0.326 OA
ATOM     16  C   UNL d   1      52.766  31.257  52.720  0.00  0.00     0.181 C 
ENDBRANCH   8  15
TORSDOF 2
ENDMDL
MODEL 5
REMARK VINA RESULT:      -8.6      1.297      3.356
REMARK  2 active torsions:
REMARK  status: ('A' for Active; 'I' for Inactive)
REMARK    1  A    between atoms: C_6  and  C_1 
REMARK    2  A    between atoms: O_12  and  C_9 
ROOT
ATOM      1  C   UNL d   1      53.773  33.557  54.649  0.00  0.00     0.128 A 
ATOM      2  C   UNL d   1      54.096  32.875  54.982  0.00  0.00     0.306 A 
ATOM      3  O   UNL d   1      53.943  32.153  54.653  0.00  0.00    -0.271 OA
ATOM      4  C   UNL d   1      53.305  33.499  53.995  0.00  0.00     0.013 A 
ATOM      5  C   UNL d   1      53.456  32.076  53.969  0.00  0.00     0.125 A 
ATOM      6  C   UNL d   1      53.133  32.758  53.636  0.00  0.00     0.025 A 
ATOM      7  O   UNL d   1      54.565  32.928  55.637  0.00  0.00    -0.259 OA
ATOM      8  C   UNL d   1      53.293  31.342  53.624  0.00  0.00     0.117 A 
ATOM      9  C   UNL d   1      52.656  32.688  52.967  0.00  0.00     0.002 A 
ATOM     10  C   UNL d   1      52.489  31.956  52.617  0.00  0.00     0.002 A 
ATOM     11  C   UNL d   1      52.813  31.274  52.950  0.00  0.00     0.026 A 
ENDROOT
BRANCH   1  12
ATOM     12  C   UNL d   1      53.915  34.300  54.967  0.00  0.00     0.216 C 
ATOM     13  O   UNL d   1      53.308  34.719  55.383  0.00  0.00    -0.644 OA
ATOM     14  O   UNL d   1      54.655  34.576  54.850  0.00  0.00    -0.644 OA
ENDBRANCH   1  12
BRANCH   8  15
ATOM     15  O   UNL d   1      53.613  30.668  53.953  0.00  0.00    -0.326 OA
ATOM     16  C   UNL d   1      53.394  29.937  53.681  0.00  0.00     0.181 C 
ENDBRANCH   8  15
TORSDOF 2
ENDMDL
MODEL 6
REMARK VINA RESULT:      -8.4      0.988      1.617
REMARK  2 active torsions:
REMARK  status: ('A' for Active; 'I' for Inactive)
REMARK    1  A    between atoms: C_6  and  C_1 
REMARK    2  A    between atoms: O_12  and  C_9 
ROOT
ATOM      1  C   UNL d   1      53.007  31.003  53.210  0.00  0.00     0.128 A 
ATOM      2  C   UNL d   1      53.647  30.934  53.726  0.00  0.00     0.306 A 
ATOM      3  O   UNL d   1      53.960  31.594  54.073  0.00  0.00    -0.271 OA
ATOM      4  C   UNL d   1      52.696  31.730  53.055  0.00  0.00     0.013 A 
ATOM      5  C   UNL d   1      53.646  32.361  53.919  0.00  0.00     0.125 A 
ATOM      6  C   UNL d   1      53.005  32.430  53.403  0.00  0.00     0.025 A 
ATOM      7  O   UNL d   1      53.961  30.207  53.885  0.00  0.00    -0.259 OA
ATOM      8  C   UNL d   1      53.958  33.042  54.269  0.00  0.00     0.117 A 
ATOM      9  C   UNL d   1      52.695  33.179  53.251  0.00  0.00     0.002 A 
ATOM     10  C   UNL d   1      53.004  33.865  53.597  0.00  0.00     0.002 A 
ATOM     11  C   UNL d   1      53.644  33.796  54.113  0.00  0.00     0.026 A 
ENDROOT
BRANCH   1  12
ATOM     12  C   UNL d   1      52.674  30.346  52.848  0.00  0.00     0.216 C 
ATOM     13  O   UNL d   1      52.128  29.849  53.263  0.00  0.00    -0.644 OA
ATOM     14  O   UNL d   1      52.908  30.228  52.093  0.00  0.00    -0.644 OA
ENDBRANCH   1  12
BRANCH   8  15
ATOM     15  O   UNL d   1      54.591  32.974  54.779  0.00  0.00    -0.326 OA
ATOM     16  C   UNL d   1      54.904  33.632  55.132  0.00  0.00     0.181 C 
ENDBRANCH   8  15
TORSDOF 2
ENDMDL
MODEL 7
REMARK VINA RESULT:      -8.1      1.016      1.381
REMARK  2 active torsions:
REMARK  status: ('A' for Active; 'I' for Inactive)
REMARK    1  A    between atoms: C_6  and  C_1 
REMARK    2  A    between atoms: O_12  and  C_9 
ROOT
ATOM      1  C   UNL d   1      53.315  31.773  53.471  0.00  0.00     0.128 A 
ATOM      2  C   UNL d   1      52.747  31.764  52.873  0.00  0.00     0.306 A 
ATOM      3  O   UNL d   1      52.345  32.440  52.688  0.00  0.00    -0.271 OA
ATOM      4  C   UNL d   1      53.465  32.457  53.869  0.00  0.00     0.013 A 
ATOM      5  C   UNL d   1      52.492  33.164  53.095  0.00  0.00     0.125 A 
ATOM      6  C   UNL d   1      53.060  33.172  53.693  0.00  0.00     0.025 A 
ATOM      7  O   UNL d   1      52.593  31.080  52.472  0.00  0.00    -0.259 OA
ATOM      8  C   UNL d   1      52.086  33.861  52.913  0.00  0.00     0.117 A 
ATOM      9  C   UNL d   1      53.206  33.878  54.094  0.00  0.00     0.002 A 
ATOM     10  C   UNL d   1      52.803  34.580  53.916  0.00  0.00     0.002 A 
ATOM     11  C   UNL d   1      52.235  34.571  53.318  0.00  0.00     0.026 A 
ENDROOT
BRANCH   1  12
ATOM     12  C   UNL d   1      53.735  31.098  53.676  0.00  0.00     0.216 C 
ATOM     13  O   UNL d   1      53.416  30.535  54.222  0.00  0.00    -0.644 OA
ATOM     14  O   UNL d   1      54.447  31.028  53.320  0.00  0.00    -0.644 OA
ENDBRANCH   1  12
BRANCH   8  15
ATOM     15  O   UNL d   1      51.525  33.853  52.321  0.00  0.00    -0.326 OA
ATOM     16  C   UNL d   1      50.938  34.410  52.307  0.00  0.00     0.181 C 
ENDBRANCH   8  15
TORSDOF 2
ENDMDL
