MODEL 1
REMARK VINA RESULT:     -10.0      0.000      0.000
REMARK  4 active torsions:
REMARK  status: ('A' for Active; 'I' for Inactive)
REMARK    1  A    between atoms: C_3  and  C_1 
REMARK    2  A    between atoms: C_11  and  N_2 
REMARK    3  A    between atoms: C_12  and  C_11 
REMARK       I    between atoms: N_13  and  C_12 
REMARK    4  A    between atoms: C_16  and  N_13 
ROOT
ATOM      1  C   UNL d   1      52.552  33.699  53.948  0.00  0.00     0.171 A 
ATOM      2  N   UNL d   1      53.097  33.082  54.050  0.00  0.00    -0.284 N 
ATOM      3  N   UNL d   1      52.836  34.358  54.363  0.00  0.00    -0.225 NA
ATOM      4  C   UNL d   1      53.708  33.362  54.524  0.00  0.00     0.083 A 
ATOM      5  C   UNL d   1      53.548  34.148  54.716  0.00  0.00     0.099 A 
ATOM      6  C   UNL d   1      54.414  32.992  54.815  0.00  0.00     0.019 A 
ATOM      7  C   UNL d   1      54.090  34.577  55.203  0.00  0.00     0.021 A 
ATOM      8  C   UNL d   1      54.917  33.424  55.278  0.00  0.00     0.002 A 
ATOM      9  C   UNL d   1      54.756  34.210  55.471  0.00  0.00     0.002 A 
ENDROOT
BRANCH   2  10
ATOM     10  C   UNL d   1      53.026  32.327  53.729  0.00  0.00     0.145 C 
BRANCH  10  11
ATOM     11  C   UNL d   1      53.594  32.064  53.205  0.00  0.00     0.297 C 
ATOM     12  N   UNL d   1      53.680  31.254  53.059  0.00  0.00    -0.207 NA
ATOM     13  O   UNL d   1      54.094  32.599  52.810  0.00  0.00    -0.264 OA
BRANCH  12  14
ATOM     14  C   UNL d   1      53.333  30.551  53.305  0.00  0.00     0.085 A 
ATOM     15  C   UNL d   1      52.658  30.197  52.983  0.00  0.00     0.019 A 
ATOM     16  C   UNL d   1      52.511  29.505  53.399  0.00  0.00     0.002 A 
ATOM     17  C   UNL d   1      53.084  29.415  53.982  0.00  0.00     0.002 A 
ATOM     18  C   UNL d   1      53.583  30.056  53.920  0.00  0.00     0.019 A 
ENDBRANCH  12  14
ENDBRANCH  10  11
ENDBRANCH   2  10
BRANCH   1  19
ATOM     19  C   UNL d   1      51.846  33.663  53.507  0.00  0.00     0.184 A 
ATOM     20  C   UNL d   1      51.649  34.149  52.870  0.00  0.00     0.235 A 
ATOM     21  N   UNL d   1      50.899  33.921  52.599  0.00  0.00    -0.081 NA
ATOM     22  N   UNL d   1      52.110  34.755  52.555  0.00  0.00    -0.123 N 
ATOM     23  O   UNL d   1      50.637  33.296  53.069  0.00  0.00    -0.104 OA
ATOM     24  N   UNL d   1      51.224  33.134  53.634  0.00  0.00    -0.097 NA
ENDBRANCH   1  19
TORSDOF 4
ENDMDL
MODEL 2
REMARK VINA RESULT:     -10.0      1.066      2.668
REMARK  4 active torsions:
REMARK  status: ('A' for Active; 'I' for Inactive)
REMARK    1  A    between atoms: C_3  and  C_1 
REMARK    2  A    between atoms: C_11  and  N_2 
REMARK    3  A    between atoms: C_12  and  C_11 
REMARK       I    between atoms: N_13  and  C_12 
REMARK    4  A    between atoms: C_16  and  N_13 
ROOT
ATOM      1  C   UNL d   1      53.208  33.578  53.832  0.00  0.00     0.171 A 
ATOM      2  N   UNL d   1      52.670  32.999  53.579  0.00  0.00    -0.284 N 
ATOM      3  N   UNL d   1      52.827  34.312  53.788  0.00  0.00    -0.225 NA
ATOM      4  C   UNL d   1      51.967  33.378  53.382  0.00  0.00     0.083 A 
ATOM      5  C   UNL d   1      52.064  34.187  53.511  0.00  0.00     0.099 A 
ATOM      6  C   UNL d   1      51.226  33.082  53.093  0.00  0.00     0.019 A 
ATOM      7  C   UNL d   1      51.422  34.714  53.352  0.00  0.00     0.021 A 
ATOM      8  C   UNL d   1      50.628  33.607  52.949  0.00  0.00     0.002 A 
ATOM      9  C   UNL d   1      50.725  34.416  53.078  0.00  0.00     0.002 A 
ENDROOT
BRANCH   2  10
ATOM     10  C   UNL d   1      52.825  32.191  53.537  0.00  0.00     0.145 C 
BRANCH  10  11
ATOM     11  C   UNL d   1      52.834  31.826  52.807  0.00  0.00     0.297 C 
ATOM     12  N   UNL d   1      52.898  31.003  52.756  0.00  0.00    -0.207 NA
ATOM     13  O   UNL d   1      52.780  32.270  52.105  0.00  0.00    -0.264 OA
BRANCH  12  14
ATOM     14  C   UNL d   1      52.963  30.365  53.269  0.00  0.00     0.085 A 
ATOM     15  C   UNL d   1      52.341  29.903  53.561  0.00  0.00     0.019 A 
ATOM     16  C   UNL d   1      52.659  29.329  54.053  0.00  0.00     0.002 A 
ATOM     17  C   UNL d   1      53.477  29.420  54.079  0.00  0.00     0.002 A 
ATOM     18  C   UNL d   1      53.656  30.054  53.598  0.00  0.00     0.019 A 
ENDBRANCH  12  14
ENDBRANCH  10  11
ENDBRANCH   2  10
BRANCH   1  19
ATOM     19  C   UNL d   1      53.991  33.444  54.085  0.00  0.00     0.184 A 
ATOM     20  C   UNL d   1      54.253  33.451  54.867  0.00  0.00     0.235 A 
ATOM     21  N   UNL d   1      55.067  33.292  54.863  0.00  0.00    -0.081 NA
ATOM     22  N   UNL d   1      53.793  33.590  55.536  0.00  0.00    -0.123 N 
ATOM     23  O   UNL d   1      55.303  33.188  54.079  0.00  0.00    -0.104 OA
ATOM     24  N   UNL d   1      54.635  33.282  53.595  0.00  0.00    -0.097 NA
ENDBRANCH   1  19
TORSDOF 4
ENDMDL
MODEL 3
REMARK VINA RESULT:      -9.3      1.282      3.655
REMARK  4 active torsions:
REMARK  status: ('A' for Active; 'I' for Inactive)
REMARK    1  A    between atoms: C_3  and  C_1 
REMARK    2  A    between atoms: C_11  and  N_2 
REMARK    3  A    between atoms: C_12  and  C_11 
REMARK       I    between atoms: N_13  and  C_12 
REMARK    4  A    between atoms: C_16  and  N_13 
ROOT
ATOM      1  C   UNL d   1      53.631  32.609  54.339  0.00  0.00     0.171 A 
ATOM      2  N   UNL d   1      53.037  32.513  53.768  0.00  0.00    -0.284 N 
ATOM      3  N   UNL d   1      53.997  31.873  54.447  0.00  0.00    -0.225 NA
ATOM      4  C   UNL d   1      53.041  31.726  53.529  0.00  0.00     0.083 A 
ATOM      5  C   UNL d   1      53.633  31.332  53.947  0.00  0.00     0.099 A 
ATOM      6  C   UNL d   1      52.568  31.302  52.967  0.00  0.00     0.019 A 
ATOM      7  C   UNL d   1      53.762  30.507  53.810  0.00  0.00     0.021 A 
ATOM      8  C   UNL d   1      52.712  30.514  52.854  0.00  0.00     0.002 A 
ATOM      9  C   UNL d   1      53.304  30.120  53.272  0.00  0.00     0.002 A 
ENDROOT
BRANCH   2  10
ATOM     10  C   UNL d   1      52.537  33.109  53.496  0.00  0.00     0.145 C 
BRANCH  10  11
ATOM     11  C   UNL d   1      52.601  33.357  52.721  0.00  0.00     0.297 C 
ATOM     12  N   UNL d   1      51.987  33.790  52.373  0.00  0.00    -0.207 NA
ATOM     13  O   UNL d   1      53.277  33.184  52.269  0.00  0.00    -0.264 OA
BRANCH  12  14
ATOM     14  C   UNL d   1      51.249  34.080  52.588  0.00  0.00     0.085 A 
ATOM     15  C   UNL d   1      51.099  34.760  53.036  0.00  0.00     0.019 A 
ATOM     16  C   UNL d   1      50.286  34.838  53.115  0.00  0.00     0.002 A 
ATOM     17  C   UNL d   1      49.917  34.216  52.724  0.00  0.00     0.002 A 
ATOM     18  C   UNL d   1      50.509  33.757  52.404  0.00  0.00     0.019 A 
ENDBRANCH  12  14
ENDBRANCH  10  11
ENDBRANCH   2  10
BRANCH   1  19
ATOM     19  C   UNL d   1      53.823  33.317  54.734  0.00  0.00     0.184 A 
ATOM     20  C   UNL d   1      54.577  33.647  54.793  0.00  0.00     0.235 A 
ATOM     21  N   UNL d   1      54.514  34.348  55.232  0.00  0.00    -0.081 NA
ATOM     22  N   UNL d   1      55.272  33.339  54.475  0.00  0.00    -0.123 N 
ATOM     23  O   UNL d   1      53.722  34.447  55.441  0.00  0.00    -0.104 OA
ATOM     24  N   UNL d   1      53.292  33.807  55.132  0.00  0.00    -0.097 NA
ENDBRANCH   1  19
TORSDOF 4
ENDMDL
MODEL 4
REMARK VINA RESULT:      -8.7      1.091      3.206
REMARK  4 active torsions:
REMARK  status: ('A' for Active; 'I' for Inactive)
REMARK    1  A    between atoms: C_3  and  C_1 
REMARK    2  A    between atoms: C_11  and  N_2 
REMARK    3  A    between atoms: C_12  and  C_11 
REMARK       I    between atoms: N_13  and  C_12 
REMARK    4  A    between atoms: C_16  and  N_13 
ROOT
ATOM      1  C   UNL d   1      53.449  32.207  53.726  0.00  0.00     0.171 A 
ATOM      2  N   UNL d   1      53.147  32.976  53.800  0.00  0.00    -0.284 N 
ATOM      3  N   UNL d   1      54.085  32.134  54.252  0.00  0.00    -0.225 NA
ATOM      4  C   UNL d   1      53.595  33.369  54.367  0.00  0.00     0.083 A 
ATOM      5  C   UNL d   1      54.173  32.850  54.646  0.00  0.00     0.099 A 
ATOM      6  C   UNL d   1      53.551  34.157  54.677  0.00  0.00     0.019 A 
ATOM      7  C   UNL d   1      54.717  33.111  55.239  0.00  0.00     0.021 A 
ATOM      8  C   UNL d   1      54.082  34.383  55.244  0.00  0.00     0.002 A 
ATOM      9  C   UNL d   1      54.660  33.864  55.522  0.00  0.00     0.002 A 
ENDROOT
BRANCH   2  10
ATOM     10  C   UNL d   1      52.510  33.281  53.376  0.00  0.00     0.145 C 
BRANCH  10  11
ATOM     11  C   UNL d   1      52.635  33.908  52.869  0.00  0.00     0.297 C 
ATOM     12  N   UNL d   1      51.991  34.336  52.573  0.00  0.00    -0.207 NA
ATOM     13  O   UNL d   1      53.404  34.128  52.639  0.00  0.00    -0.264 OA
BRANCH  12  14
ATOM     14  C   UNL d   1      51.173  34.326  52.638  0.00  0.00     0.085 A 
ATOM     15  C   UNL d   1      50.639  34.007  52.091  0.00  0.00     0.019 A 
ATOM     16  C   UNL d   1      49.880  34.120  52.381  0.00  0.00     0.002 A 
ATOM     17  C   UNL d   1      49.923  34.507  53.106  0.00  0.00     0.002 A 
ATOM     18  C   UNL d   1      50.715  34.630  53.257  0.00  0.00     0.019 A 
ENDBRANCH  12  14
ENDBRANCH  10  11
ENDBRANCH   2  10
BRANCH   1  19
ATOM     19  C   UNL d   1      53.164  31.615  53.214  0.00  0.00     0.184 A 
ATOM     20  C   UNL d   1      52.924  30.857  53.438  0.00  0.00     0.235 A 
ATOM     21  N   UNL d   1      52.683  30.455  52.754  0.00  0.00    -0.081 NA
ATOM     22  N   UNL d   1      52.923  30.550  54.202  0.00  0.00    -0.123 N 
ATOM     23  O   UNL d   1      52.775  30.965  52.112  0.00  0.00    -0.104 OA
ATOM     24  N   UNL d   1      53.073  31.686  52.396  0.00  0.00    -0.097 NA
ENDBRANCH   1  19
TORSDOF 4
ENDMDL
MODEL 5
REMARK VINA RESULT:      -8.6      0.957      3.248
REMARK  4 active torsions:
REMARK  status: ('A' for Active; 'I' for Inactive)
REMARK    1  A    between atoms: C_3  and  C_1 
REMARK    2  A    between atoms: C_11  and  N_2 
REMARK    3  A    between atoms: C_12  and  C_11 
REMARK       I    between atoms: N_13  and  C_12 
REMARK    4  A    between atoms: C_16  and  N_13 
ROOT
ATOM      1  C   UNL d   1      52.372  32.244  52.904  0.00  0.00     0.171 A 
ATOM      2  N   UNL d   1      53.024  32.071  53.386  0.00  0.00    -0.284 N 
ATOM      3  N   UNL d   1      52.056  31.525  52.639  0.00  0.00    -0.225 NA
ATOM      4  C   UNL d   1      53.106  31.253  53.416  0.00  0.00     0.083 A 
ATOM      5  C   UNL d   1      52.509  30.916  52.956  0.00  0.00     0.099 A 
ATOM      6  C   UNL d   1      53.663  30.753  53.816  0.00  0.00     0.019 A 
ATOM      7  C   UNL d   1      52.460  30.075  52.888  0.00  0.00     0.021 A 
ATOM      8  C   UNL d   1      53.595  29.952  53.734  0.00  0.00     0.002 A 
ATOM      9  C   UNL d   1      52.998  29.615  53.274  0.00  0.00     0.002 A 
ENDROOT
BRANCH   2  10
ATOM     10  C   UNL d   1      53.499  32.629  53.763  0.00  0.00     0.145 C 
BRANCH  10  11
ATOM     11  C   UNL d   1      54.288  32.679  53.562  0.00  0.00     0.297 C 
ATOM     12  N   UNL d   1      54.813  33.103  54.042  0.00  0.00    -0.207 NA
ATOM     13  O   UNL d   1      54.581  32.309  52.876  0.00  0.00    -0.264 OA
BRANCH  12  14
ATOM     14  C   UNL d   1      54.783  33.538  54.738  0.00  0.00     0.085 A 
ATOM     15  C   UNL d   1      54.666  34.356  54.802  0.00  0.00     0.019 A 
ATOM     16  C   UNL d   1      54.677  34.551  55.599  0.00  0.00     0.002 A 
ATOM     17  C   UNL d   1      54.800  33.870  56.042  0.00  0.00     0.002 A 
ATOM     18  C   UNL d   1      54.864  33.255  55.511  0.00  0.00     0.019 A 
ENDBRANCH  12  14
ENDBRANCH  10  11
ENDBRANCH   2  10
BRANCH   1  19
ATOM     19  C   UNL d   1      52.087  33.004  52.718  0.00  0.00     0.184 A 
ATOM     20  C   UNL d   1      51.422  33.364  53.049  0.00  0.00     0.235 A 
ATOM     21  N   UNL d   1      51.343  34.115  52.705  0.00  0.00    -0.081 NA
ATOM     22  N   UNL d   1      50.923  33.041  53.619  0.00  0.00    -0.123 N 
ATOM     23  O   UNL d   1      51.958  34.214  52.164  0.00  0.00    -0.104 OA
ATOM     24  N   UNL d   1      52.421  33.525  52.171  0.00  0.00    -0.097 NA
ENDBRANCH   1  19
TORSDOF 4
ENDMDL
