MODEL 1
REMARK VINA RESULT:      -4.7      0.000      0.000
REMARK  3 active torsions:
REMARK  status: ('A' for Active; 'I' for Inactive)
REMARK    1  A    between atoms: C_8  and  C_6 
REMARK    2  A    between atoms: C_9  and  C_8 
REMARK       I    between atoms: N_10  and  C_9 
REMARK    3  A    between atoms: C_14  and  N_10 
ROOT
ATOM      1  N   UNL d   1      57.872   0.542  32.478  0.00  0.00    -0.207 NA
ATOM      2  N   UNL d   1      57.175  -0.592  31.459  0.00  0.00    -0.240 NA
ATOM      3  C   UNL d   1      58.051   0.304  31.722  0.00  0.00     0.297 A 
ATOM      4  C   UNL d   1      57.274   0.287  32.985  0.00  0.00     0.086 A 
ATOM      5  C   UNL d   1      56.680  -0.684  32.105  0.00  0.00     0.083 A 
ATOM      6  C   UNL d   1      57.814  -0.080  31.380  0.00  0.00     0.144 A 
ATOM      7  C   UNL d   1      56.693  -0.294  32.836  0.00  0.00     0.035 A 
ATOM      8  O   UNL d   1      58.694   0.682  31.377  0.00  0.00    -0.264 OA
ATOM      9  C   UNL d   1      56.138  -0.470  33.421  0.00  0.00     0.003 A 
ATOM     10  C   UNL d   1      56.106  -1.258  31.958  0.00  0.00     0.019 A 
ATOM     11  C   UNL d   1      57.289   0.679  33.712  0.00  0.00     0.019 A 
ATOM     12  C   UNL d   1      56.731   0.496  34.292  0.00  0.00     0.002 A 
ATOM     13  C   UNL d   1      55.540  -1.442  32.548  0.00  0.00     0.002 A 
ATOM     14  C   UNL d   1      56.157  -0.077  34.145  0.00  0.00     0.000 A 
ATOM     15  C   UNL d   1      55.558  -1.050  33.272  0.00  0.00     0.000 A 
ENDROOT
BRANCH   6  16
ATOM     16  C   UNL d   1      58.187  -0.137  30.648  0.00  0.00     0.086 C 
BRANCH  16  17
ATOM     17  C   UNL d   1      57.783   0.109  29.963  0.00  0.00     0.281 C 
ATOM     18  N   UNL d   1      58.037  -0.149  29.220  0.00  0.00    -0.208 NA
ATOM     19  O   UNL d   1      57.130   0.611  30.023  0.00  0.00    -0.265 OA
BRANCH  18  20
ATOM     20  C   UNL d   1      58.690  -0.651  29.155  0.00  0.00     0.085 A 
ATOM     21  C   UNL d   1      58.585  -1.468  29.171  0.00  0.00     0.019 A 
ATOM     22  C   UNL d   1      59.238  -1.966  29.106  0.00  0.00     0.002 A 
ATOM     23  C   UNL d   1      59.994  -1.647  29.025  0.00  0.00     0.000 A 
ATOM     24  C   UNL d   1      60.095  -0.823  29.009  0.00  0.00     0.002 A 
ATOM     25  C   UNL d   1      60.634  -2.135  28.961  0.00  0.00     0.000 C 
ATOM     26  C   UNL d   1      59.440  -0.330  29.075  0.00  0.00     0.019 A 
ENDBRANCH  18  20
ENDBRANCH  16  17
ENDBRANCH   6  16
TORSDOF 3
ENDMDL
MODEL 2
REMARK VINA RESULT:      -3.7      1.115      4.768
REMARK  3 active torsions:
REMARK  status: ('A' for Active; 'I' for Inactive)
REMARK    1  A    between atoms: C_8  and  C_6 
REMARK    2  A    between atoms: C_9  and  C_8 
REMARK       I    between atoms: N_10  and  C_9 
REMARK    3  A    between atoms: C_14  and  N_10 
ROOT
ATOM      1  N   UNL d   1      58.497  -2.303  29.615  0.00  0.00    -0.207 NA
ATOM      2  N   UNL d   1      59.096  -0.754  29.850  0.00  0.00    -0.240 NA
ATOM      3  C   UNL d   1      58.186  -1.646  29.978  0.00  0.00     0.297 A 
ATOM      4  C   UNL d   1      59.225  -2.405  29.242  0.00  0.00     0.086 A 
ATOM      5  C   UNL d   1      59.734  -1.075  29.446  0.00  0.00     0.083 A 
ATOM      6  C   UNL d   1      58.391  -1.123  30.056  0.00  0.00     0.144 A 
ATOM      7  C   UNL d   1      59.833  -1.841  29.146  0.00  0.00     0.035 A 
ATOM      8  O   UNL d   1      57.435  -1.742  30.296  0.00  0.00    -0.264 OA
ATOM      9  C   UNL d   1      60.526  -2.055  28.752  0.00  0.00     0.003 A 
ATOM     10  C   UNL d   1      60.334  -0.517  29.352  0.00  0.00     0.019 A 
ATOM     11  C   UNL d   1      59.321  -3.170  28.943  0.00  0.00     0.019 A 
ATOM     12  C   UNL d   1      60.017  -3.376  28.550  0.00  0.00     0.002 A 
ATOM     13  C   UNL d   1      61.041  -0.728  28.952  0.00  0.00     0.002 A 
ATOM     14  C   UNL d   1      60.618  -2.818  28.455  0.00  0.00     0.000 A 
ATOM     15  C   UNL d   1      61.133  -1.491  28.656  0.00  0.00     0.000 A 
ENDROOT
BRANCH   6  16
ATOM     16  C   UNL d   1      57.873  -0.628  30.462  0.00  0.00     0.086 C 
BRANCH  16  17
ATOM     17  C   UNL d   1      57.639   0.091  30.114  0.00  0.00     0.281 C 
ATOM     18  N   UNL d   1      57.298   0.682  30.581  0.00  0.00    -0.208 NA
ATOM     19  O   UNL d   1      57.746   0.217  29.306  0.00  0.00    -0.265 OA
BRANCH  18  20
ATOM     20  C   UNL d   1      57.189   0.561  31.391  0.00  0.00     0.085 A 
ATOM     21  C   UNL d   1      56.456   0.319  31.677  0.00  0.00     0.019 A 
ATOM     22  C   UNL d   1      56.350   0.199  32.485  0.00  0.00     0.002 A 
ATOM     23  C   UNL d   1      56.977   0.320  33.006  0.00  0.00     0.000 A 
ATOM     24  C   UNL d   1      57.715   0.563  32.714  0.00  0.00     0.002 A 
ATOM     25  C   UNL d   1      56.874   0.202  33.798  0.00  0.00     0.000 C 
ATOM     26  C   UNL d   1      57.816   0.682  31.907  0.00  0.00     0.019 A 
ENDBRANCH  18  20
ENDBRANCH  16  17
ENDBRANCH   6  16
TORSDOF 3
ENDMDL
MODEL 3
REMARK VINA RESULT:      -2.0      1.017      4.676
REMARK  3 active torsions:
REMARK  status: ('A' for Active; 'I' for Inactive)
REMARK    1  A    between atoms: C_8  and  C_6 
REMARK    2  A    between atoms: C_9  and  C_8 
REMARK       I    between atoms: N_10  and  C_9 
REMARK    3  A    between atoms: C_14  and  N_10 
ROOT
ATOM      1  N   UNL d   1      58.014  -1.596  30.163  0.00  0.00    -0.207 NA
ATOM      2  N   UNL d   1      58.331  -0.024  30.650  0.00  0.00    -0.240 NA
ATOM      3  C   UNL d   1      57.633  -1.097  30.678  0.00  0.00     0.297 A 
ATOM      4  C   UNL d   1      58.692  -1.473  29.712  0.00  0.00     0.086 A 
ATOM      5  C   UNL d   1      58.959  -0.124  30.133  0.00  0.00     0.083 A 
ATOM      6  C   UNL d   1      57.743  -0.565  30.841  0.00  0.00     0.144 A 
ATOM      7  C   UNL d   1      59.163  -0.784  29.676  0.00  0.00     0.035 A 
ATOM      8  O   UNL d   1      56.962  -1.407  31.038  0.00  0.00    -0.264 OA
ATOM      9  C   UNL d   1      59.826  -0.772  29.185  0.00  0.00     0.003 A 
ATOM     10  C   UNL d   1      59.424   0.557  30.099  0.00  0.00     0.019 A 
ATOM     11  C   UNL d   1      58.893  -2.133  29.257  0.00  0.00     0.019 A 
ATOM     12  C   UNL d   1      59.558  -2.113  28.768  0.00  0.00     0.002 A 
ATOM     13  C   UNL d   1      60.099   0.576  29.602  0.00  0.00     0.002 A 
ATOM     14  C   UNL d   1      60.023  -1.432  28.734  0.00  0.00     0.000 A 
ATOM     15  C   UNL d   1      60.296  -0.084  29.151  0.00  0.00     0.000 A 
ENDROOT
BRANCH   6  16
ATOM     16  C   UNL d   1      57.197  -0.273  31.385  0.00  0.00     0.086 C 
BRANCH  16  17
ATOM     17  C   UNL d   1      56.681   0.338  31.156  0.00  0.00     0.281 C 
ATOM     18  N   UNL d   1      56.177   0.682  31.714  0.00  0.00    -0.208 NA
ATOM     19  O   UNL d   1      56.670   0.604  30.375  0.00  0.00    -0.265 OA
BRANCH  18  20
ATOM     20  C   UNL d   1      56.184   0.420  32.498  0.00  0.00     0.085 A 
ATOM     21  C   UNL d   1      56.771   0.679  33.014  0.00  0.00     0.019 A 
ATOM     22  C   UNL d   1      56.775   0.416  33.794  0.00  0.00     0.002 A 
ATOM     23  C   UNL d   1      56.195  -0.105  34.058  0.00  0.00     0.000 A 
ATOM     24  C   UNL d   1      55.605  -0.365  33.534  0.00  0.00     0.002 A 
ATOM     25  C   UNL d   1      56.198  -0.364  34.823  0.00  0.00     0.000 C 
ATOM     26  C   UNL d   1      55.604  -0.100  32.756  0.00  0.00     0.019 A 
ENDBRANCH  18  20
ENDBRANCH  16  17
ENDBRANCH   6  16
TORSDOF 3
ENDMDL
