MODEL 1
REMARK VINA RESULT:      13.6      0.000      0.000
REMARK  5 active torsions:
REMARK  status: ('A' for Active; 'I' for Inactive)
REMARK    1  A    between atoms: S_5  and  C_2 
REMARK    2  A    between atoms: C_12  and  S_5 
REMARK    3  A    between atoms: N_11  and  C_8 
REMARK    4  A    between atoms: C_19  and  N_11 
REMARK    5  A    between atoms: C_32  and  C_26 
ROOT
ATOM      1  C   UNL d   1     -42.209-122.780 -51.296  0.00  0.00     0.197 A 
ATOM      2  C   UNL d   1     -42.426-123.127 -52.010  0.00  0.00     0.227 A 
ATOM      3  N   UNL d   1     -42.568-123.205 -50.684  0.00  0.00    -0.192 N 
ATOM      4  N   UNL d   1     -41.728-122.128 -51.121  0.00  0.00    -0.206 NA
ATOM      5  N   UNL d   1     -42.925-123.774 -51.843  0.00  0.00    -0.115 NA
ATOM      6  N   UNL d   1     -43.009-123.817 -51.019  0.00  0.00    -0.058 NA
ATOM      7  C   UNL d   1     -41.603-121.897 -50.332  0.00  0.00     0.166 A 
ATOM      8  C   UNL d   1     -41.966-122.328 -49.726  0.00  0.00     0.054 A 
ATOM      9  C   UNL d   1     -42.446-122.979 -49.892  0.00  0.00     0.089 A 
ATOM     10  C   UNL d   1     -42.807-123.407 -49.286  0.00  0.00     0.020 A 
ATOM     11  C   UNL d   1     -41.847-122.106 -48.935  0.00  0.00     0.016 A 
ATOM     12  C   UNL d   1     -42.207-122.533 -48.327  0.00  0.00     0.058 A 
ATOM     13  C   UNL d   1     -42.686-123.182 -48.502  0.00  0.00     0.013 A 
ATOM     14 CL   UNL d   1     -42.085-122.306 -47.544  0.00  0.00    -0.082 Cl
ENDROOT
BRANCH   2  15
ATOM     15  S   UNL d   1     -42.198-122.886 -52.765  0.00  0.00     0.231 S 
ATOM     16  O   UNL d   1     -41.407-123.053 -52.612  0.00  0.00    -0.215 OA
ATOM     17  O   UNL d   1     -42.990-122.720 -52.915  0.00  0.00    -0.215 OA
BRANCH  15  18
ATOM     18  C   UNL d   1     -42.032-122.632 -53.530  0.00  0.00     0.090 A 
ATOM     19  C   UNL d   1     -41.333-122.840 -53.895  0.00  0.00     0.011 A 
ATOM     20  C   UNL d   1     -41.167-122.588 -54.656  0.00  0.00     0.001 A 
ATOM     21  C   UNL d   1     -41.718-122.115 -55.060  0.00  0.00     0.000 A 
ATOM     22  C   UNL d   1     -42.428-121.905 -54.689  0.00  0.00     0.001 A 
ATOM     23  C   UNL d   1     -42.587-122.160 -53.930  0.00  0.00     0.011 A 
BRANCH  21  24
ATOM     24  C   UNL d   1     -41.557-121.862 -55.820  0.00  0.00     0.000 C 
ATOM     25  C   UNL d   1     -42.157-121.838 -56.391  0.00  0.00     0.000 C 
ENDBRANCH  21  24
ENDBRANCH  15  18
ENDBRANCH   2  15
BRANCH   7  26
ATOM     26  N   UNL d   1     -41.125-121.248 -50.157  0.00  0.00    -0.227 NA
BRANCH  26  27
ATOM     27  C   UNL d   1     -41.129-120.588 -50.654  0.00  0.00     0.083 A 
ATOM     28  C   UNL d   1     -41.124-120.687 -51.471  0.00  0.00     0.021 A 
ATOM     29  C   UNL d   1     -41.128-120.035 -51.968  0.00  0.00     0.031 A 
ATOM     30  C   UNL d   1     -41.136-119.269 -51.640  0.00  0.00     0.140 A 
ATOM     31  C   UNL d   1     -41.140-119.174 -50.811  0.00  0.00     0.031 A 
ATOM     32  F   UNL d   1     -41.139-118.618 -52.136  0.00  0.00    -0.204 F 
ATOM     33  C   UNL d   1     -41.136-119.838 -50.329  0.00  0.00     0.021 A 
ENDBRANCH  26  27
ENDBRANCH   7  26
TORSDOF 5
ENDMDL
MODEL 2
REMARK VINA RESULT:      14.9      1.748      3.014
REMARK  5 active torsions:
REMARK  status: ('A' for Active; 'I' for Inactive)
REMARK    1  A    between atoms: S_5  and  C_2 
REMARK    2  A    between atoms: C_12  and  S_5 
REMARK    3  A    between atoms: N_11  and  C_8 
REMARK    4  A    between atoms: C_19  and  N_11 
REMARK    5  A    between atoms: C_32  and  C_26 
ROOT
ATOM      1  C   UNL d   1     -41.789-122.078 -50.843  0.00  0.00     0.197 A 
ATOM      2  C   UNL d   1     -41.593-121.648 -51.516  0.00  0.00     0.227 A 
ATOM      3  N   UNL d   1     -41.499-121.671 -50.183  0.00  0.00    -0.192 N 
ATOM      4  N   UNL d   1     -42.196-122.793 -50.741  0.00  0.00    -0.206 NA
ATOM      5  N   UNL d   1     -41.178-120.965 -51.276  0.00  0.00    -0.115 NA
ATOM      6  N   UNL d   1     -41.123-120.986 -50.448  0.00  0.00    -0.058 NA
ATOM      7  C   UNL d   1     -42.316-123.105 -49.980  0.00  0.00     0.166 A 
ATOM      8  C   UNL d   1     -42.022-122.691 -49.326  0.00  0.00     0.054 A 
ATOM      9  C   UNL d   1     -41.616-121.979 -49.418  0.00  0.00     0.089 A 
ATOM     10  C   UNL d   1     -41.325-121.569 -48.765  0.00  0.00     0.020 A 
ATOM     11  C   UNL d   1     -42.137-122.995 -48.562  0.00  0.00     0.016 A 
ATOM     12  C   UNL d   1     -41.846-122.586 -47.907  0.00  0.00     0.058 A 
ATOM     13  C   UNL d   1     -41.441-121.874 -48.008  0.00  0.00     0.013 A 
ATOM     14 CL   UNL d   1     -41.964-122.894 -47.151  0.00  0.00    -0.082 Cl
ENDROOT
BRANCH   2  15
ATOM     15  S   UNL d   1     -41.771-121.845 -52.296  0.00  0.00     0.231 S 
ATOM     16  O   UNL d   1     -41.217-122.453 -52.301  0.00  0.00    -0.215 OA
ATOM     17  O   UNL d   1     -42.325-121.236 -52.288  0.00  0.00    -0.215 OA
BRANCH  15  18
ATOM     18  C   UNL d   1     -41.992-121.994 -53.075  0.00  0.00     0.090 A 
ATOM     19  C   UNL d   1     -41.618-122.573 -53.509  0.00  0.00     0.011 A 
ATOM     20  C   UNL d   1     -41.838-122.722 -54.285  0.00  0.00     0.001 A 
ATOM     21  C   UNL d   1     -42.449-122.277 -54.630  0.00  0.00     0.000 A 
ATOM     22  C   UNL d   1     -42.827-121.689 -54.187  0.00  0.00     0.001 A 
ATOM     23  C   UNL d   1     -42.604-121.546 -53.415  0.00  0.00     0.011 A 
BRANCH  21  24
ATOM     24  C   UNL d   1     -42.671-122.423 -55.403  0.00  0.00     0.000 C 
ATOM     25  C   UNL d   1     -42.468-121.891 -56.004  0.00  0.00     0.000 C 
ENDBRANCH  21  24
ENDBRANCH  15  18
ENDBRANCH   2  15
BRANCH   7  26
ATOM     26  N   UNL d   1     -42.721-123.817 -49.879  0.00  0.00    -0.227 NA
BRANCH  26  27
ATOM     27  C   UNL d   1     -43.546-123.817 -49.824  0.00  0.00     0.083 A 
ATOM     28  C   UNL d   1     -43.909-123.817 -49.086  0.00  0.00     0.021 A 
ATOM     29  C   UNL d   1     -44.727-123.817 -49.026  0.00  0.00     0.031 A 
ATOM     30  C   UNL d   1     -45.189-123.817 -49.719  0.00  0.00     0.140 A 
ATOM     31  C   UNL d   1     -44.815-123.817 -50.465  0.00  0.00     0.031 A 
ATOM     32  F   UNL d   1     -46.006-123.817 -49.660  0.00  0.00    -0.204 F 
ATOM     33  C   UNL d   1     -43.996-123.817 -50.505  0.00  0.00     0.021 A 
ENDBRANCH  26  27
ENDBRANCH   7  26
TORSDOF 5
ENDMDL
MODEL 3
REMARK VINA RESULT:      15.7      2.063      4.494
REMARK  5 active torsions:
REMARK  status: ('A' for Active; 'I' for Inactive)
REMARK    1  A    between atoms: S_5  and  C_2 
REMARK    2  A    between atoms: C_12  and  S_5 
REMARK    3  A    between atoms: N_11  and  C_8 
REMARK    4  A    between atoms: C_19  and  N_11 
REMARK    5  A    between atoms: C_32  and  C_26 
ROOT
ATOM      1  C   UNL d   1     -41.752-122.658 -52.881  0.00  0.00     0.197 A 
ATOM      2  C   UNL d   1     -41.521-123.159 -52.271  0.00  0.00     0.227 A 
ATOM      3  N   UNL d   1     -41.510-122.996 -53.597  0.00  0.00    -0.192 N 
ATOM      4  N   UNL d   1     -42.154-121.933 -52.882  0.00  0.00    -0.206 NA
ATOM      5  N   UNL d   1     -41.131-123.815 -52.607  0.00  0.00    -0.115 NA
ATOM      6  N   UNL d   1     -41.128-123.708 -53.430  0.00  0.00    -0.058 NA
ATOM      7  C   UNL d   1     -42.316-121.541 -53.597  0.00  0.00     0.166 A 
ATOM      8  C   UNL d   1     -42.070-121.887 -54.307  0.00  0.00     0.054 A 
ATOM      9  C   UNL d   1     -41.670-122.608 -54.316  0.00  0.00     0.089 A 
ATOM     10  C   UNL d   1     -41.426-122.950 -55.027  0.00  0.00     0.020 A 
ATOM     11  C   UNL d   1     -42.228-121.503 -55.027  0.00  0.00     0.016 A 
ATOM     12  C   UNL d   1     -41.984-121.844 -55.738  0.00  0.00     0.058 A 
ATOM     13  C   UNL d   1     -41.584-122.565 -55.738  0.00  0.00     0.013 A 
ATOM     14 CL   UNL d   1     -42.144-121.457 -56.449  0.00  0.00    -0.082 Cl
ENDROOT
BRANCH   2  15
ATOM     15  S   UNL d   1     -41.647-123.043 -51.465  0.00  0.00     0.231 S 
ATOM     16  O   UNL d   1     -41.151-122.386 -51.450  0.00  0.00    -0.215 OA
ATOM     17  O   UNL d   1     -42.142-123.700 -51.482  0.00  0.00    -0.215 OA
BRANCH  15  18
ATOM     18  C   UNL d   1     -41.812-122.979 -50.660  0.00  0.00     0.090 A 
ATOM     19  C   UNL d   1     -42.581-122.939 -50.396  0.00  0.00     0.011 A 
ATOM     20  C   UNL d   1     -42.746-122.876 -49.596  0.00  0.00     0.001 A 
ATOM     21  C   UNL d   1     -42.121-122.852 -49.050  0.00  0.00     0.000 A 
ATOM     22  C   UNL d   1     -41.339-122.893 -49.320  0.00  0.00     0.001 A 
ATOM     23  C   UNL d   1     -41.182-122.956 -50.118  0.00  0.00     0.011 A 
BRANCH  21  24
ATOM     24  C   UNL d   1     -42.281-122.789 -48.251  0.00  0.00     0.000 C 
ATOM     25  C   UNL d   1     -43.025-122.533 -47.991  0.00  0.00     0.000 C 
ENDBRANCH  21  24
ENDBRANCH  15  18
ENDBRANCH   2  15
BRANCH   7  26
ATOM     26  N   UNL d   1     -42.716-120.820 -53.597  0.00  0.00    -0.227 NA
BRANCH  26  27
ATOM     27  C   UNL d   1     -42.328-120.133 -53.348  0.00  0.00     0.083 A 
ATOM     28  C   UNL d   1     -42.424-119.431 -53.765  0.00  0.00     0.021 A 
ATOM     29  C   UNL d   1     -42.041-118.749 -53.522  0.00  0.00     0.031 A 
ATOM     30  C   UNL d   1     -41.552-118.770 -52.848  0.00  0.00     0.140 A 
ATOM     31  C   UNL d   1     -41.459-119.485 -52.428  0.00  0.00     0.031 A 
ATOM     32  F   UNL d   1     -41.170-118.088 -52.604  0.00  0.00    -0.204 F 
ATOM     33  C   UNL d   1     -41.849-120.158 -52.686  0.00  0.00     0.021 A 
ENDBRANCH  26  27
ENDBRANCH   7  26
TORSDOF 5
ENDMDL
