MODEL 1
REMARK VINA RESULT:      11.7      0.000      0.000
REMARK  4 active torsions:
REMARK  status: ('A' for Active; 'I' for Inactive)
REMARK    1  A    between atoms: N_2  and  C_1 
REMARK       I    between atoms: C_3  and  N_2 
REMARK    2  A    between atoms: C_6  and  C_3 
REMARK    3  A    between atoms: C_11  and  C_7 
REMARK    4  A    between atoms: C_10  and  C_11 
ROOT
ATOM      1  C   UNL d   1      46.019 -16.502  44.315  0.00  0.00     0.197 A 
ATOM      2  N   UNL d   1      45.648 -16.844  44.944  0.00  0.00    -0.219 NA
ATOM      3  S   UNL d   1      46.420 -17.098  43.892  0.00  0.00    -0.047 SA
ATOM      4  C   UNL d   1      46.281 -17.808  44.285  0.00  0.00     0.051 A 
ATOM      5  C   UNL d   1      45.806 -17.668  44.936  0.00  0.00     0.108 A 
ENDROOT
BRANCH   1   6
ATOM      6  N   UNL d   1      45.999 -15.688  44.125  0.00  0.00    -0.182 NA
ATOM      7  C   UNL d   1      45.429 -15.195  44.443  0.00  0.00     0.287 C 
ATOM      8  O   UNL d   1      44.878 -15.510  44.950  0.00  0.00    -0.265 OA
BRANCH   7   9
ATOM      9  C   UNL d   1      45.413 -14.409  44.257  0.00  0.00     0.087 A 
ATOM     10  S   UNL d   1      45.728 -13.865  44.763  0.00  0.00    -0.082 SA
ATOM     11  C   UNL d   1      45.624 -13.113  44.415  0.00  0.00     0.036 A 
ATOM     12  C   UNL d   1      45.263 -13.198  43.729  0.00  0.00     0.008 A 
ATOM     13  C   UNL d   1      45.114 -14.007  43.599  0.00  0.00     0.012 A 
ENDBRANCH   7   9
ENDBRANCH   1   6
BRANCH   4  14
ATOM     14  C   UNL d   1      46.517 -18.574  44.148  0.00  0.00     0.009 C 
BRANCH  14  15
ATOM     15  C   UNL d   1      46.497 -18.880  43.367  0.00  0.00     0.011 A 
ATOM     16  C   UNL d   1      46.327 -19.674  43.245  0.00  0.00     0.058 A 
ATOM     17 CL   UNL d   1      46.173 -20.181  43.886  0.00  0.00    -0.082 Cl
ATOM     18  C   UNL d   1      46.306 -19.984  42.461  0.00  0.00     0.011 A 
ATOM     19  C   UNL d   1      46.453 -19.507  41.826  0.00  0.00     0.001 A 
ATOM     20  C   UNL d   1      46.627 -18.703  41.933  0.00  0.00     0.000 A 
ATOM     21  C   UNL d   1      46.647 -18.396  42.715  0.00  0.00     0.001 A 
ENDBRANCH  14  15
ENDBRANCH   4  14
TORSDOF 4
ENDMDL
MODEL 2
REMARK VINA RESULT:      12.6      1.946      4.895
REMARK  4 active torsions:
REMARK  status: ('A' for Active; 'I' for Inactive)
REMARK    1  A    between atoms: N_2  and  C_1 
REMARK       I    between atoms: C_3  and  N_2 
REMARK    2  A    between atoms: C_6  and  C_3 
REMARK    3  A    between atoms: C_11  and  C_7 
REMARK    4  A    between atoms: C_10  and  C_11 
ROOT
ATOM      1  C   UNL d   1      45.752 -16.141  44.617  0.00  0.00     0.197 A 
ATOM      2  N   UNL d   1      44.971 -16.015  44.777  0.00  0.00    -0.219 NA
ATOM      3  S   UNL d   1      46.149 -15.408  44.654  0.00  0.00    -0.047 SA
ATOM      4  C   UNL d   1      45.584 -14.839  44.841  0.00  0.00     0.051 A 
ATOM      5  C   UNL d   1      44.853 -15.197  44.919  0.00  0.00     0.108 A 
ENDROOT
BRANCH   1   6
ATOM      6  N   UNL d   1      46.098 -16.883  44.444  0.00  0.00    -0.182 NA
ATOM      7  C   UNL d   1      45.780 -17.373  43.871  0.00  0.00     0.287 C 
ATOM      8  O   UNL d   1      45.118 -17.127  43.469  0.00  0.00    -0.265 OA
BRANCH   7   9
ATOM      9  C   UNL d   1      46.116 -18.089  43.707  0.00  0.00     0.087 A 
ATOM     10  S   UNL d   1      46.316 -18.591  44.306  0.00  0.00    -0.082 SA
ATOM     11  C   UNL d   1      46.647 -19.274  43.958  0.00  0.00     0.036 A 
ATOM     12  C   UNL d   1      46.646 -19.189  43.182  0.00  0.00     0.008 A 
ATOM     13  C   UNL d   1      46.316 -18.449  42.991  0.00  0.00     0.012 A 
ENDBRANCH   7   9
ENDBRANCH   1   6
BRANCH   4  14
ATOM     14  C   UNL d   1      45.624 -14.035  44.953  0.00  0.00     0.009 C 
BRANCH  14  15
ATOM     15  C   UNL d   1      45.472 -13.519  44.308  0.00  0.00     0.011 A 
ATOM     16  C   UNL d   1      45.885 -12.812  44.246  0.00  0.00     0.058 A 
ATOM     17 CL   UNL d   1      46.453 -12.598  44.815  0.00  0.00    -0.082 Cl
ATOM     18  C   UNL d   1      45.733 -12.292  43.600  0.00  0.00     0.011 A 
ATOM     19  C   UNL d   1      45.185 -12.482  43.039  0.00  0.00     0.001 A 
ATOM     20  C   UNL d   1      44.760 -13.192  43.087  0.00  0.00     0.000 A 
ATOM     21  C   UNL d   1      44.912 -13.709  43.732  0.00  0.00     0.001 A 
ENDBRANCH  14  15
ENDBRANCH   4  14
TORSDOF 4
ENDMDL
