MODEL 1
REMARK VINA RESULT:      -5.6      0.000      0.000
REMARK  6 active torsions:
REMARK  status: ('A' for Active; 'I' for Inactive)
REMARK    1  A    between atoms: C_2  and  C_4 
REMARK    2  A    between atoms: C_5  and  C_3 
REMARK    3  A    between atoms: C_16  and  C_15 
REMARK    4  A    between atoms: C_17  and  C_16 
REMARK    5  A    between atoms: C_19  and  C_17 
REMARK    6  A    between atoms: C_18  and  C_19 
ROOT
ATOM      1  N   UNL d   1     -41.603-123.531 -52.220  0.00  0.00    -0.244 NA
ATOM      2  C   UNL d   1     -41.505-122.729 -52.454  0.00  0.00     0.081 A 
ATOM      3  C   UNL d   1     -41.276-122.155 -51.878  0.00  0.00     0.019 A 
ATOM      4  C   UNL d   1     -41.475-123.776 -51.405  0.00  0.00     0.099 A 
ATOM      5  C   UNL d   1     -41.152-122.379 -51.104  0.00  0.00     0.003 A 
ATOM      6  C   UNL d   1     -41.251-123.180 -50.870  0.00  0.00     0.019 A 
ENDROOT
BRANCH   2   7
ATOM      7  C   UNL d   1     -41.629-122.532 -53.208  0.00  0.00     0.018 A 
ATOM      8  C   UNL d   1     -41.351-123.017 -53.801  0.00  0.00     0.002 A 
ATOM      9  C   UNL d   1     -41.492-122.793 -54.606  0.00  0.00     0.006 A 
ATOM     10  C   UNL d   1     -41.898-122.104 -54.778  0.00  0.00     0.064 A 
ATOM     11  C   UNL d   1     -42.181-121.611 -54.144  0.00  0.00     0.006 A 
ATOM     12  C   UNL d   1     -42.036-121.843 -53.377  0.00  0.00     0.002 A 
BRANCH  10  13
ATOM     13  C   UNL d   1     -42.040-121.879 -55.582  0.00  0.00     0.211 C 
ATOM     14  O   UNL d   1     -41.541-121.360 -56.010  0.00  0.00    -0.644 OA
ATOM     15  O   UNL d   1     -42.719-122.185 -55.993  0.00  0.00    -0.644 OA
ENDBRANCH  10  13
ENDBRANCH   2   7
BRANCH   6  16
ATOM     16  C   UNL d   1     -41.123-123.429 -50.053  0.00  0.00     0.002 C 
BRANCH  16  17
ATOM     17  C   UNL d   1     -41.645-123.160 -49.490  0.00  0.00     0.000 C 
BRANCH  17  18
ATOM     18  C   UNL d   1     -41.672-123.539 -48.732  0.00  0.00     0.000 C 
BRANCH  18  19
ATOM     19  C   UNL d   1     -42.192-123.328 -48.169  0.00  0.00     0.000 C 
ATOM     20  C   UNL d   1     -41.980-123.304 -47.378  0.00  0.00     0.000 C 
ENDBRANCH  18  19
ENDBRANCH  17  18
ENDBRANCH  16  17
ENDBRANCH   6  16
TORSDOF 6
ENDMDL
