MODEL 1
REMARK VINA RESULT:      -3.2      0.000      0.000
REMARK  4 active torsions:
REMARK  status: ('A' for Active; 'I' for Inactive)
REMARK    1  A    between atoms: N_2  and  S_1 
REMARK    2  A    between atoms: C_4  and  S_1 
REMARK    3  A    between atoms: C_5  and  N_3 
REMARK    4  A    between atoms: C_12  and  C_13 
ROOT
ATOM      1  N   UNL d   1      32.948  20.164 -22.132  0.00  0.00    -0.226 N 
ATOM      2  N   UNL d   1      32.850  21.576 -21.282  0.00  0.00    -0.299 N 
ATOM      3  C   UNL d   1      33.241  20.861 -22.455  0.00  0.00     0.111 A 
ATOM      4  C   UNL d   1      32.602  20.168 -21.377  0.00  0.00     0.111 A 
ATOM      5  C   UNL d   1      33.192  21.567 -22.031  0.00  0.00     0.100 A 
ATOM      6  C   UNL d   1      32.553  20.873 -20.952  0.00  0.00     0.100 A 
ENDROOT
BRANCH   1   7
ATOM      7  S   UNL d   1      32.997  19.456 -22.558  0.00  0.00     0.271 S 
ATOM      8  O   UNL d   1      33.049  19.033 -21.851  0.00  0.00    -0.200 OA
ATOM      9  O   UNL d   1      32.945  19.878 -23.265  0.00  0.00    -0.200 OA
BRANCH   7  10
ATOM     10  C   UNL d   1      33.045  18.753 -22.981  0.00  0.00     0.104 A 
ATOM     11  C   UNL d   1      33.188  18.044 -22.589  0.00  0.00     0.013 A 
ATOM     12  C   UNL d   1      33.237  17.339 -23.014  0.00  0.00    -0.004 A 
ATOM     13  C   UNL d   1      33.143  17.342 -23.831  0.00  0.00    -0.023 A 
ATOM     14  C   UNL d   1      33.001  18.049 -24.221  0.00  0.00    -0.004 A 
ATOM     15  C   UNL d   1      32.952  18.755 -23.796  0.00  0.00     0.013 A 
BRANCH  13  16
ATOM     16  C   UNL d   1      33.192  16.633 -24.258  0.00  0.00     0.019 C 
ATOM     17  C   UNL d   1      33.171  16.207 -23.552  0.00  0.00     0.004 C 
ATOM     18  C   UNL d   1      33.213  17.060 -24.963  0.00  0.00     0.004 C 
ATOM     19  C   UNL d   1      33.241  15.931 -24.680  0.00  0.00     0.004 C 
ENDBRANCH  13  16
ENDBRANCH   7  10
ENDBRANCH   1   7
BRANCH   2  20
ATOM     20  C   UNL d   1      32.801  22.288 -20.853  0.00  0.00     0.092 A 
ATOM     21  C   UNL d   1      32.310  22.904 -21.123  0.00  0.00     0.156 A 
ATOM     22  F   UNL d   1      31.902  22.813 -21.772  0.00  0.00    -0.203 F 
ATOM     23  C   UNL d   1      32.261  23.606 -20.701  0.00  0.00     0.031 A 
ATOM     24  C   UNL d   1      32.703  23.702 -20.001  0.00  0.00     0.002 A 
ATOM     25  C   UNL d   1      33.187  23.090 -19.737  0.00  0.00     0.002 A 
ATOM     26  C   UNL d   1      33.236  22.388 -20.159  0.00  0.00     0.020 A 
ENDBRANCH   2  20
TORSDOF 4
ENDMDL
MODEL 2
REMARK VINA RESULT:      -3.2      1.516      5.568
REMARK  4 active torsions:
REMARK  status: ('A' for Active; 'I' for Inactive)
REMARK    1  A    between atoms: N_2  and  S_1 
REMARK    2  A    between atoms: C_4  and  S_1 
REMARK    3  A    between atoms: C_5  and  N_3 
REMARK    4  A    between atoms: C_12  and  C_13 
ROOT
ATOM      1  N   UNL d   1      32.842  19.190 -22.816  0.00  0.00    -0.226 N 
ATOM      2  N   UNL d   1      32.736  17.723 -23.563  0.00  0.00    -0.299 N 
ATOM      3  C   UNL d   1      32.403  19.111 -23.507  0.00  0.00     0.111 A 
ATOM      4  C   UNL d   1      33.233  18.533 -22.491  0.00  0.00     0.111 A 
ATOM      5  C   UNL d   1      32.350  18.377 -23.880  0.00  0.00     0.100 A 
ATOM      6  C   UNL d   1      33.180  17.800 -22.865  0.00  0.00     0.100 A 
ENDROOT
BRANCH   1   7
ATOM      7  S   UNL d   1      32.896  19.927 -22.441  0.00  0.00     0.271 S 
ATOM      8  O   UNL d   1      32.712  19.573 -21.719  0.00  0.00    -0.200 OA
ATOM      9  O   UNL d   1      33.079  20.282 -23.163  0.00  0.00    -0.200 OA
BRANCH   7  10
ATOM     10  C   UNL d   1      32.948  20.658 -22.069  0.00  0.00     0.104 A 
ATOM     11  C   UNL d   1      33.186  21.321 -22.494  0.00  0.00     0.013 A 
ATOM     12  C   UNL d   1      33.240  22.055 -22.121  0.00  0.00    -0.004 A 
ATOM     13  C   UNL d   1      33.055  22.125 -21.322  0.00  0.00    -0.023 A 
ATOM     14  C   UNL d   1      32.818  21.464 -20.899  0.00  0.00    -0.004 A 
ATOM     15  C   UNL d   1      32.765  20.730 -21.273  0.00  0.00     0.013 A 
BRANCH  13  16
ATOM     16  C   UNL d   1      33.108  22.862 -20.947  0.00  0.00     0.019 C 
ATOM     17  C   UNL d   1      33.075  23.238 -21.680  0.00  0.00     0.004 C 
ATOM     18  C   UNL d   1      33.142  22.486 -20.213  0.00  0.00     0.004 C 
ATOM     19  C   UNL d   1      33.161  23.592 -20.575  0.00  0.00     0.004 C 
ENDBRANCH  13  16
ENDBRANCH   7  10
ENDBRANCH   1   7
BRANCH   2  20
ATOM     20  C   UNL d   1      32.682  16.982 -23.940  0.00  0.00     0.092 A 
ATOM     21  C   UNL d   1      32.062  16.460 -23.747  0.00  0.00     0.156 A 
ATOM     22  F   UNL d   1      31.539  16.665 -23.218  0.00  0.00    -0.203 F 
ATOM     23  C   UNL d   1      32.009  15.730 -24.119  0.00  0.00     0.031 A 
ATOM     24  C   UNL d   1      32.575  15.511 -24.689  0.00  0.00     0.002 A 
ATOM     25  C   UNL d   1      33.187  16.030 -24.877  0.00  0.00     0.002 A 
ATOM     26  C   UNL d   1      33.240  16.761 -24.506  0.00  0.00     0.020 A 
ENDBRANCH   2  20
TORSDOF 4
ENDMDL
MODEL 3
REMARK VINA RESULT:      -2.8      1.418      5.523
REMARK  4 active torsions:
REMARK  status: ('A' for Active; 'I' for Inactive)
REMARK    1  A    between atoms: N_2  and  S_1 
REMARK    2  A    between atoms: C_4  and  S_1 
REMARK    3  A    between atoms: C_5  and  N_3 
REMARK    4  A    between atoms: C_12  and  C_13 
ROOT
ATOM      1  N   UNL d   1      32.824  19.808 -22.332  0.00  0.00    -0.226 N 
ATOM      2  N   UNL d   1      32.742  18.509 -23.348  0.00  0.00    -0.299 N 
ATOM      3  C   UNL d   1      32.491  19.890 -23.080  0.00  0.00     0.111 A 
ATOM      4  C   UNL d   1      33.120  19.072 -22.085  0.00  0.00     0.111 A 
ATOM      5  C   UNL d   1      32.450  19.241 -23.588  0.00  0.00     0.100 A 
ATOM      6  C   UNL d   1      33.079  18.423 -22.593  0.00  0.00     0.100 A 
ENDROOT
BRANCH   1   7
ATOM      7  S   UNL d   1      32.866  20.460 -21.822  0.00  0.00     0.271 S 
ATOM      8  O   UNL d   1      33.235  20.900 -22.415  0.00  0.00    -0.200 OA
ATOM      9  O   UNL d   1      32.496  20.020 -21.230  0.00  0.00    -0.200 OA
BRANCH   7  10
ATOM     10  C   UNL d   1      32.907  21.106 -21.317  0.00  0.00     0.104 A 
ATOM     11  C   UNL d   1      33.172  21.009 -20.544  0.00  0.00     0.013 A 
ATOM     12  C   UNL d   1      33.213  21.659 -20.037  0.00  0.00    -0.004 A 
ATOM     13  C   UNL d   1      32.989  22.404 -20.302  0.00  0.00    -0.023 A 
ATOM     14  C   UNL d   1      32.725  22.500 -21.073  0.00  0.00    -0.004 A 
ATOM     15  C   UNL d   1      32.684  21.850 -21.580  0.00  0.00     0.013 A 
BRANCH  13  16
ATOM     16  C   UNL d   1      33.031  23.056 -19.792  0.00  0.00     0.019 C 
ATOM     17  C   UNL d   1      32.917  23.564 -20.432  0.00  0.00     0.004 C 
ATOM     18  C   UNL d   1      33.144  22.549 -19.152  0.00  0.00     0.004 C 
ATOM     19  C   UNL d   1      33.072  23.702 -19.287  0.00  0.00     0.004 C 
ENDBRANCH  13  16
ENDBRANCH   7  10
ENDBRANCH   1   7
BRANCH   2  20
ATOM     20  C   UNL d   1      32.700  17.854 -23.860  0.00  0.00     0.092 A 
ATOM     21  C   UNL d   1      32.111  17.276 -23.750  0.00  0.00     0.156 A 
ATOM     22  F   UNL d   1      31.604  17.350 -23.173  0.00  0.00    -0.203 F 
ATOM     23  C   UNL d   1      32.070  16.630 -24.256  0.00  0.00     0.031 A 
ATOM     24  C   UNL d   1      32.618  16.553 -24.878  0.00  0.00     0.002 A 
ATOM     25  C   UNL d   1      33.200  17.127 -24.983  0.00  0.00     0.002 A 
ATOM     26  C   UNL d   1      33.241  17.773 -24.478  0.00  0.00     0.020 A 
ENDBRANCH   2  20
TORSDOF 4
ENDMDL
MODEL 4
REMARK VINA RESULT:      -1.0      0.734      1.061
REMARK  4 active torsions:
REMARK  status: ('A' for Active; 'I' for Inactive)
REMARK    1  A    between atoms: N_2  and  S_1 
REMARK    2  A    between atoms: C_4  and  S_1 
REMARK    3  A    between atoms: C_5  and  N_3 
REMARK    4  A    between atoms: C_12  and  C_13 
ROOT
ATOM      1  N   UNL d   1      32.643  20.099 -22.081  0.00  0.00    -0.226 N 
ATOM      2  N   UNL d   1      32.720  21.405 -21.076  0.00  0.00    -0.299 N 
ATOM      3  C   UNL d   1      32.130  20.733 -22.189  0.00  0.00     0.111 A 
ATOM      4  C   UNL d   1      33.201  20.114 -21.467  0.00  0.00     0.111 A 
ATOM      5  C   UNL d   1      32.168  21.386 -21.686  0.00  0.00     0.100 A 
ATOM      6  C   UNL d   1      33.240  20.767 -20.964  0.00  0.00     0.100 A 
ENDROOT
BRANCH   1   7
ATOM      7  S   UNL d   1      32.604  19.443 -22.586  0.00  0.00     0.271 S 
ATOM      8  O   UNL d   1      33.043  19.852 -23.152  0.00  0.00    -0.200 OA
ATOM      9  O   UNL d   1      32.164  19.033 -22.020  0.00  0.00    -0.200 OA
BRANCH   7  10
ATOM     10  C   UNL d   1      32.565  18.793 -23.086  0.00  0.00     0.104 A 
ATOM     11  C   UNL d   1      32.155  18.843 -23.798  0.00  0.00     0.013 A 
ATOM     12  C   UNL d   1      32.116  18.190 -24.300  0.00  0.00    -0.004 A 
ATOM     13  C   UNL d   1      32.488  17.486 -24.091  0.00  0.00    -0.023 A 
ATOM     14  C   UNL d   1      32.897  17.437 -23.382  0.00  0.00    -0.004 A 
ATOM     15  C   UNL d   1      32.935  18.090 -22.880  0.00  0.00     0.013 A 
BRANCH  13  16
ATOM     16  C   UNL d   1      32.449  16.830 -24.596  0.00  0.00     0.019 C 
ATOM     17  C   UNL d   1      33.230  16.962 -24.827  0.00  0.00     0.004 C 
ATOM     18  C   UNL d   1      31.668  16.698 -24.365  0.00  0.00     0.004 C 
ATOM     19  C   UNL d   1      32.410  16.180 -25.096  0.00  0.00     0.004 C 
ENDBRANCH  13  16
ENDBRANCH   7  10
ENDBRANCH   1   7
BRANCH   2  20
ATOM     20  C   UNL d   1      32.760  22.065 -20.569  0.00  0.00     0.092 A 
ATOM     21  C   UNL d   1      32.854  22.829 -20.885  0.00  0.00     0.156 A 
ATOM     22  F   UNL d   1      32.904  22.924 -21.649  0.00  0.00    -0.203 F 
ATOM     23  C   UNL d   1      32.892  23.479 -20.385  0.00  0.00     0.031 A 
ATOM     24  C   UNL d   1      32.837  23.374 -19.561  0.00  0.00     0.002 A 
ATOM     25  C   UNL d   1      32.744  22.616 -19.251  0.00  0.00     0.002 A 
ATOM     26  C   UNL d   1      32.706  21.966 -19.751  0.00  0.00     0.020 A 
ENDBRANCH   2  20
TORSDOF 4
ENDMDL
