MODEL 1
REMARK VINA RESULT:      46.6      0.000      0.000
REMARK  1 active torsions:
REMARK  status: ('A' for Active; 'I' for Inactive)
REMARK    1  A    between atoms: C_9  and  C_3 
REMARK       I    between atoms: C_10  and  N_4 
ROOT
ATOM      1  N   UNL d   1     -52.564  25.570  33.379  0.00  0.00    -0.047 N 
ATOM      2  N   UNL d   1     -51.745  25.603  33.387  0.00  0.00    -0.188 N 
ATOM      3  C   UNL d   1     -51.483  26.384  33.415  0.00  0.00     0.194 A 
ATOM      4  N   UNL d   1     -52.807  24.845  33.352  0.00  0.00    -0.172 N 
ATOM      5  N   UNL d   1     -52.157  26.884  33.426  0.00  0.00    -0.083 NA
ATOM      6  C   UNL d   1     -51.494  24.846  33.363  0.00  0.00     0.104 A 
ATOM      7  O   UNL d   1     -52.835  26.368  33.403  0.00  0.00    -0.089 OA
ATOM      8  C   UNL d   1     -52.162  24.362  33.341  0.00  0.00     0.106 A 
ATOM      9  C   UNL d   1     -53.622  24.613  33.337  0.00  0.00     0.282 C 
ATOM     10  O   UNL d   1     -54.212  25.176  33.351  0.00  0.00    -0.265 OA
ATOM     11  C   UNL d   1     -50.730  24.511  33.359  0.00  0.00     0.021 A 
ATOM     12  C   UNL d   1     -52.064  23.550  33.315  0.00  0.00     0.021 A 
ATOM     13  C   UNL d   1     -53.830  23.806  33.308  0.00  0.00     0.068 C 
ATOM     14  C   UNL d   1     -51.338  23.202  33.309  0.00  0.00     0.002 A 
ATOM     15  C   UNL d   1     -50.643  23.683  33.331  0.00  0.00     0.002 A 
ENDROOT
BRANCH   3  16
ATOM     16  C   UNL d   1     -50.687  26.559  33.428  0.00  0.00     0.038 A 
ATOM     17  C   UNL d   1     -50.139  25.981  33.378  0.00  0.00     0.003 A 
ATOM     18  C   UNL d   1     -49.319  26.186  33.394  0.00  0.00     0.000 A 
ATOM     19  C   UNL d   1     -50.347  25.184  33.312  0.00  0.00     0.000 C 
ATOM     20  C   UNL d   1     -48.729  25.611  33.344  0.00  0.00     0.000 C 
ATOM     21  C   UNL d   1     -49.114  26.945  33.457  0.00  0.00     0.000 A 
ATOM     22  C   UNL d   1     -49.661  27.523  33.506  0.00  0.00     0.000 A 
ATOM     23  C   UNL d   1     -50.457  27.349  33.494  0.00  0.00     0.003 A 
ATOM     24  C   UNL d   1     -49.431  28.351  33.575  0.00  0.00     0.000 C 
ATOM     25  C   UNL d   1     -51.024  27.947  33.545  0.00  0.00     0.000 C 
ENDBRANCH   3  16
TORSDOF 1
ENDMDL
