MODEL 1
REMARK VINA RESULT:      -2.8      0.000      0.000
REMARK  5 active torsions:
REMARK  status: ('A' for Active; 'I' for Inactive)
REMARK    1  A    between atoms: N_2  and  S_1 
REMARK    2  A    between atoms: C_4  and  S_1 
REMARK    3  A    between atoms: C_3  and  C_6 
REMARK    4  A    between atoms: C_12  and  N_5 
REMARK    5  A    between atoms: O_24  and  C_20 
ROOT
ATOM      1  N   UNL d   1     -41.712-121.780 -51.843  0.00  0.00    -0.226 N 
ATOM      2  N   UNL d   1     -42.098-122.459 -50.394  0.00  0.00    -0.301 N 
ATOM      3  C   UNL d   1     -41.123-121.918 -51.280  0.00  0.00     0.111 A 
ATOM      4  C   UNL d   1     -42.502-121.985 -51.676  0.00  0.00     0.111 A 
ATOM      5  C   UNL d   1     -42.690-122.325 -50.948  0.00  0.00     0.100 A 
ATOM      6  C   UNL d   1     -41.320-122.255 -50.562  0.00  0.00     0.100 A 
ENDROOT
BRANCH   1   7
ATOM      7  S   UNL d   1     -41.527-121.445 -52.560  0.00  0.00     0.271 S 
ATOM      8  O   UNL d   1     -41.340-121.105 -53.288  0.00  0.00    -0.200 OA
ATOM      9  O   UNL d   1     -41.540-120.702 -52.221  0.00  0.00    -0.200 OA
BRANCH   7  10
ATOM     10  C   UNL d   1     -41.513-122.194 -52.907  0.00  0.00     0.104 A 
ATOM     11  C   UNL d   1     -41.871-122.324 -53.640  0.00  0.00     0.017 A 
ATOM     12  C   UNL d   1     -41.857-123.073 -53.986  0.00  0.00     0.072 A 
ATOM     13  C   UNL d   1     -41.485-123.698 -53.602  0.00  0.00     0.004 A 
ATOM     14  C   UNL d   1     -41.123-123.578 -52.864  0.00  0.00     0.001 A 
ATOM     15  C   UNL d   1     -41.137-122.822 -52.515  0.00  0.00     0.013 A 
BRANCH  12  16
ATOM     16  C   UNL d   1     -42.215-123.196 -54.718  0.00  0.00     0.419 C 
ATOM     17  F   UNL d   1     -41.956-122.940 -55.494  0.00  0.00    -0.166 F 
ATOM     18  F   UNL d   1     -42.944-123.614 -54.904  0.00  0.00    -0.166 F 
ATOM     19  F   UNL d   1     -42.540-123.308 -55.389  0.00  0.00    -0.166 F 
ENDBRANCH  12  16
ENDBRANCH   7  10
ENDBRANCH   1   7
BRANCH   2  20
ATOM     20  C   UNL d   1     -42.285-122.798 -49.667  0.00  0.00     0.064 A 
ATOM     21  C   UNL d   1     -41.712-123.213 -49.245  0.00  0.00     0.020 A 
ATOM     22  C   UNL d   1     -41.899-123.553 -48.517  0.00  0.00     0.026 A 
ATOM     23  C   UNL d   1     -42.660-123.478 -48.211  0.00  0.00     0.094 A 
ATOM     24  C   UNL d   1     -43.235-123.060 -48.640  0.00  0.00     0.026 A 
ATOM     25  C   UNL d   1     -43.044-122.721 -49.367  0.00  0.00     0.020 A 
BRANCH  23  26
ATOM     26  O   UNL d   1     -42.852-123.817 -47.484  0.00  0.00    -0.328 OA
ATOM     27  C   UNL d   1     -42.524-123.512 -46.783  0.00  0.00     0.181 C 
ENDBRANCH  23  26
ENDBRANCH   2  20
TORSDOF 5
ENDMDL
MODEL 2
REMARK VINA RESULT:      -1.3      2.347      4.812
REMARK  5 active torsions:
REMARK  status: ('A' for Active; 'I' for Inactive)
REMARK    1  A    between atoms: N_2  and  S_1 
REMARK    2  A    between atoms: C_4  and  S_1 
REMARK    3  A    between atoms: C_3  and  C_6 
REMARK    4  A    between atoms: C_12  and  N_5 
REMARK    5  A    between atoms: O_24  and  C_20 
ROOT
ATOM      1  N   UNL d   1     -41.558-121.668 -51.408  0.00  0.00    -0.226 N 
ATOM      2  N   UNL d   1     -41.920-121.955 -52.988  0.00  0.00    -0.301 N 
ATOM      3  C   UNL d   1     -41.123-122.224 -51.839  0.00  0.00     0.111 A 
ATOM      4  C   UNL d   1     -42.181-121.254 -51.776  0.00  0.00     0.111 A 
ATOM      5  C   UNL d   1     -42.357-121.402 -52.568  0.00  0.00     0.100 A 
ATOM      6  C   UNL d   1     -41.306-122.362 -52.623  0.00  0.00     0.100 A 
ENDROOT
BRANCH   1   7
ATOM      7  S   UNL d   1     -41.384-121.523 -50.627  0.00  0.00     0.271 S 
ATOM      8  O   UNL d   1     -41.207-121.374 -49.835  0.00  0.00    -0.200 OA
ATOM      9  O   UNL d   1     -41.140-120.767 -50.819  0.00  0.00    -0.200 OA
BRANCH   7  10
ATOM     10  C   UNL d   1     -41.630-122.285 -50.430  0.00  0.00     0.104 A 
ATOM     11  C   UNL d   1     -42.344-122.406 -50.033  0.00  0.00     0.017 A 
ATOM     12  C   UNL d   1     -42.590-123.169 -49.836  0.00  0.00     0.072 A 
ATOM     13  C   UNL d   1     -42.124-123.817 -50.034  0.00  0.00     0.004 A 
ATOM     14  C   UNL d   1     -41.403-123.706 -50.433  0.00  0.00     0.001 A 
ATOM     15  C   UNL d   1     -41.155-122.936 -50.632  0.00  0.00     0.013 A 
BRANCH  12  16
ATOM     16  C   UNL d   1     -43.304-123.283 -49.440  0.00  0.00     0.419 C 
ATOM     17  F   UNL d   1     -43.437-123.452 -48.610  0.00  0.00    -0.166 F 
ATOM     18  F   UNL d   1     -44.107-123.265 -49.749  0.00  0.00    -0.166 F 
ATOM     19  F   UNL d   1     -43.955-123.388 -49.075  0.00  0.00    -0.166 F 
ENDBRANCH  12  16
ENDBRANCH   7  10
ENDBRANCH   1   7
BRANCH   2  20
ATOM     20  C   UNL d   1     -42.096-122.103 -53.779  0.00  0.00     0.064 A 
ATOM     21  C   UNL d   1     -42.540-121.560 -54.212  0.00  0.00     0.020 A 
ATOM     22  C   UNL d   1     -42.717-121.708 -55.004  0.00  0.00     0.026 A 
ATOM     23  C   UNL d   1     -42.450-122.399 -55.364  0.00  0.00     0.094 A 
ATOM     24  C   UNL d   1     -42.003-122.943 -54.924  0.00  0.00     0.026 A 
ATOM     25  C   UNL d   1     -41.828-122.792 -54.132  0.00  0.00     0.020 A 
BRANCH  23  26
ATOM     26  O   UNL d   1     -42.624-122.551 -56.156  0.00  0.00    -0.328 OA
ATOM     27  C   UNL d   1     -43.335-122.274 -56.486  0.00  0.00     0.181 C 
ENDBRANCH  23  26
ENDBRANCH   2  20
TORSDOF 5
ENDMDL
