MODEL 1
REMARK VINA RESULT:      66.3      0.000      0.000
REMARK  6 active torsions:
REMARK  status: ('A' for Active; 'I' for Inactive)
REMARK       I    between atoms: N_6  and  C_1 
REMARK       I    between atoms: N_9  and  C_1 
REMARK    1  A    between atoms: N_2  and  C_3 
REMARK    2  A    between atoms: C_3  and  C_5 
REMARK    3  A    between atoms: C_7  and  C_3 
REMARK    4  A    between atoms: C_16  and  N_4 
REMARK    5  A    between atoms: C_5  and  N_6 
REMARK    6  A    between atoms: C_19  and  N_9 
ROOT
ATOM      1  C   UNL d   1      14.830  13.124  -0.874  0.00  0.00     0.088 C 
ENDROOT
BRANCH   1   2
ATOM      2  N   UNL d   1      14.925  13.946  -0.919  0.00  0.00    -0.300 N 
ATOM      3  C   UNL d   1      15.037  14.306  -1.651  0.00  0.00     0.100 A 
ATOM      4  C   UNL d   1      15.132  15.119  -1.696  0.00  0.00     0.100 A 
ATOM      5  N   UNL d   1      15.118  15.589  -1.012  0.00  0.00    -0.301 N 
ATOM      6  C   UNL d   1      15.002  15.210  -0.266  0.00  0.00     0.100 A 
ATOM      7  C   UNL d   1      14.909  14.399  -0.237  0.00  0.00     0.100 A 
BRANCH   5   8
ATOM      8  C   UNL d   1      15.210  16.396  -1.041  0.00  0.00     0.064 A 
ATOM      9  C   UNL d   1      14.869  16.845  -1.639  0.00  0.00     0.018 A 
ATOM     10  C   UNL d   1      14.969  17.665  -1.660  0.00  0.00     0.002 A 
ATOM     11  C   UNL d   1      15.419  18.040  -1.072  0.00  0.00     0.000 A 
ATOM     12  C   UNL d   1      15.764  17.589  -0.467  0.00  0.00     0.002 A 
ATOM     13  C   UNL d   1      15.660  16.771  -0.453  0.00  0.00     0.018 A 
ENDBRANCH   5   8
ENDBRANCH   1   2
BRANCH   1  14
ATOM     14  C   UNL d   1      14.079  12.791  -0.920  0.00  0.00     0.103 C 
ATOM     15  C   UNL d   1      13.652  12.653  -0.236  0.00  0.00     0.022 C 
BRANCH  14  16
ATOM     16  N   UNL d   1      13.766  12.600  -1.654  0.00  0.00    -0.190 NA
ATOM     17  C   UNL d   1      13.111  12.095  -1.705  0.00  0.00     0.369 C 
ATOM     18  N   UNL d   1      12.799  11.904  -2.440  0.00  0.00    -0.191 NA
ATOM     19  O   UNL d   1      12.781  11.791  -1.018  0.00  0.00    -0.242 OA
BRANCH  18  20
ATOM     20  C   UNL d   1      13.131  12.211  -3.131  0.00  0.00     0.086 A 
ATOM     21  C   UNL d   1      12.882  12.955  -3.408  0.00  0.00     0.019 A 
ATOM     22  C   UNL d   1      13.211  13.262  -4.093  0.00  0.00     0.002 A 
ATOM     23  C   UNL d   1      13.785  12.837  -4.506  0.00  0.00     0.000 A 
ATOM     24  C   UNL d   1      14.028  12.100  -4.226  0.00  0.00     0.002 A 
ATOM     25  C   UNL d   1      13.700  11.784  -3.535  0.00  0.00     0.019 A 
ENDBRANCH  18  20
ENDBRANCH  14  16
ENDBRANCH   1  14
BRANCH   1  26
ATOM     26  C   UNL d   1      15.489  12.643  -0.783  0.00  0.00     0.047 A 
ATOM     27  S   UNL d   1      15.815  12.381  -0.070  0.00  0.00    -0.085 SA
ATOM     28  C   UNL d   1      16.469  11.913  -0.241  0.00  0.00     0.035 A 
ATOM     29  C   UNL d   1      16.554  11.880  -1.063  0.00  0.00     0.007 A 
ATOM     30  C   UNL d   1      15.950  12.330  -1.395  0.00  0.00     0.009 A 
ENDBRANCH   1  26
TORSDOF 6
ENDMDL
MODEL 2
REMARK VINA RESULT:      67.7      1.449      3.105
REMARK  6 active torsions:
REMARK  status: ('A' for Active; 'I' for Inactive)
REMARK       I    between atoms: N_6  and  C_1 
REMARK       I    between atoms: N_9  and  C_1 
REMARK    1  A    between atoms: N_2  and  C_3 
REMARK    2  A    between atoms: C_3  and  C_5 
REMARK    3  A    between atoms: C_7  and  C_3 
REMARK    4  A    between atoms: C_16  and  N_4 
REMARK    5  A    between atoms: C_5  and  N_6 
REMARK    6  A    between atoms: C_19  and  N_9 
ROOT
ATOM      1  C   UNL d   1      13.603  12.753  -3.035  0.00  0.00     0.088 C 
ENDROOT
BRANCH   1   2
ATOM      2  N   UNL d   1      13.863  13.536  -2.963  0.00  0.00    -0.300 N 
ATOM      3  C   UNL d   1      13.319  14.136  -2.809  0.00  0.00     0.100 A 
ATOM      4  C   UNL d   1      13.576  14.911  -2.737  0.00  0.00     0.100 A 
ATOM      5  N   UNL d   1      14.379  15.104  -2.817  0.00  0.00    -0.301 N 
ATOM      6  C   UNL d   1      14.928  14.482  -2.974  0.00  0.00     0.100 A 
ATOM      7  C   UNL d   1      14.659  13.714  -3.043  0.00  0.00     0.100 A 
BRANCH   5   8
ATOM      8  C   UNL d   1      14.648  15.868  -2.748  0.00  0.00     0.064 A 
ATOM      9  C   UNL d   1      14.796  16.205  -2.013  0.00  0.00     0.018 A 
ATOM     10  C   UNL d   1      15.069  16.983  -1.954  0.00  0.00     0.002 A 
ATOM     11  C   UNL d   1      15.195  17.428  -2.642  0.00  0.00     0.000 A 
ATOM     12  C   UNL d   1      15.047  17.090  -3.386  0.00  0.00     0.002 A 
ATOM     13  C   UNL d   1      14.774  16.313  -3.436  0.00  0.00     0.018 A 
ENDBRANCH   5   8
ENDBRANCH   1   2
BRANCH   1  14
ATOM     14  C   UNL d   1      13.399  12.319  -2.366  0.00  0.00     0.103 C 
ATOM     15  C   UNL d   1      12.779  11.789  -2.399  0.00  0.00     0.022 C 
BRANCH  14  16
ATOM     16  N   UNL d   1      13.823  12.426  -1.672  0.00  0.00    -0.190 NA
ATOM     17  C   UNL d   1      13.512  12.155  -0.953  0.00  0.00     0.369 C 
ATOM     18  N   UNL d   1      13.937  12.262  -0.258  0.00  0.00    -0.191 NA
ATOM     19  O   UNL d   1      12.781  11.783  -0.944  0.00  0.00    -0.242 OA
BRANCH  18  20
ATOM     20  C   UNL d   1      14.672  12.637  -0.269  0.00  0.00     0.086 A 
ATOM     21  C   UNL d   1      14.720  13.446  -0.083  0.00  0.00     0.019 A 
ATOM     22  C   UNL d   1      15.450  13.821  -0.092  0.00  0.00     0.002 A 
ATOM     23  C   UNL d   1      16.131  13.399  -0.285  0.00  0.00     0.000 A 
ATOM     24  C   UNL d   1      16.078  12.596  -0.469  0.00  0.00     0.002 A 
ATOM     25  C   UNL d   1      15.345  12.212  -0.461  0.00  0.00     0.019 A 
ENDBRANCH  18  20
ENDBRANCH  14  16
ENDBRANCH   1  14
BRANCH   1  26
ATOM     26  C   UNL d   1      13.551  12.410  -3.781  0.00  0.00     0.047 A 
ATOM     27  S   UNL d   1      12.887  12.042  -4.109  0.00  0.00    -0.085 SA
ATOM     28  C   UNL d   1      13.084  11.780  -4.862  0.00  0.00     0.035 A 
ATOM     29  C   UNL d   1      13.872  11.982  -5.009  0.00  0.00     0.007 A 
ATOM     30  C   UNL d   1      14.158  12.371  -4.340  0.00  0.00     0.009 A 
ENDBRANCH   1  26
TORSDOF 6
ENDMDL
