MODEL 1
REMARK VINA RESULT:      -7.4      0.000      0.000
REMARK  3 active torsions:
REMARK  status: ('A' for Active; 'I' for Inactive)
REMARK    1  A    between atoms: C_15  and  N_4 
REMARK    2  A    between atoms: C_11  and  N_10 
REMARK    3  A    between atoms: C_19  and  C_15 
ROOT
ATOM      1  C   UNL d   1      52.004  34.770  53.836  0.00  0.00     0.191 A 
ATOM      2  C   UNL d   1      52.064  33.962  53.654  0.00  0.00     0.173 A 
ATOM      3  C   UNL d   1      50.872  34.407  53.205  0.00  0.00     0.722 A 
ATOM      4  N   UNL d   1      53.365  33.900  54.254  0.00  0.00    -0.224 N 
ATOM      5  N   UNL d   1      51.275  35.055  53.565  0.00  0.00    -0.042 NA
ATOM      6  N   UNL d   1      51.353  33.742  53.260  0.00  0.00    -0.131 N 
ATOM      7  N   UNL d   1      52.638  35.160  54.238  0.00  0.00    -0.240 N 
ATOM      8  C   UNL d   1      53.331  34.707  54.448  0.00  0.00     0.343 A 
ATOM      9  C   UNL d   1      52.712  33.532  53.848  0.00  0.00     0.288 A 
ATOM     10  N   UNL d   1      50.181  34.190  52.821  0.00  0.00    -0.139 N 
ATOM     11  C   UNL d   1      50.957  33.111  52.907  0.00  0.00     0.118 A 
ATOM     12  C   UNL d   1      50.232  33.395  52.638  0.00  0.00     0.117 A 
ATOM     13  O   UNL d   1      53.985  35.063  54.851  0.00  0.00    -0.245 OA
ATOM     14  O   UNL d   1      52.772  32.709  53.662  0.00  0.00    -0.265 OA
ATOM     15  C   UNL d   1      52.589  35.974  54.427  0.00  0.00     0.105 C 
ENDROOT
BRANCH  10  16
ATOM     16  C   UNL d   1      49.544  34.689  52.649  0.00  0.00     0.082 A 
ATOM     17  C   UNL d   1      49.235  34.697  51.891  0.00  0.00     0.027 A 
ATOM     18  C   UNL d   1      48.606  35.189  51.721  0.00  0.00     0.059 A 
ATOM     19  C   UNL d   1      49.553  34.212  51.299  0.00  0.00     0.002 C 
ATOM     20 CL   UNL d   1      48.347  35.144  50.938  0.00  0.00    -0.082 Cl
ATOM     21  C   UNL d   1      48.283  35.676  52.308  0.00  0.00     0.011 A 
ATOM     22  C   UNL d   1      48.597  35.665  53.072  0.00  0.00     0.002 A 
ATOM     23  C   UNL d   1      49.232  35.167  53.240  0.00  0.00     0.018 A 
ENDBRANCH  10  16
BRANCH   4  24
ATOM     24  C   UNL d   1      54.113  33.865  54.599  0.00  0.00     0.087 C 
BRANCH  24  25
ATOM     25  C   UNL d   1      54.501  33.144  54.650  0.00  0.00     0.018 C 
ATOM     26  C   UNL d   1      55.001  32.907  54.039  0.00  0.00     0.002 C 
ATOM     27  C   UNL d   1      54.400  32.656  55.297  0.00  0.00     0.002 C 
ENDBRANCH  24  25
ENDBRANCH   4  24
TORSDOF 3
ENDMDL
MODEL 2
REMARK VINA RESULT:      -6.8      2.559      5.301
REMARK  3 active torsions:
REMARK  status: ('A' for Active; 'I' for Inactive)
REMARK    1  A    between atoms: C_15  and  N_4 
REMARK    2  A    between atoms: C_11  and  N_10 
REMARK    3  A    between atoms: C_19  and  C_15 
ROOT
ATOM      1  C   UNL d   1      48.737  35.539  53.067  0.00  0.00     0.191 A 
ATOM      2  C   UNL d   1      48.554  35.200  52.332  0.00  0.00     0.173 A 
ATOM      3  C   UNL d   1      49.799  34.812  52.676  0.00  0.00     0.722 A 
ATOM      4  N   UNL d   1      47.260  35.817  52.343  0.00  0.00    -0.224 N 
ATOM      5  N   UNL d   1      49.501  35.308  53.289  0.00  0.00    -0.042 NA
ATOM      6  N   UNL d   1      49.222  34.747  52.093  0.00  0.00    -0.131 N 
ATOM      7  N   UNL d   1      48.171  36.032  53.456  0.00  0.00    -0.240 N 
ATOM      8  C   UNL d   1      47.417  36.169  53.078  0.00  0.00     0.343 A 
ATOM      9  C   UNL d   1      47.849  35.325  51.972  0.00  0.00     0.288 A 
ATOM     10  N   UNL d   1      50.449  34.369  52.441  0.00  0.00    -0.139 N 
ATOM     11  C   UNL d   1      49.517  34.261  51.495  0.00  0.00     0.118 A 
ATOM     12  C   UNL d   1      50.277  34.031  51.718  0.00  0.00     0.117 A 
ATOM     13  O   UNL d   1      46.826  36.657  53.438  0.00  0.00    -0.245 OA
ATOM     14  O   UNL d   1      47.663  34.978  51.223  0.00  0.00    -0.265 OA
ATOM     15  C   UNL d   1      48.344  36.381  54.198  0.00  0.00     0.105 C 
ENDROOT
BRANCH  10  16
ATOM     16  C   UNL d   1      51.154  34.281  52.864  0.00  0.00     0.082 A 
ATOM     17  C   UNL d   1      51.362  33.541  53.145  0.00  0.00     0.027 A 
ATOM     18  C   UNL d   1      52.058  33.453  53.562  0.00  0.00     0.059 A 
ATOM     19  C   UNL d   1      50.875  32.884  53.010  0.00  0.00     0.002 C 
ATOM     20 CL   UNL d   1      52.203  32.680  53.814  0.00  0.00    -0.082 Cl
ATOM     21  C   UNL d   1      52.550  34.105  53.701  0.00  0.00     0.011 A 
ATOM     22  C   UNL d   1      52.337  34.850  53.416  0.00  0.00     0.002 A 
ATOM     23  C   UNL d   1      51.634  34.935  52.995  0.00  0.00     0.018 A 
ENDBRANCH  10  16
BRANCH   4  24
ATOM     24  C   UNL d   1      46.516  36.173  52.349  0.00  0.00     0.087 C 
BRANCH  24  25
ATOM     25  C   UNL d   1      45.934  35.901  51.840  0.00  0.00     0.018 C 
ATOM     26  C   UNL d   1      45.841  36.256  51.101  0.00  0.00     0.002 C 
ATOM     27  C   UNL d   1      45.443  35.283  52.051  0.00  0.00     0.002 C 
ENDBRANCH  24  25
ENDBRANCH   4  24
TORSDOF 3
ENDMDL
MODEL 3
REMARK VINA RESULT:      -6.0      2.726      4.631
REMARK  3 active torsions:
REMARK  status: ('A' for Active; 'I' for Inactive)
REMARK    1  A    between atoms: C_15  and  N_4 
REMARK    2  A    between atoms: C_11  and  N_10 
REMARK    3  A    between atoms: C_19  and  C_15 
ROOT
ATOM      1  C   UNL d   1      52.383  33.075  53.553  0.00  0.00     0.191 A 
ATOM      2  C   UNL d   1      53.134  33.274  53.845  0.00  0.00     0.173 A 
ATOM      3  C   UNL d   1      53.104  31.942  53.635  0.00  0.00     0.722 A 
ATOM      4  N   UNL d   1      52.763  34.657  53.922  0.00  0.00    -0.224 N 
ATOM      5  N   UNL d   1      52.352  32.258  53.420  0.00  0.00    -0.042 NA
ATOM      6  N   UNL d   1      53.579  32.561  53.894  0.00  0.00    -0.131 N 
ATOM      7  N   UNL d   1      51.801  33.678  53.440  0.00  0.00    -0.240 N 
ATOM      8  C   UNL d   1      52.004  34.486  53.632  0.00  0.00     0.343 A 
ATOM      9  C   UNL d   1      53.331  34.030  54.026  0.00  0.00     0.288 A 
ATOM     10  N   UNL d   1      53.540  31.248  53.684  0.00  0.00    -0.139 N 
ATOM     11  C   UNL d   1      54.314  32.249  54.103  0.00  0.00     0.118 A 
ATOM     12  C   UNL d   1      54.282  31.436  53.970  0.00  0.00     0.117 A 
ATOM     13  O   UNL d   1      51.447  35.116  53.532  0.00  0.00    -0.245 OA
ATOM     14  O   UNL d   1      54.097  34.231  54.324  0.00  0.00    -0.265 OA
ATOM     15  C   UNL d   1      51.039  33.490  53.147  0.00  0.00     0.105 C 
ENDROOT
BRANCH  10  16
ATOM     16  C   UNL d   1      53.274  30.493  53.478  0.00  0.00     0.082 A 
ATOM     17  C   UNL d   1      53.281  29.900  54.042  0.00  0.00     0.027 A 
ATOM     18  C   UNL d   1      53.019  29.153  53.841  0.00  0.00     0.059 A 
ATOM     19  C   UNL d   1      53.549  30.050  54.812  0.00  0.00     0.002 C 
ATOM     20 CL   UNL d   1      53.053  28.607  54.459  0.00  0.00    -0.082 Cl
ATOM     21  C   UNL d   1      52.749  28.996  53.073  0.00  0.00     0.011 A 
ATOM     22  C   UNL d   1      52.744  29.597  52.506  0.00  0.00     0.002 A 
ATOM     23  C   UNL d   1      53.009  30.349  52.714  0.00  0.00     0.018 A 
ENDBRANCH  10  16
BRANCH   4  24
ATOM     24  C   UNL d   1      52.550  35.453  53.966  0.00  0.00     0.087 C 
BRANCH  24  25
ATOM     25  C   UNL d   1      52.997  35.966  54.422  0.00  0.00     0.018 C 
ATOM     26  C   UNL d   1      53.632  36.366  54.079  0.00  0.00     0.002 C 
ATOM     27  C   UNL d   1      52.826  36.090  55.211  0.00  0.00     0.002 C 
ENDBRANCH  24  25
ENDBRANCH   4  24
TORSDOF 3
ENDMDL
MODEL 4
REMARK VINA RESULT:      -5.5      2.349      4.019
REMARK  3 active torsions:
REMARK  status: ('A' for Active; 'I' for Inactive)
REMARK    1  A    between atoms: C_15  and  N_4 
REMARK    2  A    between atoms: C_11  and  N_10 
REMARK    3  A    between atoms: C_19  and  C_15 
ROOT
ATOM      1  C   UNL d   1      48.648  35.010  51.993  0.00  0.00     0.191 A 
ATOM      2  C   UNL d   1      48.951  35.215  52.738  0.00  0.00     0.173 A 
ATOM      3  C   UNL d   1      47.675  35.646  52.670  0.00  0.00     0.722 A 
ATOM      4  N   UNL d   1      50.216  34.623  52.412  0.00  0.00    -0.224 N 
ATOM      5  N   UNL d   1      47.864  35.270  51.939  0.00  0.00    -0.042 NA
ATOM      6  N   UNL d   1      48.338  35.612  53.156  0.00  0.00    -0.131 N 
ATOM      7  N   UNL d   1      49.136  34.600  51.438  0.00  0.00    -0.240 N 
ATOM      8  C   UNL d   1      49.938  34.406  51.660  0.00  0.00     0.343 A 
ATOM      9  C   UNL d   1      49.703  35.036  52.953  0.00  0.00     0.288 A 
ATOM     10  N   UNL d   1      47.079  36.033  53.080  0.00  0.00    -0.139 N 
ATOM     11  C   UNL d   1      48.150  35.981  53.870  0.00  0.00     0.118 A 
ATOM     12  C   UNL d   1      47.369  36.239  53.815  0.00  0.00     0.117 A 
ATOM     13  O   UNL d   1      50.456  33.996  51.130  0.00  0.00    -0.245 OA
ATOM     14  O   UNL d   1      50.011  35.245  53.713  0.00  0.00    -0.265 OA
ATOM     15  C   UNL d   1      48.842  34.387  50.683  0.00  0.00     0.105 C 
ENDROOT
BRANCH  10  16
ATOM     16  C   UNL d   1      46.317  36.188  52.797  0.00  0.00     0.082 A 
ATOM     17  C   UNL d   1      45.671  35.973  53.251  0.00  0.00     0.027 A 
ATOM     18  C   UNL d   1      44.919  36.125  52.973  0.00  0.00     0.059 A 
ATOM     19  C   UNL d   1      45.773  35.604  53.987  0.00  0.00     0.002 C 
ATOM     20 CL   UNL d   1      44.316  35.881  53.483  0.00  0.00    -0.082 Cl
ATOM     21  C   UNL d   1      44.809  36.493  52.239  0.00  0.00     0.011 A 
ATOM     22  C   UNL d   1      45.463  36.709  51.784  0.00  0.00     0.002 A 
ATOM     23  C   UNL d   1      46.221  36.554  52.068  0.00  0.00     0.018 A 
ENDBRANCH  10  16
BRANCH   4  24
ATOM     24  C   UNL d   1      50.943  34.282  52.224  0.00  0.00     0.087 C 
BRANCH  24  25
ATOM     25  C   UNL d   1      51.498  34.163  52.816  0.00  0.00     0.018 C 
ATOM     26  C   UNL d   1      52.108  34.710  52.916  0.00  0.00     0.002 C 
ATOM     27  C   UNL d   1      51.459  33.513  53.308  0.00  0.00     0.002 C 
ENDBRANCH  24  25
ENDBRANCH   4  24
TORSDOF 3
ENDMDL
MODEL 5
REMARK VINA RESULT:      -5.0      3.045      4.398
REMARK  3 active torsions:
REMARK  status: ('A' for Active; 'I' for Inactive)
REMARK    1  A    between atoms: C_15  and  N_4 
REMARK    2  A    between atoms: C_11  and  N_10 
REMARK    3  A    between atoms: C_19  and  C_15 
ROOT
ATOM      1  C   UNL d   1      52.981  31.524  53.601  0.00  0.00     0.191 A 
ATOM      2  C   UNL d   1      53.437  31.391  54.282  0.00  0.00     0.173 A 
ATOM      3  C   UNL d   1      53.354  32.723  54.085  0.00  0.00     0.722 A 
ATOM      4  N   UNL d   1      53.284  29.973  54.135  0.00  0.00    -0.224 N 
ATOM      5  N   UNL d   1      52.923  32.340  53.470  0.00  0.00    -0.042 NA
ATOM      6  N   UNL d   1      53.666  32.145  54.580  0.00  0.00    -0.131 N 
ATOM      7  N   UNL d   1      52.666  30.869  53.170  0.00  0.00    -0.240 N 
ATOM      8  C   UNL d   1      52.826  30.077  53.451  0.00  0.00     0.343 A 
ATOM      9  C   UNL d   1      53.590  30.651  54.550  0.00  0.00     0.288 A 
ATOM     10  N   UNL d   1      53.579  33.456  54.378  0.00  0.00    -0.139 N 
ATOM     11  C   UNL d   1      54.086  32.522  55.181  0.00  0.00     0.118 A 
ATOM     12  C   UNL d   1      54.028  33.334  55.049  0.00  0.00     0.117 A 
ATOM     13  O   UNL d   1      52.526  29.397  53.045  0.00  0.00    -0.245 OA
ATOM     14  O   UNL d   1      54.054  30.517  55.245  0.00  0.00    -0.265 OA
ATOM     15  C   UNL d   1      52.205  30.990  52.481  0.00  0.00     0.105 C 
ENDROOT
BRANCH  10  16
ATOM     16  C   UNL d   1      53.384  34.190  54.049  0.00  0.00     0.082 A 
ATOM     17  C   UNL d   1      53.192  34.812  54.546  0.00  0.00     0.027 A 
ATOM     18  C   UNL d   1      53.000  35.536  54.222  0.00  0.00     0.059 A 
ATOM     19  C   UNL d   1      53.192  34.713  55.369  0.00  0.00     0.002 C 
ATOM     20 CL   UNL d   1      52.818  36.116  54.782  0.00  0.00    -0.082 Cl
ATOM     21  C   UNL d   1      52.999  35.643  53.401  0.00  0.00     0.011 A 
ATOM     22  C   UNL d   1      53.193  35.013  52.903  0.00  0.00     0.002 A 
ATOM     23  C   UNL d   1      53.386  34.283  53.233  0.00  0.00     0.018 A 
ENDBRANCH  10  16
BRANCH   4  24
ATOM     24  C   UNL d   1      53.196  29.157  54.050  0.00  0.00     0.087 C 
BRANCH  24  25
ATOM     25  C   UNL d   1      53.478  28.658  54.636  0.00  0.00     0.018 C 
ATOM     26  C   UNL d   1      54.157  28.209  54.496  0.00  0.00     0.002 C 
ATOM     27  C   UNL d   1      53.099  28.595  55.356  0.00  0.00     0.002 C 
ENDBRANCH  24  25
ENDBRANCH   4  24
TORSDOF 3
ENDMDL
