MODEL 1
REMARK VINA RESULT:      27.1      0.000      0.000
REMARK  7 active torsions:
REMARK  status: ('A' for Active; 'I' for Inactive)
REMARK    1  A    between atoms: C_4  and  N_1 
REMARK       I    between atoms: C_2  and  N_6 
REMARK    2  A    between atoms: C_3  and  C_2 
REMARK    3  A    between atoms: C_5  and  C_3 
REMARK    4  A    between atoms: C_12  and  C_5 
REMARK    5  A    between atoms: N_6  and  C_11 
REMARK    6  A    between atoms: O_22  and  C_13 
REMARK    7  A    between atoms: C_25  and  O_22 
ROOT
ATOM      1  C   UNL d   1      46.180 -18.187  44.373  0.00  0.00     0.328 C 
ATOM      2  N   UNL d   1      46.053 -17.377  44.395  0.00  0.00    -0.365 NA
ATOM      3  O   UNL d   1      45.853 -18.674  44.953  0.00  0.00    -0.251 OA
ENDROOT
BRANCH   1   4
ATOM      4  C   UNL d   1      46.636 -18.518  43.771  0.00  0.00     0.076 C 
BRANCH   4   5
ATOM      5  C   UNL d   1      46.308 -19.091  43.274  0.00  0.00     0.006 C 
BRANCH   5   6
ATOM      6  C   UNL d   1      46.330 -18.978  42.454  0.00  0.00     0.000 A 
ATOM      7  C   UNL d   1      46.622 -19.582  41.963  0.00  0.00     0.002 A 
ATOM      8  C   UNL d   1      46.646 -19.476  41.148  0.00  0.00     0.025 A 
ATOM      9  C   UNL d   1      46.380 -18.766  40.812  0.00  0.00     0.100 A 
ATOM     10  C   UNL d   1      46.090 -18.165  41.294  0.00  0.00     0.025 A 
ATOM     11  C   UNL d   1      46.064 -18.268  42.118  0.00  0.00     0.002 A 
BRANCH   9  12
ATOM     12  O   UNL d   1      46.404 -18.661  39.996  0.00  0.00    -0.305 OA
BRANCH  12  13
ATOM     13  C   UNL d   1      46.302 -17.908  39.677  0.00  0.00     0.123 C 
ATOM     14  C   UNL d   1      45.575 -17.691  39.353  0.00  0.00     0.029 C 
ENDBRANCH  12  13
ENDBRANCH   9  12
ENDBRANCH   5   6
ENDBRANCH   4   5
ENDBRANCH   1   4
BRANCH   2  15
ATOM     15  C   UNL d   1      45.921 -16.561  44.422  0.00  0.00     0.135 A 
ATOM     16  C   UNL d   1      45.232 -16.258  44.770  0.00  0.00     0.034 A 
ATOM     17  C   UNL d   1      45.113 -15.441  44.791  0.00  0.00     0.020 A 
ATOM     18  C   UNL d   1      45.675 -14.930  44.469  0.00  0.00     0.064 A 
ATOM     19  C   UNL d   1      46.357 -15.232  44.124  0.00  0.00     0.020 A 
ATOM     20  C   UNL d   1      46.480 -16.046  44.101  0.00  0.00     0.034 A 
BRANCH  18  21
ATOM     21  N   UNL d   1      45.552 -14.116  44.491  0.00  0.00    -0.300 N 
ATOM     22  C   UNL d   1      44.792 -13.810  44.391  0.00  0.00     0.107 A 
ATOM     23  C   UNL d   1      44.667 -13.000  44.413  0.00  0.00     0.142 A 
ATOM     24  O   UNL d   1      45.305 -12.489  44.537  0.00  0.00    -0.300 OA
ATOM     25  C   UNL d   1      46.065 -12.795  44.637  0.00  0.00     0.142 A 
ATOM     26  C   UNL d   1      46.192 -13.610  44.615  0.00  0.00     0.107 A 
ENDBRANCH  18  21
ENDBRANCH   2  15
TORSDOF 7
ENDMDL
