MODEL 1
REMARK VINA RESULT:      -3.0      0.000      0.000
REMARK  6 active torsions:
REMARK  status: ('A' for Active; 'I' for Inactive)
REMARK    1  A    between atoms: C_4  and  N_1 
REMARK    2  A    between atoms: C_3  and  C_2 
REMARK    3  A    between atoms: S_6  and  C_11 
REMARK    4  A    between atoms: C_7  and  S_6 
REMARK    5  A    between atoms: C_8  and  C_10 
REMARK    6  A    between atoms: C_11  and  C_8 
ROOT
ATOM      1  C   UNL d   1      33.118  19.914 -22.232  0.00  0.00     0.202 C 
ATOM      2  O   UNL d   1      33.241  19.578 -21.482  0.00  0.00    -0.286 OA
ENDROOT
BRANCH   1   3
ATOM      3  C   UNL d   1      32.940  19.426 -22.876  0.00  0.00     0.040 A 
ATOM      4  C   UNL d   1      33.241  19.602 -23.625  0.00  0.00     0.005 A 
ATOM      5  C   UNL d   1      33.050  19.104 -24.249  0.00  0.00     0.024 A 
ATOM      6  C   UNL d   1      32.567  18.436 -24.142  0.00  0.00     0.127 A 
ATOM      7  C   UNL d   1      32.272  18.269 -23.392  0.00  0.00     0.024 A 
ATOM      8  C   UNL d   1      32.465  18.770 -22.771  0.00  0.00     0.005 A 
BRANCH   6   9
ATOM      9  N   UNL d   1      32.369  17.922 -24.782  0.00  0.00    -0.114 N 
ATOM     10  O   UNL d   1      31.601  17.937 -25.079  0.00  0.00    -0.532 OA
ATOM     11  O   UNL d   1      32.958  17.414 -25.097  0.00  0.00    -0.532 OA
ENDBRANCH   6   9
ENDBRANCH   1   3
BRANCH   1  12
ATOM     12  C   UNL d   1      33.174  20.721 -22.336  0.00  0.00     0.077 C 
BRANCH  12  13
ATOM     13  S   UNL d   1      32.944  21.244 -21.730  0.00  0.00    -0.083 SA
BRANCH  13  14
ATOM     14  C   UNL d   1      32.865  22.074 -21.882  0.00  0.00     0.035 A 
ATOM     15  C   UNL d   1      32.487  22.544 -21.323  0.00  0.00     0.070 A 
ATOM     16  C   UNL d   1      32.409  23.364 -21.473  0.00  0.00     0.007 A 
ATOM     17  C   UNL d   1      32.711  23.693 -22.178  0.00  0.00     0.000 A 
ATOM     18  C   UNL d   1      33.083  23.207 -22.719  0.00  0.00     0.001 A 
ATOM     19  C   UNL d   1      33.160  22.398 -22.570  0.00  0.00     0.007 A 
BRANCH  15  20
ATOM     20  C   UNL d   1      32.177  22.214 -20.604  0.00  0.00     0.211 C 
ATOM     21  O   UNL d   1      32.641  22.230 -19.913  0.00  0.00    -0.644 OA
ATOM     22  O   UNL d   1      31.423  21.876 -20.582  0.00  0.00    -0.644 OA
ENDBRANCH  15  20
ENDBRANCH  13  14
ENDBRANCH  12  13
ENDBRANCH   1  12
TORSDOF 6
ENDMDL
MODEL 2
REMARK VINA RESULT:      -2.4      2.208      5.397
REMARK  6 active torsions:
REMARK  status: ('A' for Active; 'I' for Inactive)
REMARK    1  A    between atoms: C_4  and  N_1 
REMARK    2  A    between atoms: C_3  and  C_2 
REMARK    3  A    between atoms: S_6  and  C_11 
REMARK    4  A    between atoms: C_7  and  S_6 
REMARK    5  A    between atoms: C_8  and  C_10 
REMARK    6  A    between atoms: C_11  and  C_8 
ROOT
ATOM      1  C   UNL d   1      32.811  18.720 -23.483  0.00  0.00     0.202 C 
ATOM      2  O   UNL d   1      33.241  18.840 -24.185  0.00  0.00    -0.286 OA
ENDROOT
BRANCH   1   3
ATOM      3  C   UNL d   1      32.864  19.274 -22.870  0.00  0.00     0.040 A 
ATOM      4  C   UNL d   1      33.199  19.059 -22.146  0.00  0.00     0.005 A 
ATOM      5  C   UNL d   1      33.241  19.625 -21.553  0.00  0.00     0.024 A 
ATOM      6  C   UNL d   1      32.957  20.398 -21.666  0.00  0.00     0.127 A 
ATOM      7  C   UNL d   1      32.624  20.602 -22.391  0.00  0.00     0.024 A 
ATOM      8  C   UNL d   1      32.585  20.033 -22.981  0.00  0.00     0.005 A 
BRANCH   6   9
ATOM      9  N   UNL d   1      32.999  20.981 -21.057  0.00  0.00    -0.114 N 
ATOM     10  O   UNL d   1      33.159  20.738 -20.286  0.00  0.00    -0.532 OA
ATOM     11  O   UNL d   1      32.877  21.788 -21.253  0.00  0.00    -0.532 OA
ENDBRANCH   6   9
ENDBRANCH   1   3
BRANCH   1  12
ATOM     12  C   UNL d   1      32.339  18.062 -23.396  0.00  0.00     0.077 C 
BRANCH  12  13
ATOM     13  S   UNL d   1      32.380  17.435 -23.944  0.00  0.00    -0.083 SA
BRANCH  13  14
ATOM     14  C   UNL d   1      31.752  16.867 -23.999  0.00  0.00     0.035 A 
ATOM     15  C   UNL d   1      31.944  16.072 -24.081  0.00  0.00     0.070 A 
ATOM     16  C   UNL d   1      31.325  15.512 -24.135  0.00  0.00     0.007 A 
ATOM     17  C   UNL d   1      30.528  15.762 -24.107  0.00  0.00     0.000 A 
ATOM     18  C   UNL d   1      30.362  16.557 -24.025  0.00  0.00     0.001 A 
ATOM     19  C   UNL d   1      30.973  17.110 -23.971  0.00  0.00     0.007 A 
BRANCH  15  20
ATOM     20  C   UNL d   1      32.753  15.814 -24.110  0.00  0.00     0.211 C 
ATOM     21  O   UNL d   1      33.157  15.816 -24.839  0.00  0.00    -0.644 OA
ATOM     22  O   UNL d   1      33.143  15.561 -23.426  0.00  0.00    -0.644 OA
ENDBRANCH  15  20
ENDBRANCH  13  14
ENDBRANCH  12  13
ENDBRANCH   1  12
TORSDOF 6
ENDMDL
MODEL 3
REMARK VINA RESULT:      -2.3      1.317      1.854
REMARK  6 active torsions:
REMARK  status: ('A' for Active; 'I' for Inactive)
REMARK    1  A    between atoms: C_4  and  N_1 
REMARK    2  A    between atoms: C_3  and  C_2 
REMARK    3  A    between atoms: S_6  and  C_11 
REMARK    4  A    between atoms: C_7  and  S_6 
REMARK    5  A    between atoms: C_8  and  C_10 
REMARK    6  A    between atoms: C_11  and  C_8 
ROOT
ATOM      1  C   UNL d   1      32.996  19.730 -23.030  0.00  0.00     0.202 C 
ATOM      2  O   UNL d   1      33.241  20.230 -23.648  0.00  0.00    -0.286 OA
ENDROOT
BRANCH   1   3
ATOM      3  C   UNL d   1      32.740  18.962 -23.200  0.00  0.00     0.040 A 
ATOM      4  C   UNL d   1      33.046  18.322 -22.778  0.00  0.00     0.005 A 
ATOM      5  C   UNL d   1      32.777  17.568 -22.964  0.00  0.00     0.024 A 
ATOM      6  C   UNL d   1      32.212  17.441 -23.560  0.00  0.00     0.127 A 
ATOM      7  C   UNL d   1      31.914  18.086 -23.975  0.00  0.00     0.024 A 
ATOM      8  C   UNL d   1      32.185  18.838 -23.785  0.00  0.00     0.005 A 
BRANCH   6   9
ATOM      9  N   UNL d   1      31.935  16.667 -23.752  0.00  0.00    -0.114 N 
ATOM     10  O   UNL d   1      32.313  16.017 -23.417  0.00  0.00    -0.532 OA
ATOM     11  O   UNL d   1      31.286  16.583 -24.277  0.00  0.00    -0.532 OA
ENDBRANCH   6   9
ENDBRANCH   1   3
BRANCH   1  12
ATOM     12  C   UNL d   1      33.007  19.994 -22.259  0.00  0.00     0.077 C 
BRANCH  12  13
ATOM     13  S   UNL d   1      32.965  20.809 -22.088  0.00  0.00    -0.083 SA
BRANCH  13  14
ATOM     14  C   UNL d   1      32.988  21.084 -21.286  0.00  0.00     0.035 A 
ATOM     15  C   UNL d   1      32.776  21.863 -21.130  0.00  0.00     0.070 A 
ATOM     16  C   UNL d   1      32.800  22.135 -20.338  0.00  0.00     0.007 A 
ATOM     17  C   UNL d   1      33.035  21.621 -19.723  0.00  0.00     0.000 A 
ATOM     18  C   UNL d   1      33.241  20.852 -19.903  0.00  0.00     0.001 A 
ATOM     19  C   UNL d   1      33.218  20.583 -20.684  0.00  0.00     0.007 A 
BRANCH  15  20
ATOM     20  C   UNL d   1      32.537  22.390 -21.752  0.00  0.00     0.211 C 
ATOM     21  O   UNL d   1      33.108  22.863 -22.130  0.00  0.00    -0.644 OA
ATOM     22  O   UNL d   1      31.745  22.438 -21.986  0.00  0.00    -0.644 OA
ENDBRANCH  15  20
ENDBRANCH  13  14
ENDBRANCH  12  13
ENDBRANCH   1  12
TORSDOF 6
ENDMDL
MODEL 4
REMARK VINA RESULT:      -1.0      1.943      4.723
REMARK  6 active torsions:
REMARK  status: ('A' for Active; 'I' for Inactive)
REMARK    1  A    between atoms: C_4  and  N_1 
REMARK    2  A    between atoms: C_3  and  C_2 
REMARK    3  A    between atoms: S_6  and  C_11 
REMARK    4  A    between atoms: C_7  and  S_6 
REMARK    5  A    between atoms: C_8  and  C_10 
REMARK    6  A    between atoms: C_11  and  C_8 
ROOT
ATOM      1  C   UNL d   1      32.931  19.945 -21.472  0.00  0.00     0.202 C 
ATOM      2  O   UNL d   1      32.975  19.277 -20.979  0.00  0.00    -0.286 OA
ENDROOT
BRANCH   1   3
ATOM      3  C   UNL d   1      32.884  20.700 -21.137  0.00  0.00     0.040 A 
ATOM      4  C   UNL d   1      32.771  21.361 -21.620  0.00  0.00     0.005 A 
ATOM      5  C   UNL d   1      32.727  22.100 -21.265  0.00  0.00     0.024 A 
ATOM      6  C   UNL d   1      32.792  22.193 -20.442  0.00  0.00     0.127 A 
ATOM      7  C   UNL d   1      32.904  21.529 -19.970  0.00  0.00     0.024 A 
ATOM      8  C   UNL d   1      32.948  20.792 -20.329  0.00  0.00     0.005 A 
BRANCH   6   9
ATOM      9  N   UNL d   1      32.747  22.953 -20.075  0.00  0.00    -0.114 N 
ATOM     10  O   UNL d   1      33.102  23.059 -19.340  0.00  0.00    -0.532 OA
ATOM     11  O   UNL d   1      32.343  23.575 -20.468  0.00  0.00    -0.532 OA
ENDBRANCH   6   9
ENDBRANCH   1   3
BRANCH   1  12
ATOM     12  C   UNL d   1      32.936  19.860 -22.283  0.00  0.00     0.077 C 
BRANCH  12  13
ATOM     13  S   UNL d   1      33.156  19.136 -22.632  0.00  0.00    -0.083 SA
BRANCH  13  14
ATOM     14  C   UNL d   1      33.075  19.017 -23.468  0.00  0.00     0.035 A 
ATOM     15  C   UNL d   1      32.825  18.282 -23.740  0.00  0.00     0.070 A 
ATOM     16  C   UNL d   1      32.745  18.164 -24.564  0.00  0.00     0.007 A 
ATOM     17  C   UNL d   1      32.915  18.784 -25.097  0.00  0.00     0.000 A 
ATOM     18  C   UNL d   1      33.161  19.506 -24.804  0.00  0.00     0.001 A 
ATOM     19  C   UNL d   1      33.241  19.622 -23.990  0.00  0.00     0.007 A 
BRANCH  15  20
ATOM     20  C   UNL d   1      32.650  17.648 -23.202  0.00  0.00     0.211 C 
ATOM     21  O   UNL d   1      31.873  17.555 -22.918  0.00  0.00    -0.644 OA
ATOM     22  O   UNL d   1      33.241  17.123 -22.957  0.00  0.00    -0.644 OA
ENDBRANCH  15  20
ENDBRANCH  13  14
ENDBRANCH  12  13
ENDBRANCH   1  12
TORSDOF 6
ENDMDL
MODEL 5
REMARK VINA RESULT:      -0.4      2.273      3.546
REMARK  6 active torsions:
REMARK  status: ('A' for Active; 'I' for Inactive)
REMARK    1  A    between atoms: C_4  and  N_1 
REMARK    2  A    between atoms: C_3  and  C_2 
REMARK    3  A    between atoms: S_6  and  C_11 
REMARK    4  A    between atoms: C_7  and  S_6 
REMARK    5  A    between atoms: C_8  and  C_10 
REMARK    6  A    between atoms: C_11  and  C_8 
ROOT
ATOM      1  C   UNL d   1      32.007  17.823 -24.347  0.00  0.00     0.202 C 
ATOM      2  O   UNL d   1      32.402  17.877 -25.076  0.00  0.00    -0.286 OA
ENDROOT
BRANCH   1   3
ATOM      3  C   UNL d   1      31.312  17.377 -24.288  0.00  0.00     0.040 A 
ATOM      4  C   UNL d   1      31.275  16.733 -23.773  0.00  0.00     0.005 A 
ATOM      5  C   UNL d   1      30.575  16.306 -23.731  0.00  0.00     0.024 A 
ATOM      6  C   UNL d   1      29.914  16.508 -24.192  0.00  0.00     0.127 A 
ATOM      7  C   UNL d   1      29.960  17.151 -24.703  0.00  0.00     0.024 A 
ATOM      8  C   UNL d   1      30.662  17.575 -24.740  0.00  0.00     0.005 A 
BRANCH   6   9
ATOM      9  N   UNL d   1      29.193  16.070 -24.151  0.00  0.00    -0.114 N 
ATOM     10  O   UNL d   1      28.686  16.079 -24.801  0.00  0.00    -0.532 OA
ATOM     11  O   UNL d   1      29.014  15.639 -23.453  0.00  0.00    -0.532 OA
ENDBRANCH   6   9
ENDBRANCH   1   3
BRANCH   1  12
ATOM     12  C   UNL d   1      32.301  18.206 -23.690  0.00  0.00     0.077 C 
BRANCH  12  13
ATOM     13  S   UNL d   1      32.746  18.906 -23.771  0.00  0.00    -0.083 SA
BRANCH  13  14
ATOM     14  C   UNL d   1      32.910  19.394 -23.097  0.00  0.00     0.035 A 
ATOM     15  C   UNL d   1      33.079  20.189 -23.217  0.00  0.00     0.070 A 
ATOM     16  C   UNL d   1      33.241  20.671 -22.552  0.00  0.00     0.007 A 
ATOM     17  C   UNL d   1      33.230  20.345 -21.783  0.00  0.00     0.000 A 
ATOM     18  C   UNL d   1      33.059  19.552 -21.688  0.00  0.00     0.001 A 
ATOM     19  C   UNL d   1      32.899  19.077 -22.345  0.00  0.00     0.007 A 
BRANCH  15  20
ATOM     20  C   UNL d   1      33.092  20.526 -23.997  0.00  0.00     0.211 C 
ATOM     21  O   UNL d   1      32.957  21.342 -24.093  0.00  0.00    -0.644 OA
ATOM     22  O   UNL d   1      33.236  20.053 -24.661  0.00  0.00    -0.644 OA
ENDBRANCH  15  20
ENDBRANCH  13  14
ENDBRANCH  12  13
ENDBRANCH   1  12
TORSDOF 6
ENDMDL
