MODEL 1
REMARK VINA RESULT:      53.4      0.000      0.000
REMARK  4 active torsions:
REMARK  status: ('A' for Active; 'I' for Inactive)
REMARK    1  A    between atoms: C_8  and  C_1 
REMARK    2  A    between atoms: C_14  and  C_5 
REMARK    3  A    between atoms: O_16  and  C_8 
REMARK    4  A    between atoms: C_21  and  O_16 
ROOT
ATOM      1  C   UNL d   1      46.349 -18.932  43.368  0.00  0.00     0.106 A 
ATOM      2  C   UNL d   1      46.537 -19.579  42.892  0.00  0.00     0.208 A 
ATOM      3  C   UNL d   1      46.321 -18.085  42.208  0.00  0.00     0.061 A 
ATOM      4  C   UNL d   1      46.508 -18.732  41.731  0.00  0.00     0.101 A 
ATOM      5  C   UNL d   1      46.239 -18.173  43.022  0.00  0.00     0.014 A 
ATOM      6  O   UNL d   1      46.616 -19.471  42.066  0.00  0.00    -0.288 OA
ATOM      7  C   UNL d   1      46.211 -17.344  41.886  0.00  0.00     0.194 A 
ATOM      8  C   UNL d   1      46.588 -18.642  40.930  0.00  0.00     0.002 A 
ATOM      9  C   UNL d   1      46.480 -17.906  40.599  0.00  0.00     0.042 A 
ATOM     10  C   UNL d   1      46.293 -17.259  41.075  0.00  0.00     0.019 A 
ATOM     11  O   UNL d   1      46.025 -16.701  42.359  0.00  0.00    -0.287 OA
ATOM     12  N   UNL d   1      46.645 -20.330  43.244  0.00  0.00    -0.121 N 
ATOM     13  C   UNL d   1      46.423 -17.288  40.054  0.00  0.00     0.009 C 
ATOM     14  C   UNL d   1      46.638 -18.230  39.839  0.00  0.00     0.009 C 
ENDROOT
BRANCH   5  15
ATOM     15  C   UNL d   1      46.053 -17.530  43.496  0.00  0.00     0.000 A 
ATOM     16  C   UNL d   1      46.625 -17.187  43.974  0.00  0.00     0.000 A 
ATOM     17  C   UNL d   1      46.408 -16.537  44.443  0.00  0.00     0.000 A 
ATOM     18  C   UNL d   1      45.656 -16.233  44.444  0.00  0.00     0.000 A 
ATOM     19  C   UNL d   1      45.083 -16.572  43.969  0.00  0.00     0.000 A 
ATOM     20  C   UNL d   1      45.272 -17.223  43.490  0.00  0.00     0.000 A 
ENDBRANCH   5  15
BRANCH   1  21
ATOM     21  C   UNL d   1      46.268 -19.032  44.200  0.00  0.00     0.304 C 
ATOM     22  O   UNL d   1      46.081 -18.410  44.658  0.00  0.00    -0.259 OA
BRANCH  21  23
ATOM     23  O   UNL d   1      46.384 -19.774  44.526  0.00  0.00    -0.271 OA
BRANCH  23  24
ATOM     24  C   UNL d   1      45.961 -19.997  44.955  0.00  0.00     0.126 C 
ATOM     25  C   UNL d   1      45.204 -20.298  44.723  0.00  0.00     0.029 C 
ENDBRANCH  23  24
ENDBRANCH  21  23
ENDBRANCH   1  21
TORSDOF 4
ENDMDL
MODEL 2
REMARK VINA RESULT:      54.3      1.347      3.553
REMARK  4 active torsions:
REMARK  status: ('A' for Active; 'I' for Inactive)
REMARK    1  A    between atoms: C_8  and  C_1 
REMARK    2  A    between atoms: C_14  and  C_5 
REMARK    3  A    between atoms: O_16  and  C_8 
REMARK    4  A    between atoms: C_21  and  O_16 
ROOT
ATOM      1  C   UNL d   1      45.878 -16.731  43.627  0.00  0.00     0.106 A 
ATOM      2  C   UNL d   1      45.941 -16.775  44.448  0.00  0.00     0.208 A 
ATOM      3  C   UNL d   1      46.162 -18.136  43.530  0.00  0.00     0.061 A 
ATOM      4  C   UNL d   1      46.224 -18.180  44.351  0.00  0.00     0.101 A 
ATOM      5  C   UNL d   1      45.990 -17.421  43.159  0.00  0.00     0.014 A 
ATOM      6  O   UNL d   1      46.116 -17.510  44.807  0.00  0.00    -0.288 OA
ATOM      7  C   UNL d   1      46.267 -18.797  43.064  0.00  0.00     0.194 A 
ATOM      8  C   UNL d   1      46.394 -18.886  44.712  0.00  0.00     0.002 A 
ATOM      9  C   UNL d   1      46.501 -19.551  44.256  0.00  0.00     0.042 A 
ATOM     10  C   UNL d   1      46.438 -19.507  43.435  0.00  0.00     0.019 A 
ATOM     11  O   UNL d   1      46.205 -18.754  42.248  0.00  0.00    -0.287 OA
ATOM     12  N   UNL d   1      45.829 -16.084  44.905  0.00  0.00    -0.121 N 
ATOM     13  C   UNL d   1      46.646 -20.329  44.020  0.00  0.00     0.009 C 
ATOM     14  C   UNL d   1      46.640 -20.001  44.954  0.00  0.00     0.009 C 
ENDROOT
BRANCH   5  15
ATOM     15  C   UNL d   1      45.927 -17.378  42.343  0.00  0.00     0.000 A 
ATOM     16  C   UNL d   1      46.582 -17.186  41.886  0.00  0.00     0.000 A 
ATOM     17  C   UNL d   1      46.489 -17.149  41.061  0.00  0.00     0.000 A 
ATOM     18  C   UNL d   1      45.780 -17.295  40.696  0.00  0.00     0.000 A 
ATOM     19  C   UNL d   1      45.126 -17.486  41.148  0.00  0.00     0.000 A 
ATOM     20  C   UNL d   1      45.189 -17.530  41.974  0.00  0.00     0.000 A 
ENDBRANCH   5  15
BRANCH   1  21
ATOM     21  C   UNL d   1      45.702 -15.995  43.258  0.00  0.00     0.304 C 
ATOM     22  O   UNL d   1      45.144 -15.958  42.693  0.00  0.00    -0.259 OA
BRANCH  21  23
ATOM     23  O   UNL d   1      46.112 -15.325  43.488  0.00  0.00    -0.271 OA
BRANCH  23  24
ATOM     24  C   UNL d   1      45.788 -14.778  43.581  0.00  0.00     0.126 C 
ATOM     25  C   UNL d   1      46.065 -14.178  44.111  0.00  0.00     0.029 C 
ENDBRANCH  23  24
ENDBRANCH  21  23
ENDBRANCH   1  21
TORSDOF 4
ENDMDL
