MODEL 1
REMARK VINA RESULT:      19.4      0.000      0.000
REMARK  1 active torsions:
REMARK  status: ('A' for Active; 'I' for Inactive)
REMARK    1  A    between atoms: C_10  and  C_7 
ROOT
ATOM      1  N   UNL d   1     -52.934  24.527  33.352  0.00  0.00    -0.259 N 
ATOM      2  C   UNL d   1     -52.338  23.935  33.349  0.00  0.00     0.202 A 
ATOM      3  C   UNL d   1     -53.642  24.141  33.338  0.00  0.00     0.227 A 
ATOM      4  C   UNL d   1     -52.573  25.220  33.367  0.00  0.00     0.091 A 
ATOM      5  S   UNL d   1     -51.622  24.289  33.363  0.00  0.00    -0.047 SA
ATOM      6  N   UNL d   1     -52.707  23.207  33.333  0.00  0.00    -0.121 NA
ATOM      7  C   UNL d   1     -51.773  25.093  33.374  0.00  0.00     0.050 A 
ATOM      8  N   UNL d   1     -53.534  23.347  33.326  0.00  0.00    -0.116 NA
ATOM      9  S   UNL d   1     -54.405  24.550  33.336  0.00  0.00    -0.036 SA
ENDROOT
BRANCH   7  10
ATOM     10  C   UNL d   1     -51.252  25.709  33.390  0.00  0.00     0.007 A 
ATOM     11  C   UNL d   1     -50.445  25.539  33.316  0.00  0.00     0.001 A 
ATOM     12  C   UNL d   1     -49.883  26.142  33.328  0.00  0.00     0.000 A 
ATOM     13  C   UNL d   1     -50.169  26.933  33.418  0.00  0.00     0.000 A 
ATOM     14  C   UNL d   1     -50.967  27.107  33.492  0.00  0.00     0.000 A 
ATOM     15  C   UNL d   1     -49.638  27.642  33.442  0.00  0.00     0.000 C 
ATOM     16  C   UNL d   1     -51.517  26.493  33.478  0.00  0.00     0.001 A 
ENDBRANCH   7  10
TORSDOF 1
ENDMDL
MODEL 2
REMARK VINA RESULT:      21.0      0.683      1.085
REMARK  1 active torsions:
REMARK  status: ('A' for Active; 'I' for Inactive)
REMARK    1  A    between atoms: C_10  and  C_7 
ROOT
ATOM      1  N   UNL d   1     -52.317  24.621  33.366  0.00  0.00    -0.259 N 
ATOM      2  C   UNL d   1     -51.559  24.259  33.379  0.00  0.00     0.202 A 
ATOM      3  C   UNL d   1     -52.859  24.024  33.359  0.00  0.00     0.227 A 
ATOM      4  C   UNL d   1     -52.204  25.395  33.365  0.00  0.00     0.091 A 
ATOM      5  S   UNL d   1     -51.000  24.828  33.386  0.00  0.00    -0.047 SA
ATOM      6  N   UNL d   1     -51.669  23.449  33.380  0.00  0.00    -0.121 NA
ATOM      7  C   UNL d   1     -51.407  25.538  33.377  0.00  0.00     0.050 A 
ATOM      8  N   UNL d   1     -52.495  23.310  33.367  0.00  0.00    -0.116 NA
ATOM      9  S   UNL d   1     -53.714  24.159  33.345  0.00  0.00    -0.036 SA
ENDROOT
BRANCH   7  10
ATOM     10  C   UNL d   1     -51.118  26.291  33.379  0.00  0.00     0.007 A 
ATOM     11  C   UNL d   1     -51.656  26.917  33.322  0.00  0.00     0.001 A 
ATOM     12  C   UNL d   1     -51.397  27.700  33.321  0.00  0.00     0.000 A 
ATOM     13  C   UNL d   1     -50.564  27.829  33.381  0.00  0.00     0.000 A 
ATOM     14  C   UNL d   1     -50.025  27.213  33.437  0.00  0.00     0.000 A 
ATOM     15  C   UNL d   1     -50.196  28.635  33.387  0.00  0.00     0.000 C 
ATOM     16  C   UNL d   1     -50.299  26.435  33.437  0.00  0.00     0.001 A 
ENDBRANCH   7  10
TORSDOF 1
ENDMDL
