MODEL 1
REMARK VINA RESULT:      -2.2      0.000      0.000
REMARK  6 active torsions:
REMARK  status: ('A' for Active; 'I' for Inactive)
REMARK    1  A    between atoms: C_5  and  N_1 
REMARK    2  A    between atoms: C_7  and  C_5 
REMARK    3  A    between atoms: O_14  and  C_10 
REMARK    4  A    between atoms: C_18  and  O_14 
REMARK    5  A    between atoms: C_19  and  C_18 
REMARK    6  A    between atoms: C_20  and  C_19 
ROOT
ATOM      1  C   UNL d   1      31.819  17.859 -23.332  0.00  0.00     0.087 C 
ENDROOT
BRANCH   1   2
ATOM      2  N   UNL d   1      32.226  18.493 -23.670  0.00  0.00    -0.251 N 
ATOM      3  C   UNL d   1      32.412  18.619 -24.467  0.00  0.00     0.378 A 
ATOM      4  O   UNL d   1      32.824  19.334 -24.519  0.00  0.00    -0.258 OA
ATOM      5  O   UNL d   1      32.223  18.124 -25.096  0.00  0.00    -0.237 OA
ATOM      6  C   UNL d   1      32.892  19.648 -23.757  0.00  0.00     0.121 A 
ATOM      7  C   UNL d   1      32.522  19.127 -23.232  0.00  0.00     0.092 A 
ATOM      8  C   UNL d   1      33.240  20.339 -23.462  0.00  0.00     0.026 A 
ATOM      9  C   UNL d   1      32.499  19.291 -22.427  0.00  0.00     0.020 A 
ATOM     10  C   UNL d   1      32.845  19.977 -22.140  0.00  0.00     0.002 A 
ATOM     11  C   UNL d   1      33.217  20.503 -22.659  0.00  0.00     0.002 A 
ATOM     12  C   UNL d   1      32.823  20.143 -21.333  0.00  0.00     0.000 C 
ENDBRANCH   1   2
BRANCH   1  13
ATOM     13  C   UNL d   1      32.121  17.091 -23.389  0.00  0.00     0.041 A 
ATOM     14  C   UNL d   1      31.631  16.471 -23.577  0.00  0.00     0.102 A 
ATOM     15  C   UNL d   1      31.932  15.713 -23.633  0.00  0.00     0.025 A 
ATOM     16  C   UNL d   1      32.732  15.574 -23.498  0.00  0.00     0.002 A 
ATOM     17  C   UNL d   1      33.229  16.204 -23.307  0.00  0.00     0.000 A 
ATOM     18  C   UNL d   1      32.920  16.967 -23.252  0.00  0.00     0.004 A 
BRANCH  14  19
ATOM     19  O   UNL d   1      30.826  16.605 -23.714  0.00  0.00    -0.305 OA
BRANCH  19  20
ATOM     20  C   UNL d   1      30.297  15.971 -23.728  0.00  0.00     0.123 C 
BRANCH  20  21
ATOM     21  C   UNL d   1      29.497  16.107 -23.828  0.00  0.00     0.027 C 
BRANCH  21  22
ATOM     22  C   UNL d   1      28.954  15.499 -23.700  0.00  0.00     0.002 C 
ATOM     23  C   UNL d   1      28.159  15.674 -23.552  0.00  0.00     0.000 C 
ENDBRANCH  21  22
ENDBRANCH  20  21
ENDBRANCH  19  20
ENDBRANCH  14  19
ENDBRANCH   1  13
TORSDOF 6
ENDMDL
MODEL 2
REMARK VINA RESULT:      -1.7      1.383      4.202
REMARK  6 active torsions:
REMARK  status: ('A' for Active; 'I' for Inactive)
REMARK    1  A    between atoms: C_5  and  N_1 
REMARK    2  A    between atoms: C_7  and  C_5 
REMARK    3  A    between atoms: O_14  and  C_10 
REMARK    4  A    between atoms: C_18  and  O_14 
REMARK    5  A    between atoms: C_19  and  C_18 
REMARK    6  A    between atoms: C_20  and  C_19 
ROOT
ATOM      1  C   UNL d   1      31.202  17.193 -24.158  0.00  0.00     0.087 C 
ENDROOT
BRANCH   1   2
ATOM      2  N   UNL d   1      30.726  16.577 -24.431  0.00  0.00    -0.251 N 
ATOM      3  C   UNL d   1      30.949  15.903 -24.856  0.00  0.00     0.378 A 
ATOM      4  O   UNL d   1      30.268  15.456 -24.998  0.00  0.00    -0.258 OA
ATOM      5  O   UNL d   1      31.712  15.708 -25.097  0.00  0.00    -0.237 OA
ATOM      6  C   UNL d   1      29.625  15.854 -24.661  0.00  0.00     0.121 A 
ATOM      7  C   UNL d   1      29.909  16.547 -24.310  0.00  0.00     0.092 A 
ATOM      8  C   UNL d   1      28.816  15.683 -24.622  0.00  0.00     0.026 A 
ATOM      9  C   UNL d   1      29.396  17.062 -23.928  0.00  0.00     0.020 A 
ATOM     10  C   UNL d   1      28.595  16.889 -23.892  0.00  0.00     0.002 A 
ATOM     11  C   UNL d   1      28.304  16.198 -24.240  0.00  0.00     0.002 A 
ATOM     12  C   UNL d   1      28.079  17.405 -23.509  0.00  0.00     0.000 C 
ENDBRANCH   1   2
BRANCH   1  13
ATOM     13  C   UNL d   1      31.883  17.030 -23.717  0.00  0.00     0.041 A 
ATOM     14  C   UNL d   1      32.532  17.515 -23.772  0.00  0.00     0.102 A 
ATOM     15  C   UNL d   1      33.205  17.353 -23.336  0.00  0.00     0.025 A 
ATOM     16  C   UNL d   1      33.226  16.696 -22.840  0.00  0.00     0.002 A 
ATOM     17  C   UNL d   1      32.567  16.204 -22.785  0.00  0.00     0.000 A 
ATOM     18  C   UNL d   1      31.891  16.373 -23.227  0.00  0.00     0.004 A 
BRANCH  14  19
ATOM     19  O   UNL d   1      32.516  18.177 -24.269  0.00  0.00    -0.305 OA
BRANCH  19  20
ATOM     20  C   UNL d   1      33.007  18.822 -24.118  0.00  0.00     0.123 C 
BRANCH  20  21
ATOM     21  C   UNL d   1      33.138  19.384 -24.698  0.00  0.00     0.027 C 
BRANCH  21  22
ATOM     22  C   UNL d   1      33.046  20.186 -24.527  0.00  0.00     0.002 C 
ATOM     23  C   UNL d   1      33.241  20.758 -25.093  0.00  0.00     0.000 C 
ENDBRANCH  21  22
ENDBRANCH  20  21
ENDBRANCH  19  20
ENDBRANCH  14  19
ENDBRANCH   1  13
TORSDOF 6
ENDMDL
