MODEL 1
REMARK VINA RESULT:      -7.6      0.000      0.000
REMARK  2 active torsions:
REMARK  status: ('A' for Active; 'I' for Inactive)
REMARK    1  A    between atoms: N_6  and  C_1 
REMARK    2  A    between atoms: C_7  and  C_2 
REMARK       I    between atoms: C_8  and  N_6 
ROOT
ATOM      1  C   UNL d   1     -48.651  12.841  23.192  0.00  0.00     0.119 A 
ATOM      2  C   UNL d   1     -48.391  13.558  22.944  0.00  0.00     0.084 A 
ATOM      3  S   UNL d   1     -47.989  12.349  23.319  0.00  0.00    -0.068 SA
ATOM      4  C   UNL d   1     -47.582  13.538  22.910  0.00  0.00     0.013 A 
ATOM      5  C   UNL d   1     -47.331  12.782  23.145  0.00  0.00     0.031 A 
ATOM      6  C   UNL d   1     -47.029  14.110  22.696  0.00  0.00     0.001 A 
ATOM      7  C   UNL d   1     -46.523  12.618  23.158  0.00  0.00     0.006 A 
ATOM      8  C   UNL d   1     -46.218  13.930  22.714  0.00  0.00     0.000 A 
ATOM      9  C   UNL d   1     -45.987  13.196  22.942  0.00  0.00     0.001 A 
ENDROOT
BRANCH   1  10
ATOM     10  N   UNL d   1     -49.471  12.631  23.302  0.00  0.00    -0.201 NA
ATOM     11  C   UNL d   1     -49.694  11.875  23.539  0.00  0.00     0.280 C 
ATOM     12  O   UNL d   1     -49.113  11.287  23.681  0.00  0.00    -0.265 OA
ATOM     13  C   UNL d   1     -50.490  11.684  23.642  0.00  0.00     0.068 C 
ENDBRANCH   1  10
BRANCH   2  14
ATOM     14  C   UNL d   1     -48.896  14.208  22.757  0.00  0.00     0.299 C 
ATOM     15  O   UNL d   1     -49.096  14.732  23.371  0.00  0.00    -0.264 OA
ATOM     16  N   UNL d   1     -49.186  14.327  22.000  0.00  0.00    -0.102 N 
ENDBRANCH   2  14
TORSDOF 2
ENDMDL
MODEL 2
REMARK VINA RESULT:      -7.5      1.555      2.636
REMARK  2 active torsions:
REMARK  status: ('A' for Active; 'I' for Inactive)
REMARK    1  A    between atoms: N_6  and  C_1 
REMARK    2  A    between atoms: C_7  and  C_2 
REMARK       I    between atoms: C_8  and  N_6 
ROOT
ATOM      1  C   UNL d   1     -47.654  13.626  22.894  0.00  0.00     0.119 A 
ATOM      2  C   UNL d   1     -46.945  13.274  23.025  0.00  0.00     0.084 A 
ATOM      3  S   UNL d   1     -48.258  13.070  23.050  0.00  0.00    -0.068 SA
ATOM      4  C   UNL d   1     -47.079  12.511  23.259  0.00  0.00     0.013 A 
ATOM      5  C   UNL d   1     -47.900  12.383  23.275  0.00  0.00     0.031 A 
ATOM      6  C   UNL d   1     -46.561  11.903  23.464  0.00  0.00     0.001 A 
ATOM      7  C   UNL d   1     -48.182  11.641  23.498  0.00  0.00     0.006 A 
ATOM      8  C   UNL d   1     -46.861  11.161  23.687  0.00  0.00     0.000 A 
ATOM      9  C   UNL d   1     -47.656  11.049  23.698  0.00  0.00     0.001 A 
ENDROOT
BRANCH   1  10
ATOM     10  N   UNL d   1     -47.759  14.434  22.639  0.00  0.00    -0.201 NA
ATOM     11  C   UNL d   1     -48.507  14.761  22.539  0.00  0.00     0.280 C 
ATOM     12  O   UNL d   1     -49.194  14.301  22.686  0.00  0.00    -0.265 OA
ATOM     13  C   UNL d   1     -48.595  15.543  22.291  0.00  0.00     0.068 C 
ENDBRANCH   1  10
BRANCH   2  14
ATOM     14  C   UNL d   1     -46.200  13.658  22.927  0.00  0.00     0.299 C 
ATOM     15  O   UNL d   1     -45.873  14.042  23.588  0.00  0.00    -0.264 OA
ATOM     16  N   UNL d   1     -45.804  13.659  22.210  0.00  0.00    -0.102 N 
ENDBRANCH   2  14
TORSDOF 2
ENDMDL
MODEL 3
REMARK VINA RESULT:      -7.5      1.653      2.395
REMARK  2 active torsions:
REMARK  status: ('A' for Active; 'I' for Inactive)
REMARK    1  A    between atoms: N_6  and  C_1 
REMARK    2  A    between atoms: C_7  and  C_2 
REMARK       I    between atoms: C_8  and  N_6 
ROOT
ATOM      1  C   UNL d   1     -47.487  12.824  23.129  0.00  0.00     0.119 A 
ATOM      2  C   UNL d   1     -47.207  13.551  22.936  0.00  0.00     0.084 A 
ATOM      3  S   UNL d   1     -48.321  12.848  23.107  0.00  0.00    -0.068 SA
ATOM      4  C   UNL d   1     -47.838  14.037  22.791  0.00  0.00     0.013 A 
ATOM      5  C   UNL d   1     -48.535  13.597  22.898  0.00  0.00     0.031 A 
ATOM      6  C   UNL d   1     -47.879  14.831  22.573  0.00  0.00     0.001 A 
ATOM      7  C   UNL d   1     -49.261  13.970  22.782  0.00  0.00     0.006 A 
ATOM      8  C   UNL d   1     -48.619  15.192  22.460  0.00  0.00     0.000 A 
ATOM      9  C   UNL d   1     -49.285  14.757  22.566  0.00  0.00     0.001 A 
ENDROOT
BRANCH   1  10
ATOM     10  N   UNL d   1     -47.001  12.149  23.323  0.00  0.00    -0.201 NA
ATOM     11  C   UNL d   1     -47.331  11.421  23.511  0.00  0.00     0.280 C 
ATOM     12  O   UNL d   1     -48.165  11.321  23.517  0.00  0.00    -0.265 OA
ATOM     13  C   UNL d   1     -46.851  10.776  23.697  0.00  0.00     0.068 C 
ENDBRANCH   1  10
BRANCH   2  14
ATOM     14  C   UNL d   1     -46.388  13.749  22.898  0.00  0.00     0.299 C 
ATOM     15  O   UNL d   1     -46.024  14.028  23.591  0.00  0.00    -0.264 OA
ATOM     16  N   UNL d   1     -45.955  13.672  22.205  0.00  0.00    -0.102 N 
ENDBRANCH   2  14
TORSDOF 2
ENDMDL
MODEL 4
REMARK VINA RESULT:      -7.3      1.207      2.109
REMARK  2 active torsions:
REMARK  status: ('A' for Active; 'I' for Inactive)
REMARK    1  A    between atoms: N_6  and  C_1 
REMARK    2  A    between atoms: C_7  and  C_2 
REMARK       I    between atoms: C_8  and  N_6 
ROOT
ATOM      1  C   UNL d   1     -48.868  13.046  22.500  0.00  0.00     0.119 A 
ATOM      2  C   UNL d   1     -48.370  12.502  22.815  0.00  0.00     0.084 A 
ATOM      3  S   UNL d   1     -48.456  13.769  22.427  0.00  0.00    -0.068 SA
ATOM      4  C   UNL d   1     -47.653  12.856  22.945  0.00  0.00     0.013 A 
ATOM      5  C   UNL d   1     -47.707  13.648  22.702  0.00  0.00     0.031 A 
ATOM      6  C   UNL d   1     -46.947  12.565  23.255  0.00  0.00     0.001 A 
ATOM      7  C   UNL d   1     -47.044  14.132  22.777  0.00  0.00     0.006 A 
ATOM      8  C   UNL d   1     -46.288  13.065  23.324  0.00  0.00     0.000 A 
ATOM      9  C   UNL d   1     -46.352  13.829  23.086  0.00  0.00     0.001 A 
ENDROOT
BRANCH   1  10
ATOM     10  N   UNL d   1     -49.679  12.898  22.281  0.00  0.00    -0.201 NA
ATOM     11  C   UNL d   1     -50.145  13.479  21.932  0.00  0.00     0.280 C 
ATOM     12  O   UNL d   1     -49.828  14.242  21.781  0.00  0.00    -0.265 OA
ATOM     13  C   UNL d   1     -50.928  13.323  21.725  0.00  0.00     0.068 C 
ENDBRANCH   1  10
BRANCH   2  14
ATOM     14  C   UNL d   1     -48.583  11.701  22.974  0.00  0.00     0.299 C 
ATOM     15  O   UNL d   1     -48.466  11.142  22.370  0.00  0.00    -0.264 OA
ATOM     16  N   UNL d   1     -48.896  11.471  23.697  0.00  0.00    -0.102 N 
ENDBRANCH   2  14
TORSDOF 2
ENDMDL
MODEL 5
REMARK VINA RESULT:      -7.3      1.490      2.635
REMARK  2 active torsions:
REMARK  status: ('A' for Active; 'I' for Inactive)
REMARK    1  A    between atoms: N_6  and  C_1 
REMARK    2  A    between atoms: C_7  and  C_2 
REMARK       I    between atoms: C_8  and  N_6 
ROOT
ATOM      1  C   UNL d   1     -47.745  12.734  23.015  0.00  0.00     0.119 A 
ATOM      2  C   UNL d   1     -48.535  12.781  22.880  0.00  0.00     0.084 A 
ATOM      3  S   UNL d   1     -47.419  13.499  22.941  0.00  0.00    -0.068 SA
ATOM      4  C   UNL d   1     -48.721  13.554  22.723  0.00  0.00     0.013 A 
ATOM      5  C   UNL d   1     -48.022  14.002  22.761  0.00  0.00     0.031 A 
ATOM      6  C   UNL d   1     -49.439  13.919  22.548  0.00  0.00     0.001 A 
ATOM      7  C   UNL d   1     -48.064  14.814  22.620  0.00  0.00     0.006 A 
ATOM      8  C   UNL d   1     -49.464  14.738  22.408  0.00  0.00     0.000 A 
ATOM      9  C   UNL d   1     -48.783  15.161  22.448  0.00  0.00     0.001 A 
ENDROOT
BRANCH   1  10
ATOM     10  N   UNL d   1     -47.324  12.015  23.201  0.00  0.00    -0.201 NA
ATOM     11  C   UNL d   1     -46.567  12.030  23.522  0.00  0.00     0.280 C 
ATOM     12  O   UNL d   1     -46.186  12.763  23.676  0.00  0.00    -0.265 OA
ATOM     13  C   UNL d   1     -46.170  11.328  23.698  0.00  0.00     0.068 C 
ENDBRANCH   1  10
BRANCH   2  14
ATOM     14  C   UNL d   1     -49.061  12.122  22.905  0.00  0.00     0.299 C 
ATOM     15  O   UNL d   1     -49.156  11.677  22.209  0.00  0.00    -0.264 OA
ATOM     16  N   UNL d   1     -49.468  11.917  23.587  0.00  0.00    -0.102 N 
ENDBRANCH   2  14
TORSDOF 2
ENDMDL
MODEL 6
REMARK VINA RESULT:      -7.2      1.214      2.816
REMARK  2 active torsions:
REMARK  status: ('A' for Active; 'I' for Inactive)
REMARK    1  A    between atoms: N_6  and  C_1 
REMARK    2  A    between atoms: C_7  and  C_2 
REMARK       I    between atoms: C_8  and  N_6 
ROOT
ATOM      1  C   UNL d   1     -47.938  13.040  22.813  0.00  0.00     0.119 A 
ATOM      2  C   UNL d   1     -48.687  13.283  22.660  0.00  0.00     0.084 A 
ATOM      3  S   UNL d   1     -47.976  12.321  23.237  0.00  0.00    -0.068 SA
ATOM      4  C   UNL d   1     -49.201  12.741  22.973  0.00  0.00     0.013 A 
ATOM      5  C   UNL d   1     -48.756  12.140  23.334  0.00  0.00     0.031 A 
ATOM      6  C   UNL d   1     -50.024  12.709  22.982  0.00  0.00     0.001 A 
ATOM      7  C   UNL d   1     -49.153  11.515  23.697  0.00  0.00     0.006 A 
ATOM      8  C   UNL d   1     -50.410  12.073  23.352  0.00  0.00     0.000 A 
ATOM      9  C   UNL d   1     -49.970  11.498  23.697  0.00  0.00     0.001 A 
ENDROOT
BRANCH   1  10
ATOM     10  N   UNL d   1     -47.232  13.456  22.576  0.00  0.00    -0.201 NA
ATOM     11  C   UNL d   1     -46.485  13.206  22.812  0.00  0.00     0.280 C 
ATOM     12  O   UNL d   1     -46.399  12.526  23.298  0.00  0.00    -0.265 OA
ATOM     13  C   UNL d   1     -45.809  13.617  22.577  0.00  0.00     0.068 C 
ENDBRANCH   1  10
BRANCH   2  14
ATOM     14  C   UNL d   1     -48.880  13.990  22.240  0.00  0.00     0.299 C 
ATOM     15  O   UNL d   1     -48.963  13.939  21.415  0.00  0.00    -0.264 OA
ATOM     16  N   UNL d   1     -48.984  14.707  22.624  0.00  0.00    -0.102 N 
ENDBRANCH   2  14
TORSDOF 2
ENDMDL
