MODEL 1
REMARK VINA RESULT:      50.8      0.000      0.000
REMARK  3 active torsions:
REMARK  status: ('A' for Active; 'I' for Inactive)
REMARK    1  A    between atoms: N_10  and  C_3 
REMARK    2  A    between atoms: C_13  and  C_5 
REMARK    3  A    between atoms: C_12  and  C_9 
ROOT
ATOM      1  N   UNL d   1      14.208  13.811  -2.561  0.00  0.00    -0.196 N 
ATOM      2  C   UNL d   1      14.526  14.116  -1.869  0.00  0.00     0.167 A 
ATOM      3  C   UNL d   1      14.047  13.004  -2.626  0.00  0.00     0.152 A 
ATOM      4  N   UNL d   1      14.109  14.430  -3.091  0.00  0.00    -0.163 NA
ATOM      5  C   UNL d   1      14.625  14.925  -1.968  0.00  0.00     0.055 A 
ATOM      6  N   UNL d   1      14.687  13.619  -1.231  0.00  0.00    -0.231 NA
ATOM      7  C   UNL d   1      14.208  12.507  -1.987  0.00  0.00     0.052 A 
ATOM      8  C   UNL d   1      14.369  15.123  -2.719  0.00  0.00     0.104 A 
ATOM      9  C   UNL d   1      14.526  12.811  -1.295  0.00  0.00     0.063 A 
ATOM     10  C   UNL d   1      14.374  15.879  -3.038  0.00  0.00     0.023 C 
ENDROOT
BRANCH   3  11
ATOM     11  N   UNL d   1      13.729  12.700  -3.318  0.00  0.00    -0.286 N 
ATOM     12  C   UNL d   1      13.964  12.998  -4.052  0.00  0.00     0.101 A 
ATOM     13  C   UNL d   1      13.644  12.692  -4.748  0.00  0.00     0.100 A 
ATOM     14  N   UNL d   1      13.088  12.085  -4.714  0.00  0.00    -0.299 N 
ATOM     15  C   UNL d   1      12.852  11.786  -3.985  0.00  0.00     0.100 A 
ATOM     16  C   UNL d   1      12.769  11.779  -5.410  0.00  0.00     0.100 C 
ATOM     17  C   UNL d   1      13.171  12.092  -3.289  0.00  0.00     0.101 A 
ENDBRANCH   3  11
BRANCH   9  18
ATOM     18  C   UNL d   1      14.686  12.292  -0.651  0.00  0.00     0.036 C 
ATOM     19  C   UNL d   1      14.844  11.779  -0.014  0.00  0.00     0.006 C 
ATOM     20  C   UNL d   1      14.007  12.572  -0.257  0.00  0.00     0.006 C 
ATOM     21  C   UNL d   1      15.366  12.014  -1.048  0.00  0.00     0.006 C 
ENDBRANCH   9  18
BRANCH   5  22
ATOM     22  C   UNL d   1      14.916  15.513  -1.468  0.00  0.00     0.004 A 
ATOM     23  C   UNL d   1      15.109  15.340  -0.680  0.00  0.00     0.000 A 
ATOM     24  C   UNL d   1      15.400  15.930  -0.185  0.00  0.00     0.000 A 
ATOM     25  C   UNL d   1      15.503  16.702  -0.467  0.00  0.00     0.000 A 
ATOM     26  C   UNL d   1      15.309  16.876  -1.260  0.00  0.00     0.000 A 
ATOM     27  C   UNL d   1      15.018  16.281  -1.752  0.00  0.00     0.000 A 
ENDBRANCH   5  22
TORSDOF 3
ENDMDL
