MODEL 1
REMARK VINA RESULT:      17.9      0.000      0.000
REMARK  1 active torsions:
REMARK  status: ('A' for Active; 'I' for Inactive)
REMARK    1  A    between atoms: C_6  and  C_2 
ROOT
ATOM      1  C   UNL d   1      58.708  49.686  50.190  0.00  0.00     0.018 A 
ATOM      2  C   UNL d   1      58.962  49.663  50.979  0.00  0.00     0.002 A 
ATOM      3  C   UNL d   1      59.773  49.662  51.153  0.00  0.00     0.000 A 
ATOM      4  C   UNL d   1      59.254  49.707  49.587  0.00  0.00     0.002 A 
ATOM      5  C   UNL d   1      60.337  49.684  50.530  0.00  0.00     0.000 A 
ATOM      6  C   UNL d   1      60.076  49.706  49.749  0.00  0.00     0.000 A 
ATOM      7  C   UNL d   1      60.019  49.640  51.936  0.00  0.00     0.000 A 
ATOM      8  C   UNL d   1      61.133  49.683  50.706  0.00  0.00     0.000 A 
ATOM      9  C   UNL d   1      60.830  49.639  52.110  0.00  0.00     0.000 A 
ATOM     10  C   UNL d   1      61.376  49.661  51.507  0.00  0.00     0.000 A 
ENDROOT
BRANCH   1  11
ATOM     11  C   UNL d   1      57.900  49.686  50.019  0.00  0.00     0.090 A 
ATOM     12  N   UNL d   1      57.511  49.682  49.323  0.00  0.00    -0.219 NA
ATOM     13  C   UNL d   1      56.702  49.685  49.480  0.00  0.00     0.215 A 
ATOM     14  S   UNL d   1      56.622  49.692  50.305  0.00  0.00    -0.045 SA
ATOM     15  N   UNL d   1      56.074  49.682  48.913  0.00  0.00    -0.120 N 
ATOM     16  C   UNL d   1      57.354  49.692  50.622  0.00  0.00     0.058 A 
ENDBRANCH   1  11
TORSDOF 1
ENDMDL
