MODEL 1
REMARK VINA RESULT:      -3.1      0.000      0.000
REMARK  0 active torsions:
REMARK  status: ('A' for Active; 'I' for Inactive)
ROOT
ATOM      1  C   UNL d   1      30.270  16.625 -24.004  0.00  0.00     0.062 A 
ATOM      2  C   UNL d   1      29.930  17.169 -24.525  0.00  0.00     0.116 A 
ATOM      3  C   UNL d   1      31.107  16.620 -23.901  0.00  0.00     0.192 A 
ATOM      4  N   UNL d   1      31.569  17.167 -24.331  0.00  0.00    -0.171 N 
ATOM      5  N   UNL d   1      30.405  17.703 -24.941  0.00  0.00    -0.217 NA
ATOM      6  S   UNL d   1      29.116  17.015 -24.484  0.00  0.00    -0.068 SA
ATOM      7  C   UNL d   1      29.700  16.163 -23.662  0.00  0.00     0.011 A 
ATOM      8  N   UNL d   1      32.385  16.446 -23.597  0.00  0.00    -0.022 NA
ATOM      9  N   UNL d   1      32.383  17.054 -24.134  0.00  0.00    -0.037 NA
ATOM     10  N   UNL d   1      31.605  16.175 -23.448  0.00  0.00    -0.108 NA
ATOM     11  C   UNL d   1      28.973  16.419 -23.974  0.00  0.00     0.031 A 
ATOM     12  C   UNL d   1      31.208  17.701 -24.845  0.00  0.00     0.204 A 
ATOM     13  C   UNL d   1      29.496  15.552 -23.145  0.00  0.00     0.001 A 
ATOM     14  C   UNL d   1      28.366  15.984 -23.661  0.00  0.00     0.006 A 
ATOM     15  C   UNL d   1      28.689  15.453 -23.153  0.00  0.00     0.001 A 
ENDROOT
TORSDOF 0
ENDMDL
MODEL 2
REMARK VINA RESULT:      -3.1      1.598      2.637
REMARK  0 active torsions:
REMARK  status: ('A' for Active; 'I' for Inactive)
ROOT
ATOM      1  C   UNL d   1      30.354  16.700 -24.034  0.00  0.00     0.062 A 
ATOM      2  C   UNL d   1      30.321  17.346 -24.549  0.00  0.00     0.116 A 
ATOM      3  C   UNL d   1      29.635  16.350 -23.764  0.00  0.00     0.192 A 
ATOM      4  N   UNL d   1      28.909  16.669 -24.027  0.00  0.00    -0.171 N 
ATOM      5  N   UNL d   1      29.592  17.646 -24.797  0.00  0.00    -0.217 NA
ATOM      6  S   UNL d   1      31.115  17.538 -24.692  0.00  0.00    -0.068 SA
ATOM      7  C   UNL d   1      31.122  16.505 -23.869  0.00  0.00     0.011 A 
ATOM      8  N   UNL d   1      28.637  15.662 -23.228  0.00  0.00    -0.022 NA
ATOM      9  N   UNL d   1      28.275  16.228 -23.684  0.00  0.00    -0.037 NA
ATOM     10  N   UNL d   1      29.473  15.731 -23.273  0.00  0.00    -0.108 NA
ATOM     11  C   UNL d   1      31.595  17.043 -24.291  0.00  0.00     0.031 A 
ATOM     12  C   UNL d   1      28.901  17.313 -24.541  0.00  0.00     0.204 A 
ATOM     13  C   UNL d   1      31.664  16.021 -23.476  0.00  0.00     0.001 A 
ATOM     14  C   UNL d   1      32.379  16.889 -24.159  0.00  0.00     0.006 A 
ATOM     15  C   UNL d   1      32.419  16.262 -23.658  0.00  0.00     0.001 A 
ENDROOT
TORSDOF 0
ENDMDL
MODEL 3
REMARK VINA RESULT:      -3.0      1.558      3.058
REMARK  0 active torsions:
REMARK  status: ('A' for Active; 'I' for Inactive)
ROOT
ATOM      1  C   UNL d   1      30.520  16.593 -23.922  0.00  0.00     0.062 A 
ATOM      2  C   UNL d   1      30.937  16.023 -23.492  0.00  0.00     0.116 A 
ATOM      3  C   UNL d   1      29.677  16.591 -23.899  0.00  0.00     0.192 A 
ATOM      4  N   UNL d   1      29.288  16.011 -23.441  0.00  0.00    -0.171 N 
ATOM      5  N   UNL d   1      30.532  15.458 -23.045  0.00  0.00    -0.217 NA
ATOM      6  S   UNL d   1      31.735  16.192 -23.643  0.00  0.00    -0.068 SA
ATOM      7  C   UNL d   1      31.030  17.085 -24.314  0.00  0.00     0.011 A 
ATOM      8  N   UNL d   1      28.367  16.764 -23.999  0.00  0.00    -0.022 NA
ATOM      9  N   UNL d   1      28.453  16.124 -23.507  0.00  0.00    -0.037 NA
ATOM     10  N   UNL d   1      29.115  17.056 -24.244  0.00  0.00    -0.108 NA
ATOM     11  C   UNL d   1      31.797  16.821 -24.130  0.00  0.00     0.031 A 
ATOM     12  C   UNL d   1      29.725  15.452 -23.021  0.00  0.00     0.204 A 
ATOM     13  C   UNL d   1      31.151  17.730 -24.815  0.00  0.00     0.001 A 
ATOM     14  C   UNL d   1      32.348  17.284 -24.501  0.00  0.00     0.006 A 
ATOM     15  C   UNL d   1      31.949  17.841 -24.921  0.00  0.00     0.001 A 
ENDROOT
TORSDOF 0
ENDMDL
MODEL 4
REMARK VINA RESULT:      -2.9      0.867      1.663
REMARK  0 active torsions:
REMARK  status: ('A' for Active; 'I' for Inactive)
ROOT
ATOM      1  C   UNL d   1      30.892  16.755 -23.979  0.00  0.00     0.062 A 
ATOM      2  C   UNL d   1      31.059  16.058 -23.567  0.00  0.00     0.116 A 
ATOM      3  C   UNL d   1      31.521  17.285 -24.165  0.00  0.00     0.192 A 
ATOM      4  N   UNL d   1      32.297  17.089 -23.927  0.00  0.00    -0.171 N 
ATOM      5  N   UNL d   1      31.835  15.883 -23.340  0.00  0.00    -0.217 NA
ATOM      6  S   UNL d   1      30.324  15.684 -23.484  0.00  0.00    -0.068 SA
ATOM      7  C   UNL d   1      30.100  16.809 -24.140  0.00  0.00     0.011 A 
ATOM      8  N   UNL d   1      32.352  18.242 -24.553  0.00  0.00    -0.022 NA
ATOM      9  N   UNL d   1      32.824  17.701 -24.176  0.00  0.00    -0.037 NA
ATOM     10  N   UNL d   1      31.550  17.994 -24.550  0.00  0.00    -0.108 NA
ATOM     11  C   UNL d   1      29.750  16.125 -23.822  0.00  0.00     0.031 A 
ATOM     12  C   UNL d   1      32.440  16.388 -23.517  0.00  0.00     0.204 A 
ATOM     13  C   UNL d   1      29.469  17.224 -24.474  0.00  0.00     0.001 A 
ATOM     14  C   UNL d   1      28.953  16.130 -23.959  0.00  0.00     0.006 A 
ATOM     15  C   UNL d   1      28.782  16.805 -24.359  0.00  0.00     0.001 A 
ENDROOT
TORSDOF 0
ENDMDL
MODEL 5
REMARK VINA RESULT:      -2.9      6.764      7.326
REMARK  0 active torsions:
REMARK  status: ('A' for Active; 'I' for Inactive)
ROOT
ATOM      1  C   UNL d   1      32.813  22.103 -20.318  0.00  0.00     0.062 A 
ATOM      2  C   UNL d   1      32.486  22.549 -20.933  0.00  0.00     0.116 A 
ATOM      3  C   UNL d   1      32.941  22.466 -19.568  0.00  0.00     0.192 A 
ATOM      4  N   UNL d   1      32.732  23.269 -19.468  0.00  0.00    -0.171 N 
ATOM      5  N   UNL d   1      32.287  23.342 -20.813  0.00  0.00    -0.217 NA
ATOM      6  S   UNL d   1      32.442  22.022 -21.571  0.00  0.00    -0.068 SA
ATOM      7  C   UNL d   1      32.962  21.346 -20.562  0.00  0.00     0.011 A 
ATOM      8  N   UNL d   1      33.220  22.840 -18.327  0.00  0.00    -0.022 NA
ATOM      9  N   UNL d   1      32.912  23.504 -18.676  0.00  0.00    -0.037 NA
ATOM     10  N   UNL d   1      33.241  22.199 -18.868  0.00  0.00    -0.108 NA
ATOM     11  C   UNL d   1      32.723  21.306 -21.358  0.00  0.00     0.031 A 
ATOM     12  C   UNL d   1      32.408  23.694 -20.096  0.00  0.00     0.204 A 
ATOM     13  C   UNL d   1      33.241  20.587 -20.395  0.00  0.00     0.001 A 
ATOM     14  C   UNL d   1      32.853  20.563 -21.651  0.00  0.00     0.006 A 
ATOM     15  C   UNL d   1      33.170  20.123 -21.059  0.00  0.00     0.001 A 
ENDROOT
TORSDOF 0
ENDMDL
MODEL 6
REMARK VINA RESULT:      -2.1      5.437      6.500
REMARK  0 active torsions:
REMARK  status: ('A' for Active; 'I' for Inactive)
ROOT
ATOM      1  C   UNL d   1      33.086  21.564 -21.844  0.00  0.00     0.062 A 
ATOM      2  C   UNL d   1      32.990  21.216 -21.100  0.00  0.00     0.116 A 
ATOM      3  C   UNL d   1      33.138  21.071 -22.526  0.00  0.00     0.192 A 
ATOM      4  N   UNL d   1      33.091  20.242 -22.429  0.00  0.00    -0.171 N 
ATOM      5  N   UNL d   1      32.946  20.394 -21.026  0.00  0.00    -0.217 NA
ATOM      6  S   UNL d   1      32.961  21.856 -20.574  0.00  0.00    -0.068 SA
ATOM      7  C   UNL d   1      33.114  22.370 -21.781  0.00  0.00     0.011 A 
ATOM      8  N   UNL d   1      33.241  20.485 -23.711  0.00  0.00    -0.022 NA
ATOM      9  N   UNL d   1      33.157  19.872 -23.186  0.00  0.00    -0.037 NA
ATOM     10  N   UNL d   1      33.230  21.224 -23.313  0.00  0.00    -0.108 NA
ATOM     11  C   UNL d   1      33.034  22.544 -20.971  0.00  0.00     0.031 A 
ATOM     12  C   UNL d   1      32.996  19.918 -21.677  0.00  0.00     0.204 A 
ATOM     13  C   UNL d   1      33.185  23.110 -22.142  0.00  0.00     0.001 A 
ATOM     14  C   UNL d   1      33.056  23.345 -20.854  0.00  0.00     0.006 A 
ATOM     15  C   UNL d   1      33.149  23.690 -21.573  0.00  0.00     0.001 A 
ENDROOT
TORSDOF 0
ENDMDL
MODEL 7
REMARK VINA RESULT:      -2.1      1.392      2.981
REMARK  0 active torsions:
REMARK  status: ('A' for Active; 'I' for Inactive)
ROOT
ATOM      1  C   UNL d   1      31.840  17.347 -24.259  0.00  0.00     0.062 A 
ATOM      2  C   UNL d   1      31.147  17.471 -24.692  0.00  0.00     0.116 A 
ATOM      3  C   UNL d   1      31.905  16.662 -23.772  0.00  0.00     0.192 A 
ATOM      4  N   UNL d   1      31.263  16.127 -23.741  0.00  0.00    -0.171 N 
ATOM      5  N   UNL d   1      30.524  16.930 -24.647  0.00  0.00    -0.217 NA
ATOM      6  S   UNL d   1      31.280  18.182 -25.097  0.00  0.00    -0.068 SA
ATOM      7  C   UNL d   1      32.370  17.945 -24.389  0.00  0.00     0.011 A 
ATOM      8  N   UNL d   1      32.208  15.662 -22.955  0.00  0.00    -0.022 NA
ATOM      9  N   UNL d   1      31.460  15.492 -23.220  0.00  0.00    -0.037 NA
ATOM     10  N   UNL d   1      32.487  16.379 -23.291  0.00  0.00    -0.108 NA
ATOM     11  C   UNL d   1      32.004  18.469 -24.922  0.00  0.00     0.031 A 
ATOM     12  C   UNL d   1      30.581  16.272 -24.181  0.00  0.00     0.204 A 
ATOM     13  C   UNL d   1      33.107  18.286 -24.243  0.00  0.00     0.001 A 
ATOM     14  C   UNL d   1      32.496  19.090 -25.086  0.00  0.00     0.006 A 
ATOM     15  C   UNL d   1      33.173  18.976 -24.668  0.00  0.00     0.001 A 
ENDROOT
TORSDOF 0
ENDMDL
MODEL 8
REMARK VINA RESULT:      -1.6      3.709      4.644
REMARK  0 active torsions:
REMARK  status: ('A' for Active; 'I' for Inactive)
ROOT
ATOM      1  C   UNL d   1      32.990  19.450 -23.001  0.00  0.00     0.062 A 
ATOM      2  C   UNL d   1      32.979  18.819 -22.467  0.00  0.00     0.116 A 
ATOM      3  C   UNL d   1      33.080  20.236 -22.709  0.00  0.00     0.192 A 
ATOM      4  N   UNL d   1      33.158  20.354 -21.886  0.00  0.00    -0.171 N 
ATOM      5  N   UNL d   1      33.057  18.957 -21.656  0.00  0.00    -0.217 NA
ATOM      6  S   UNL d   1      32.883  18.147 -22.942  0.00  0.00    -0.068 SA
ATOM      7  C   UNL d   1      32.905  19.183 -23.761  0.00  0.00     0.011 A 
ATOM      8  N   UNL d   1      33.211  21.532 -22.463  0.00  0.00    -0.022 NA
ATOM      9  N   UNL d   1      33.241  21.180 -21.733  0.00  0.00    -0.037 NA
ATOM     10  N   UNL d   1      33.113  20.958 -23.068  0.00  0.00    -0.108 NA
ATOM     11  C   UNL d   1      32.838  18.356 -23.711  0.00  0.00     0.031 A 
ATOM     12  C   UNL d   1      33.144  19.709 -21.372  0.00  0.00     0.204 A 
ATOM     13  C   UNL d   1      32.853  19.343 -24.569  0.00  0.00     0.001 A 
ATOM     14  C   UNL d   1      32.751  18.037 -24.450  0.00  0.00     0.006 A 
ATOM     15  C   UNL d   1      32.760  18.645 -24.975  0.00  0.00     0.001 A 
ENDROOT
TORSDOF 0
ENDMDL
