MODEL 1
REMARK VINA RESULT:      -9.5      0.000      0.000
REMARK  4 active torsions:
REMARK  status: ('A' for Active; 'I' for Inactive)
REMARK    1  A    between atoms: C_7  and  C_1 
REMARK    2  A    between atoms: O_10  and  C_2 
REMARK    3  A    between atoms: C_17  and  O_10 
REMARK    4  A    between atoms: C_19  and  C_12 
ROOT
ATOM      1  C   UNL d   1     -48.318  14.547  22.764  0.00  0.00     0.197 A 
ATOM      2  C   UNL d   1     -48.699  13.913  23.139  0.00  0.00     0.165 A 
ATOM      3  O   UNL d   1     -47.525  14.475  22.584  0.00  0.00    -0.301 OA
ATOM      4  C   UNL d   1     -48.276  13.227  23.324  0.00  0.00     0.222 A 
ATOM      5  C   UNL d   1     -47.494  13.185  23.134  0.00  0.00     0.064 A 
ATOM      6  C   UNL d   1     -47.113  13.819  22.759  0.00  0.00     0.106 A 
ATOM      7  C   UNL d   1     -47.071  12.499  23.319  0.00  0.00     0.008 A 
ATOM      8  C   UNL d   1     -46.320  13.747  22.579  0.00  0.00     0.067 A 
ATOM      9  C   UNL d   1     -45.894  13.082  22.753  0.00  0.00     0.198 A 
ATOM     10  C   UNL d   1     -46.275  12.449  23.129  0.00  0.00     0.039 A 
ATOM     11  O   UNL d   1     -48.647  12.611  23.689  0.00  0.00    -0.284 OA
ATOM     12  O   UNL d   1     -45.093  13.027  22.564  0.00  0.00    -0.286 OA
ENDROOT
BRANCH   2  13
ATOM     13  O   UNL d   1     -49.501  13.967  23.330  0.00  0.00    -0.302 OA
BRANCH  13  14
ATOM     14  C   UNL d   1     -50.027  13.398  23.058  0.00  0.00     0.100 A 
ATOM     15  C   UNL d   1     -50.479  12.976  23.611  0.00  0.00     0.025 A 
ATOM     16  C   UNL d   1     -50.995  12.418  23.345  0.00  0.00     0.002 A 
ATOM     17  C   UNL d   1     -51.064  12.276  22.523  0.00  0.00     0.000 A 
ATOM     18  C   UNL d   1     -50.621  12.692  21.999  0.00  0.00     0.002 A 
ATOM     19  C   UNL d   1     -50.095  13.260  22.271  0.00  0.00     0.025 A 
ENDBRANCH  13  14
ENDBRANCH   2  13
BRANCH   1  20
ATOM     20  C   UNL d   1     -48.741  15.231  22.581  0.00  0.00     0.442 C 
ATOM     21  F   UNL d   1     -49.169  15.922  22.389  0.00  0.00    -0.164 F 
ATOM     22  F   UNL d   1     -48.686  15.048  21.777  0.00  0.00    -0.164 F 
ATOM     23  F   UNL d   1     -48.795  15.411  23.386  0.00  0.00    -0.164 F 
ENDBRANCH   1  20
BRANCH  10  24
ATOM     24  C   UNL d   1     -45.853  11.763  23.313  0.00  0.00     0.003 C 
ATOM     25  C   UNL d   1     -46.233  11.141  23.698  0.00  0.00     0.000 C 
ENDBRANCH  10  24
TORSDOF 4
ENDMDL
MODEL 2
REMARK VINA RESULT:      -9.2      1.660      2.355
REMARK  4 active torsions:
REMARK  status: ('A' for Active; 'I' for Inactive)
REMARK    1  A    between atoms: C_7  and  C_1 
REMARK    2  A    between atoms: O_10  and  C_2 
REMARK    3  A    between atoms: C_17  and  O_10 
REMARK    4  A    between atoms: C_19  and  C_12 
ROOT
ATOM      1  C   UNL d   1     -49.198  12.240  22.829  0.00  0.00     0.197 A 
ATOM      2  C   UNL d   1     -49.117  13.005  22.522  0.00  0.00     0.165 A 
ATOM      3  O   UNL d   1     -48.529  11.847  23.083  0.00  0.00    -0.301 OA
ATOM      4  C   UNL d   1     -48.369  13.356  22.478  0.00  0.00     0.222 A 
ATOM      5  C   UNL d   1     -47.726  12.944  22.737  0.00  0.00     0.064 A 
ATOM      6  C   UNL d   1     -47.808  12.178  23.044  0.00  0.00     0.106 A 
ATOM      7  C   UNL d   1     -46.979  13.295  22.693  0.00  0.00     0.008 A 
ATOM      8  C   UNL d   1     -47.139  11.786  23.298  0.00  0.00     0.067 A 
ATOM      9  C   UNL d   1     -46.402  12.116  23.262  0.00  0.00     0.198 A 
ATOM     10  C   UNL d   1     -46.321  12.882  22.954  0.00  0.00     0.039 A 
ATOM     11  O   UNL d   1     -48.290  14.101  22.179  0.00  0.00    -0.284 OA
ATOM     12  O   UNL d   1     -45.736  11.705  23.523  0.00  0.00    -0.286 OA
ENDROOT
BRANCH   2  13
ATOM     13  O   UNL d   1     -49.782  13.419  22.259  0.00  0.00    -0.302 OA
BRANCH  13  14
ATOM     14  C   UNL d   1     -49.988  14.132  22.610  0.00  0.00     0.100 A 
ATOM     15  C   UNL d   1     -50.356  14.119  23.354  0.00  0.00     0.025 A 
ATOM     16  C   UNL d   1     -50.558  14.817  23.698  0.00  0.00     0.002 A 
ATOM     17  C   UNL d   1     -50.395  15.537  23.303  0.00  0.00     0.000 A 
ATOM     18  C   UNL d   1     -50.039  15.535  22.584  0.00  0.00     0.002 A 
ATOM     19  C   UNL d   1     -49.833  14.822  22.233  0.00  0.00     0.025 A 
ENDBRANCH  13  14
ENDBRANCH   2  13
BRANCH   1  20
ATOM     20  C   UNL d   1     -49.944  11.891  22.872  0.00  0.00     0.442 C 
ATOM     21  F   UNL d   1     -50.700  11.538  22.910  0.00  0.00    -0.164 F 
ATOM     22  F   UNL d   1     -49.959  11.824  22.049  0.00  0.00    -0.164 F 
ATOM     23  F   UNL d   1     -49.927  11.960  23.696  0.00  0.00    -0.164 F 
ENDBRANCH   1  20
BRANCH  10  24
ATOM     24  C   UNL d   1     -45.574  13.233  22.910  0.00  0.00     0.003 C 
ATOM     25  C   UNL d   1     -45.228  13.366  22.175  0.00  0.00     0.000 C 
ENDBRANCH  10  24
TORSDOF 4
ENDMDL
MODEL 3
REMARK VINA RESULT:      -6.6      7.960      9.614
REMARK  4 active torsions:
REMARK  status: ('A' for Active; 'I' for Inactive)
REMARK    1  A    between atoms: C_7  and  C_1 
REMARK    2  A    between atoms: O_10  and  C_2 
REMARK    3  A    between atoms: C_17  and  O_10 
REMARK    4  A    between atoms: C_19  and  C_12 
ROOT
ATOM      1  C   UNL d   1     -40.568  14.886  20.305  0.00  0.00     0.197 A 
ATOM      2  C   UNL d   1     -39.765  14.853  20.511  0.00  0.00     0.165 A 
ATOM      3  O   UNL d   1     -40.789  14.654  19.555  0.00  0.00    -0.301 OA
ATOM      4  C   UNL d   1     -39.207  14.591  19.960  0.00  0.00     0.222 A 
ATOM      5  C   UNL d   1     -39.456  14.368  19.226  0.00  0.00     0.064 A 
ATOM      6  C   UNL d   1     -40.258  14.401  19.020  0.00  0.00     0.106 A 
ATOM      7  C   UNL d   1     -38.897  14.105  18.675  0.00  0.00     0.008 A 
ATOM      8  C   UNL d   1     -40.479  14.169  18.270  0.00  0.00     0.067 A 
ATOM      9  C   UNL d   1     -39.945  13.910  17.720  0.00  0.00     0.198 A 
ATOM     10  C   UNL d   1     -39.143  13.877  17.926  0.00  0.00     0.039 A 
ATOM     11  O   UNL d   1     -38.427  14.559  20.160  0.00  0.00    -0.284 OA
ATOM     12  O   UNL d   1     -40.186  13.679  16.966  0.00  0.00    -0.286 OA
ENDROOT
BRANCH   2  13
ATOM     13  O   UNL d   1     -39.522  15.084  21.266  0.00  0.00    -0.302 OA
BRANCH  13  14
ATOM     14  C   UNL d   1     -39.132  14.550  21.753  0.00  0.00     0.100 A 
ATOM     15  C   UNL d   1     -38.387  14.754  22.053  0.00  0.00     0.025 A 
ATOM     16  C   UNL d   1     -38.005  14.231  22.531  0.00  0.00     0.002 A 
ATOM     17  C   UNL d   1     -38.365  13.497  22.714  0.00  0.00     0.000 A 
ATOM     18  C   UNL d   1     -39.086  13.313  22.416  0.00  0.00     0.002 A 
ATOM     19  C   UNL d   1     -39.476  13.847  21.929  0.00  0.00     0.025 A 
ENDBRANCH  13  14
ENDBRANCH   2  13
BRANCH   1  20
ATOM     20  C   UNL d   1     -41.123  15.148  20.856  0.00  0.00     0.442 C 
ATOM     21  F   UNL d   1     -41.683  15.420  21.412  0.00  0.00    -0.164 F 
ATOM     22  F   UNL d   1     -40.851  15.922  20.760  0.00  0.00    -0.164 F 
ATOM     23  F   UNL d   1     -41.393  14.372  20.950  0.00  0.00    -0.164 F 
ENDBRANCH   1  20
BRANCH  10  24
ATOM     24  C   UNL d   1     -38.585  13.615  17.376  0.00  0.00     0.003 C 
ATOM     25  C   UNL d   1     -38.155  12.929  17.526  0.00  0.00     0.000 C 
ENDBRANCH  10  24
TORSDOF 4
ENDMDL
