MODEL 1
REMARK VINA RESULT:      73.3      0.000      0.000
REMARK  5 active torsions:
REMARK  status: ('A' for Active; 'I' for Inactive)
REMARK    1  A    between atoms: S_9  and  C_2 
REMARK    2  A    between atoms: C_19  and  S_9 
REMARK    3  A    between atoms: C_11  and  C_19 
REMARK       I    between atoms: N_16  and  C_11 
REMARK    4  A    between atoms: C_22  and  N_16 
REMARK    5  A    between atoms: C_21  and  C_22 
ROOT
ATOM      1  C   UNL d   1     -55.201-100.175 -44.594  0.00  0.00     0.092 A 
ATOM      2  C   UNL d   1     -54.902 -99.933 -43.856  0.00  0.00     0.120 A 
ATOM      3  N   UNL d   1     -54.773-100.489 -43.270  0.00  0.00    -0.238 NA
ATOM      4  C   UNL d   1     -55.369-100.972 -44.743  0.00  0.00     0.013 A 
ATOM      5  C   UNL d   1     -55.232-101.526 -44.137  0.00  0.00     0.018 A 
ATOM      6  C   UNL d   1     -54.936-101.287 -43.407  0.00  0.00     0.082 A 
ATOM      7  C   UNL d   1     -55.333 -99.609 -45.190  0.00  0.00     0.103 C 
ATOM      8  N   UNL d   1     -55.468 -99.055 -45.788  0.00  0.00    -0.191 NA
ATOM      9  C   UNL d   1     -55.666-101.211 -45.474  0.00  0.00     0.001 A 
ATOM     10  C   UNL d   1     -55.398-102.329 -44.276  0.00  0.00     0.002 A 
ATOM     11  C   UNL d   1     -54.804-101.841 -42.814  0.00  0.00     0.021 C 
ATOM     12  C   UNL d   1     -55.829-102.006 -45.611  0.00  0.00     0.000 A 
ATOM     13  C   UNL d   1     -55.697-102.572 -45.015  0.00  0.00     0.000 A 
ENDROOT
BRANCH   2  14
ATOM     14  S   UNL d   1     -54.738 -99.131 -43.721  0.00  0.00    -0.062 SA
BRANCH  14  15
ATOM     15  C   UNL d   1     -55.006 -98.769 -43.027  0.00  0.00     0.099 C 
BRANCH  15  16
ATOM     16  C   UNL d   1     -55.810 -98.775 -42.847  0.00  0.00     0.286 C 
ATOM     17  N   UNL d   1     -56.366 -98.785 -43.459  0.00  0.00    -0.206 NA
ATOM     18  O   UNL d   1     -56.062 -98.770 -42.059  0.00  0.00    -0.265 OA
BRANCH  17  19
ATOM     19  C   UNL d   1     -57.176 -98.791 -43.290  0.00  0.00     0.102 C 
BRANCH  19  20
ATOM     20  C   UNL d   1     -57.727 -98.800 -43.905  0.00  0.00     0.021 A 
ATOM     21  C   UNL d   1     -57.470 -98.824 -44.683  0.00  0.00     0.028 A 
ATOM     22  C   UNL d   1     -58.022 -98.833 -45.297  0.00  0.00     0.119 A 
ATOM     23  O   UNL d   1     -57.929 -98.856 -46.115  0.00  0.00    -0.300 OA
ATOM     24  C   UNL d   1     -58.819 -98.819 -45.130  0.00  0.00     0.119 A 
ATOM     25  C   UNL d   1     -58.681 -98.856 -46.453  0.00  0.00     0.304 A 
ATOM     26  O   UNL d   1     -59.233 -98.833 -45.843  0.00  0.00    -0.300 OA
ATOM     27  C   UNL d   1     -59.081 -98.795 -44.334  0.00  0.00     0.026 A 
ATOM     28  C   UNL d   1     -58.523 -98.786 -43.730  0.00  0.00     0.004 A 
ENDBRANCH  19  20
ENDBRANCH  17  19
ENDBRANCH  15  16
ENDBRANCH  14  15
ENDBRANCH   2  14
TORSDOF 5
ENDMDL
