MODEL 1
REMARK VINA RESULT:       0.6      0.000      0.000
REMARK  2 active torsions:
REMARK  status: ('A' for Active; 'I' for Inactive)
REMARK    1  A    between atoms: C_6  and  C_1 
REMARK    2  A    between atoms: C_9  and  C_2 
ROOT
ATOM      1  C   UNL d   1      59.004   0.234  30.628  0.00  0.00     0.039 A 
ATOM      2  C   UNL d   1      58.645   0.254  31.366  0.00  0.00     0.120 A 
ATOM      3  N   UNL d   1      59.223   0.425  31.933  0.00  0.00    -0.164 NA
ATOM      4  N   UNL d   1      59.935   0.508  31.537  0.00  0.00    -0.228 N 
ATOM      5  C   UNL d   1      59.802   0.390  30.730  0.00  0.00     0.085 A 
ATOM      6  C   UNL d   1      60.742   0.667  31.639  0.00  0.00     0.101 A 
ATOM      7  C   UNL d   1      60.529   0.477  30.335  0.00  0.00     0.021 A 
ATOM      8  C   UNL d   1      61.105   0.647  30.898  0.00  0.00     0.022 A 
ENDROOT
BRANCH   1   9
ATOM      9  C   UNL d   1      58.632   0.082  29.909  0.00  0.00     0.006 A 
ATOM     10  C   UNL d   1      58.704  -0.648  29.553  0.00  0.00     0.018 A 
ATOM     11  C   UNL d   1      58.332  -0.800  28.834  0.00  0.00     0.085 A 
ATOM     12  C   UNL d   1      59.154  -1.241  29.917  0.00  0.00     0.005 A 
ATOM     13  C   UNL d   1      58.406  -1.546  28.471  0.00  0.00     0.061 A 
ATOM     14  N   UNL d   1      57.883  -0.210  28.470  0.00  0.00    -0.244 NA
ATOM     15  C   UNL d   1      58.858  -2.131  28.842  0.00  0.00     0.197 A 
ATOM     16  C   UNL d   1      59.226  -1.981  29.554  0.00  0.00     0.042 A 
ATOM     17  O   UNL d   1      58.929  -2.869  28.479  0.00  0.00    -0.286 OA
ATOM     18  C   UNL d   1      57.807   0.527  28.826  0.00  0.00     0.099 A 
ATOM     19  C   UNL d   1      58.183   0.676  29.549  0.00  0.00     0.021 A 
ENDBRANCH   1   9
BRANCH   2  20
ATOM     20  C   UNL d   1      57.846   0.127  31.521  0.00  0.00     0.101 A 
ATOM     21  N   UNL d   1      57.284   0.671  31.267  0.00  0.00    -0.242 NA
ATOM     22  C   UNL d   1      56.493   0.550  31.418  0.00  0.00     0.099 A 
ATOM     23  C   UNL d   1      56.249  -0.129  31.833  0.00  0.00     0.021 A 
ATOM     24  C   UNL d   1      56.814  -0.677  32.089  0.00  0.00     0.003 A 
ATOM     25  C   UNL d   1      57.611  -0.542  31.929  0.00  0.00     0.021 A 
ENDBRANCH   2  20
TORSDOF 2
ENDMDL
MODEL 2
REMARK VINA RESULT:       2.9      1.432      2.008
REMARK  2 active torsions:
REMARK  status: ('A' for Active; 'I' for Inactive)
REMARK    1  A    between atoms: C_6  and  C_1 
REMARK    2  A    between atoms: C_9  and  C_2 
ROOT
ATOM      1  C   UNL d   1      59.352  -0.728  29.343  0.00  0.00     0.039 A 
ATOM      2  C   UNL d   1      59.064  -0.248  29.943  0.00  0.00     0.120 A 
ATOM      3  N   UNL d   1      59.563   0.407  30.015  0.00  0.00    -0.164 NA
ATOM      4  N   UNL d   1      60.156   0.324  29.456  0.00  0.00    -0.228 N 
ATOM      5  C   UNL d   1      60.028  -0.377  29.040  0.00  0.00     0.085 A 
ATOM      6  C   UNL d   1      60.840   0.679  29.149  0.00  0.00     0.101 A 
ATOM      7  C   UNL d   1      60.634  -0.454  28.475  0.00  0.00     0.021 A 
ATOM      8  C   UNL d   1      61.131   0.197  28.546  0.00  0.00     0.022 A 
ENDROOT
BRANCH   1   9
ATOM      9  C   UNL d   1      59.023  -1.439  29.087  0.00  0.00     0.006 A 
ATOM     10  C   UNL d   1      59.423  -2.141  29.198  0.00  0.00     0.018 A 
ATOM     11  C   UNL d   1      59.094  -2.852  28.941  0.00  0.00     0.085 A 
ATOM     12  C   UNL d   1      60.163  -2.140  29.570  0.00  0.00     0.005 A 
ATOM     13  C   UNL d   1      59.502  -3.569  29.055  0.00  0.00     0.061 A 
ATOM     14  N   UNL d   1      58.356  -2.855  28.570  0.00  0.00    -0.244 NA
ATOM     15  C   UNL d   1      60.240  -3.558  29.428  0.00  0.00     0.197 A 
ATOM     16  C   UNL d   1      60.565  -2.854  29.682  0.00  0.00     0.042 A 
ATOM     17  O   UNL d   1      60.642  -4.270  29.539  0.00  0.00    -0.286 OA
ATOM     18  C   UNL d   1      57.951  -2.149  28.457  0.00  0.00     0.099 A 
ATOM     19  C   UNL d   1      58.284  -1.436  28.715  0.00  0.00     0.021 A 
ENDBRANCH   1   9
BRANCH   2  20
ATOM     20  C   UNL d   1      58.392  -0.390  30.399  0.00  0.00     0.101 A 
ATOM     21  N   UNL d   1      58.427  -0.912  31.033  0.00  0.00    -0.242 NA
ATOM     22  C   UNL d   1      57.766  -1.056  31.487  0.00  0.00     0.099 A 
ATOM     23  C   UNL d   1      57.050  -0.673  31.309  0.00  0.00     0.021 A 
ATOM     24  C   UNL d   1      57.014  -0.148  30.670  0.00  0.00     0.003 A 
ATOM     25  C   UNL d   1      57.690  -0.012  30.220  0.00  0.00     0.021 A 
ENDBRANCH   2  20
TORSDOF 2
ENDMDL
MODEL 3
REMARK VINA RESULT:       3.1      1.587      3.285
REMARK  2 active torsions:
REMARK  status: ('A' for Active; 'I' for Inactive)
REMARK    1  A    between atoms: C_6  and  C_1 
REMARK    2  A    between atoms: C_9  and  C_2 
ROOT
ATOM      1  C   UNL d   1      57.790  -0.825  30.419  0.00  0.00     0.039 A 
ATOM      2  C   UNL d   1      57.711  -1.636  30.321  0.00  0.00     0.120 A 
ATOM      3  N   UNL d   1      57.148  -1.910  30.861  0.00  0.00    -0.164 NA
ATOM      4  N   UNL d   1      56.886  -1.263  31.289  0.00  0.00    -0.228 N 
ATOM      5  C   UNL d   1      57.281  -0.591  31.017  0.00  0.00     0.085 A 
ATOM      6  C   UNL d   1      56.371  -1.026  31.894  0.00  0.00     0.101 A 
ATOM      7  C   UNL d   1      57.009   0.061  31.457  0.00  0.00     0.021 A 
ATOM      8  C   UNL d   1      56.450  -0.211  31.995  0.00  0.00     0.022 A 
ENDROOT
BRANCH   1   9
ATOM      9  C   UNL d   1      58.292  -0.329  29.993  0.00  0.00     0.006 A 
ATOM     10  C   UNL d   1      58.996  -0.077  30.319  0.00  0.00     0.018 A 
ATOM     11  C   UNL d   1      59.498   0.419  29.893  0.00  0.00     0.085 A 
ATOM     12  C   UNL d   1      59.209  -0.322  31.082  0.00  0.00     0.005 A 
ATOM     13  C   UNL d   1      60.217   0.675  30.226  0.00  0.00     0.061 A 
ATOM     14  N   UNL d   1      59.288   0.663  29.133  0.00  0.00    -0.244 NA
ATOM     15  C   UNL d   1      60.420   0.425  30.988  0.00  0.00     0.197 A 
ATOM     16  C   UNL d   1      59.923  -0.066  31.409  0.00  0.00     0.042 A 
ATOM     17  O   UNL d   1      61.133   0.682  31.315  0.00  0.00    -0.286 OA
ATOM     18  C   UNL d   1      58.579   0.412  28.802  0.00  0.00     0.099 A 
ATOM     19  C   UNL d   1      58.077  -0.087  29.233  0.00  0.00     0.021 A 
ENDBRANCH   1   9
BRANCH   2  20
ATOM     20  C   UNL d   1      58.119  -2.102  29.777  0.00  0.00     0.101 A 
ATOM     21  N   UNL d   1      58.793  -2.511  30.009  0.00  0.00    -0.242 NA
ATOM     22  C   UNL d   1      59.200  -2.973  29.476  0.00  0.00     0.099 A 
ATOM     23  C   UNL d   1      58.934  -3.032  28.690  0.00  0.00     0.021 A 
ATOM     24  C   UNL d   1      58.255  -2.620  28.456  0.00  0.00     0.003 A 
ATOM     25  C   UNL d   1      57.854  -2.157  29.005  0.00  0.00     0.021 A 
ENDBRANCH   2  20
TORSDOF 2
ENDMDL
