MODEL 1
REMARK VINA RESULT:       5.6      0.000      0.000
REMARK  3 active torsions:
REMARK  status: ('A' for Active; 'I' for Inactive)
REMARK    1  A    between atoms: C_6  and  C_1 
REMARK    2  A    between atoms: N_7  and  C_2 
REMARK    3  A    between atoms: C_9  and  C_5 
REMARK       I    between atoms: N_8  and  C_6 
ROOT
ATOM      1  C   UNL d   1     -42.021-122.229 -51.882  0.00  0.00     0.106 A 
ATOM      2  C   UNL d   1     -41.960-122.776 -50.572  0.00  0.00     0.180 A 
ATOM      3  N   UNL d   1     -41.684-122.016 -50.531  0.00  0.00    -0.222 NA
ATOM      4  S   UNL d   1     -42.160-122.919 -51.347  0.00  0.00    -0.044 SA
ATOM      5  C   UNL d   1     -41.712-121.692 -51.268  0.00  0.00     0.094 A 
ENDROOT
BRANCH   1   6
ATOM      6  C   UNL d   1     -42.192-122.272 -52.689  0.00  0.00     0.272 C 
ATOM      7  N   UNL d   1     -41.801-122.829 -53.172  0.00  0.00    -0.272 N 
ATOM      8  C   UNL d   1     -41.248-123.449 -53.259  0.00  0.00     0.083 A 
ATOM      9  C   UNL d   1     -42.226-122.555 -53.823  0.00  0.00     0.083 A 
ATOM     10  C   UNL d   1     -41.124-123.792 -53.999  0.00  0.00     0.019 A 
ATOM     11  C   UNL d   1     -41.551-123.518 -54.663  0.00  0.00     0.003 A 
ATOM     12  C   UNL d   1     -42.100-122.902 -54.573  0.00  0.00     0.019 A 
ATOM     13  O   UNL d   1     -42.750-121.766 -53.029  0.00  0.00    -0.266 OA
ENDBRANCH   1   6
BRANCH   5  14
ATOM     14  C   UNL d   1     -41.514-120.961 -51.574  0.00  0.00     0.018 A 
ATOM     15  C   UNL d   1     -41.505-120.834 -52.363  0.00  0.00     0.002 A 
ATOM     16  C   UNL d   1     -41.312-120.125 -52.657  0.00  0.00     0.000 A 
ATOM     17  C   UNL d   1     -41.123-119.524 -52.164  0.00  0.00     0.000 A 
ATOM     18  C   UNL d   1     -41.126-119.632 -51.366  0.00  0.00     0.000 A 
ATOM     19  C   UNL d   1     -41.323-120.355 -51.079  0.00  0.00     0.002 A 
ENDBRANCH   5  14
BRANCH   2  20
ATOM     20  N   UNL d   1     -41.940-123.113 -49.853  0.00  0.00    -0.280 N 
ATOM     21  C   UNL d   1     -41.213-123.263 -49.482  0.00  0.00     0.109 A 
ATOM     22  C   UNL d   1     -41.192-123.612 -48.739  0.00  0.00     0.142 A 
ATOM     23  O   UNL d   1     -41.898-123.815 -48.359  0.00  0.00    -0.300 OA
ATOM     24  C   UNL d   1     -42.631-123.667 -48.725  0.00  0.00     0.142 A 
ATOM     25  C   UNL d   1     -42.652-123.316 -49.473  0.00  0.00     0.109 A 
ENDBRANCH   2  20
TORSDOF 3
ENDMDL
MODEL 2
REMARK VINA RESULT:       7.7      0.788      2.856
REMARK  3 active torsions:
REMARK  status: ('A' for Active; 'I' for Inactive)
REMARK    1  A    between atoms: C_6  and  C_1 
REMARK    2  A    between atoms: N_7  and  C_2 
REMARK    3  A    between atoms: C_9  and  C_5 
REMARK       I    between atoms: N_8  and  C_6 
ROOT
ATOM      1  C   UNL d   1     -41.619-121.836 -52.049  0.00  0.00     0.106 A 
ATOM      2  C   UNL d   1     -41.762-122.599 -50.860  0.00  0.00     0.180 A 
ATOM      3  N   UNL d   1     -41.832-123.108 -51.485  0.00  0.00    -0.222 NA
ATOM      4  S   UNL d   1     -41.638-121.856 -51.165  0.00  0.00    -0.044 SA
ATOM      5  C   UNL d   1     -41.752-122.689 -52.168  0.00  0.00     0.094 A 
ENDROOT
BRANCH   1   6
ATOM      6  C   UNL d   1     -41.499-121.127 -52.459  0.00  0.00     0.272 C 
ATOM      7  N   UNL d   1     -41.389-120.414 -52.039  0.00  0.00    -0.272 N 
ATOM      8  C   UNL d   1     -41.333-120.002 -51.315  0.00  0.00     0.083 A 
ATOM      9  C   UNL d   1     -41.314-120.011 -52.755  0.00  0.00     0.083 A 
ATOM     10  C   UNL d   1     -41.201-119.188 -51.312  0.00  0.00     0.019 A 
ATOM     11  C   UNL d   1     -41.124-118.774 -52.033  0.00  0.00     0.003 A 
ATOM     12  C   UNL d   1     -41.181-119.186 -52.752  0.00  0.00     0.019 A 
ATOM     13  O   UNL d   1     -41.485-121.115 -53.285  0.00  0.00    -0.266 OA
ENDBRANCH   1   6
BRANCH   5  14
ATOM     14  C   UNL d   1     -41.770-122.887 -52.961  0.00  0.00     0.018 A 
ATOM     15  C   UNL d   1     -42.423-122.757 -53.403  0.00  0.00     0.002 A 
ATOM     16  C   UNL d   1     -42.437-122.950 -54.170  0.00  0.00     0.000 A 
ATOM     17  C   UNL d   1     -41.794-123.280 -54.514  0.00  0.00     0.000 A 
ATOM     18  C   UNL d   1     -41.127-123.419 -54.085  0.00  0.00     0.000 A 
ATOM     19  C   UNL d   1     -41.124-123.219 -53.307  0.00  0.00     0.002 A 
ENDBRANCH   5  14
BRANCH   2  20
ATOM     20  N   UNL d   1     -41.837-122.994 -50.175  0.00  0.00    -0.280 N 
ATOM     21  C   UNL d   1     -42.565-123.005 -49.777  0.00  0.00     0.109 A 
ATOM     22  C   UNL d   1     -42.643-123.414 -49.069  0.00  0.00     0.142 A 
ATOM     23  O   UNL d   1     -41.994-123.817 -48.751  0.00  0.00    -0.300 OA
ATOM     24  C   UNL d   1     -41.261-123.810 -49.146  0.00  0.00     0.142 A 
ATOM     25  C   UNL d   1     -41.183-123.399 -49.858  0.00  0.00     0.109 A 
ENDBRANCH   2  20
TORSDOF 3
ENDMDL
