MODEL 1
REMARK VINA RESULT:      30.1      0.000      0.000
REMARK  5 active torsions:
REMARK  status: ('A' for Active; 'I' for Inactive)
REMARK    1  A    between atoms: C_8  and  C_1 
REMARK    2  A    between atoms: C_9  and  C_2 
REMARK    3  A    between atoms: S_6  and  C_4 
REMARK    4  A    between atoms: C_11  and  S_6 
REMARK    5  A    between atoms: C_7  and  C_11 
ROOT
ATOM      1  C   UNL d   1     -57.785 -98.781 -45.254  0.00  0.00     0.107 A 
ATOM      2  C   UNL d   1     -57.767 -98.783 -44.431  0.00  0.00     0.120 A 
ATOM      3  N   UNL d   1     -57.005 -98.784 -45.517  0.00  0.00    -0.214 NA
ATOM      4  C   UNL d   1     -56.518 -98.788 -44.854  0.00  0.00     0.215 A 
ATOM      5  O   UNL d   1     -56.998 -98.788 -44.185  0.00  0.00    -0.283 OA
ENDROOT
BRANCH   1   6
ATOM      6  C   UNL d   1     -58.438 -98.776 -45.764  0.00  0.00     0.020 A 
ATOM      7  C   UNL d   1     -58.310 -98.781 -46.594  0.00  0.00     0.002 A 
ATOM      8  C   UNL d   1     -58.981 -98.776 -47.108  0.00  0.00     0.000 A 
ATOM      9  C   UNL d   1     -59.734 -98.767 -46.793  0.00  0.00     0.000 A 
ATOM     10  C   UNL d   1     -59.851 -98.762 -45.971  0.00  0.00     0.000 A 
ATOM     11  C   UNL d   1     -59.205 -98.766 -45.455  0.00  0.00     0.002 A 
ENDBRANCH   1   6
BRANCH   2  12
ATOM     12  C   UNL d   1     -58.407 -98.781 -43.915  0.00  0.00     0.024 A 
ATOM     13  C   UNL d   1     -58.290 -98.758 -43.097  0.00  0.00     0.002 A 
ATOM     14  C   UNL d   1     -58.927 -98.755 -42.571  0.00  0.00     0.000 A 
ATOM     15  C   UNL d   1     -59.684 -98.777 -42.873  0.00  0.00     0.000 A 
ATOM     16  C   UNL d   1     -59.810 -98.801 -43.687  0.00  0.00     0.000 A 
ATOM     17  C   UNL d   1     -59.170 -98.803 -44.203  0.00  0.00     0.002 A 
ENDBRANCH   2  12
BRANCH   4  18
ATOM     18  S   UNL d   1     -55.688 -98.792 -44.885  0.00  0.00    -0.037 SA
BRANCH  18  19
ATOM     19  C   UNL d   1     -55.286 -99.525 -44.964  0.00  0.00     0.103 C 
BRANCH  19  20
ATOM     20  C   UNL d   1     -55.219-100.015 -44.321  0.00  0.00     0.303 C 
ATOM     21  O   UNL d   1     -55.500-100.807 -44.362  0.00  0.00    -0.263 OA
ATOM     22  N   UNL d   1     -54.874 -99.739 -43.621  0.00  0.00    -0.102 N 
ENDBRANCH  19  20
ENDBRANCH  18  19
ENDBRANCH   4  18
TORSDOF 5
ENDMDL
