MODEL 1
REMARK VINA RESULT:     126.6      0.000      0.000
REMARK  6 active torsions:
REMARK  status: ('A' for Active; 'I' for Inactive)
REMARK    1  A    between atoms: N_2  and  C_1 
REMARK       I    between atoms: C_4  and  N_2 
REMARK    2  A    between atoms: C_21  and  N_2 
REMARK    3  A    between atoms: C_6  and  C_4 
REMARK    4  A    between atoms: C_23  and  C_21 
REMARK    5  A    between atoms: C_25  and  C_23 
REMARK    6  A    between atoms: N_24  and  C_25 
ROOT
ATOM      1  N   UNL d   1     -54.764-101.407 -41.862  0.00  0.00    -0.252 N 
ATOM      2  C   UNL d   1     -54.820-102.043 -42.388  0.00  0.00     0.272 C 
ATOM      3  O   UNL d   1     -54.872-102.809 -42.110  0.00  0.00    -0.266 OA
ENDROOT
BRANCH   1   4
ATOM      4  C   UNL d   1     -54.762-101.557 -41.040  0.00  0.00     0.182 A 
ATOM      5  N   UNL d   1     -54.791-102.305 -40.688  0.00  0.00    -0.222 NA
ATOM      6  C   UNL d   1     -54.778-102.204 -39.865  0.00  0.00     0.092 A 
ATOM      7  C   UNL d   1     -54.795-102.740 -39.254  0.00  0.00     0.046 A 
ATOM      8  C   UNL d   1     -54.741-101.395 -39.714  0.00  0.00     0.052 A 
ATOM      9  C   UNL d   1     -54.775-102.480 -38.470  0.00  0.00     0.121 A 
ATOM     10  O   UNL d   1     -54.784-102.873 -37.757  0.00  0.00    -0.299 OA
ATOM     11  C   UNL d   1     -54.738-101.675 -38.321  0.00  0.00     0.120 A 
ATOM     12  C   UNL d   1     -54.753-102.311 -37.159  0.00  0.00     0.304 A 
ATOM     13  O   UNL d   1     -54.725-101.572 -37.501  0.00  0.00    -0.300 OA
ATOM     14  C   UNL d   1     -54.720-101.127 -38.939  0.00  0.00     0.034 A 
ATOM     15  S   UNL d   1     -54.731-100.990 -40.436  0.00  0.00    -0.048 SA
ENDBRANCH   1   4
BRANCH   1  16
ATOM     16  C   UNL d   1     -54.711-100.632 -42.143  0.00  0.00     0.086 C 
BRANCH  16  17
ATOM     17  C   UNL d   1     -55.243-100.056 -41.868  0.00  0.00     0.038 C 
BRANCH  17  18
ATOM     18  C   UNL d   1     -55.262 -99.312 -42.225  0.00  0.00     0.082 C 
BRANCH  18  19
ATOM     19  N   UNL d   1     -55.774 -99.169 -42.854  0.00  0.00    -0.300 N 
ATOM     20  C   UNL d   1     -56.564 -99.396 -42.799  0.00  0.00     0.100 C 
ATOM     21  C   UNL d   1     -55.497 -98.799 -43.537  0.00  0.00     0.100 C 
ENDBRANCH  18  19
ENDBRANCH  17  18
ENDBRANCH  16  17
ENDBRANCH   1  16
BRANCH   2  22
ATOM     22  C   UNL d   1     -54.822-101.889 -43.202  0.00  0.00     0.087 A 
ATOM     23  S   UNL d   1     -54.935-102.444 -43.816  0.00  0.00    -0.071 SA
ATOM     24  C   UNL d   1     -54.891-102.033 -44.535  0.00  0.00     0.087 A 
ATOM     25 CL   UNL d   1     -54.972-102.365 -45.306  0.00  0.00    -0.075 Cl
ATOM     26  C   UNL d   1     -54.753-101.242 -44.366  0.00  0.00     0.019 A 
ATOM     27  C   UNL d   1     -54.711-101.151 -43.552  0.00  0.00     0.013 A 
ENDBRANCH   2  22
TORSDOF 6
ENDMDL
