MODEL 1
REMARK VINA RESULT:      45.7      0.000      0.000
REMARK  5 active torsions:
REMARK  status: ('A' for Active; 'I' for Inactive)
REMARK    1  A    between atoms: S_6  and  C_2 
REMARK    2  A    between atoms: C_8  and  C_4 
REMARK    3  A    between atoms: C_11  and  S_6 
REMARK    4  A    between atoms: C_7  and  C_11 
REMARK       I    between atoms: N_9  and  C_7 
REMARK    5  A    between atoms: C_15  and  N_9 
ROOT
ATOM      1  N   UNL d   1      15.101  12.416  -0.711  0.00  0.00    -0.244 NA
ATOM      2  C   UNL d   1      14.727  13.092  -1.008  0.00  0.00     0.125 A 
ATOM      3  N   UNL d   1      15.894  13.463  -0.484  0.00  0.00    -0.250 NA
ATOM      4  C   UNL d   1      15.205  13.724  -0.871  0.00  0.00     0.101 A 
ATOM      5  C   UNL d   1      15.854  12.575  -0.359  0.00  0.00     0.168 A 
ATOM      6  C   UNL d   1      16.592  12.776  -0.022  0.00  0.00     0.050 C 
ATOM      7  C   UNL d   1      15.600  11.782  -0.357  0.00  0.00     0.050 C 
ENDROOT
BRANCH   2   8
ATOM      8  S   UNL d   1      13.985  13.116  -1.384  0.00  0.00    -0.061 SA
BRANCH   8   9
ATOM      9  C   UNL d   1      13.842  12.645  -2.046  0.00  0.00     0.099 C 
BRANCH   9  10
ATOM     10  C   UNL d   1      13.242  12.091  -2.033  0.00  0.00     0.286 C 
ATOM     11  N   UNL d   1      12.899  11.839  -2.729  0.00  0.00    -0.208 NA
ATOM     12  O   UNL d   1      12.987  11.789  -1.316  0.00  0.00    -0.265 OA
BRANCH  11  13
ATOM     13  C   UNL d   1      13.151  12.137  -3.440  0.00  0.00     0.085 A 
ATOM     14  C   UNL d   1      13.784  11.793  -3.820  0.00  0.00     0.019 A 
ATOM     15  C   UNL d   1      14.051  12.088  -4.546  0.00  0.00     0.002 A 
ATOM     16  C   UNL d   1      13.672  12.734  -4.880  0.00  0.00     0.000 A 
ATOM     17  C   UNL d   1      13.032  13.084  -4.499  0.00  0.00     0.002 A 
ATOM     18  C   UNL d   1      12.775  12.786  -3.782  0.00  0.00     0.019 A 
ENDBRANCH  11  13
ENDBRANCH   9  10
ENDBRANCH   8   9
ENDBRANCH   2   8
BRANCH   4  19
ATOM     19  C   UNL d   1      15.084  14.519  -1.061  0.00  0.00     0.019 A 
ATOM     20  C   UNL d   1      15.065  14.759  -1.854  0.00  0.00     0.002 A 
ATOM     21  C   UNL d   1      14.946  15.542  -2.042  0.00  0.00     0.011 A 
ATOM     22  C   UNL d   1      14.840  16.115  -1.434  0.00  0.00     0.058 A 
ATOM     23  C   UNL d   1      14.859  15.878  -0.671  0.00  0.00     0.011 A 
ATOM     24 CL   UNL d   1      14.718  16.919  -1.627  0.00  0.00    -0.082 Cl
ATOM     25  C   UNL d   1      14.981  15.080  -0.463  0.00  0.00     0.002 A 
ENDBRANCH   4  19
TORSDOF 5
ENDMDL
MODEL 2
REMARK VINA RESULT:      48.5      2.417      4.002
REMARK  5 active torsions:
REMARK  status: ('A' for Active; 'I' for Inactive)
REMARK    1  A    between atoms: S_6  and  C_2 
REMARK    2  A    between atoms: C_8  and  C_4 
REMARK    3  A    between atoms: C_11  and  S_6 
REMARK    4  A    between atoms: C_7  and  C_11 
REMARK       I    between atoms: N_9  and  C_7 
REMARK    5  A    between atoms: C_15  and  N_9 
ROOT
ATOM      1  N   UNL d   1      13.224  13.367  -4.119  0.00  0.00    -0.244 NA
ATOM      2  C   UNL d   1      13.582  13.432  -3.375  0.00  0.00     0.125 A 
ATOM      3  N   UNL d   1      13.258  12.154  -3.566  0.00  0.00    -0.250 NA
ATOM      4  C   UNL d   1      13.602  12.701  -3.042  0.00  0.00     0.101 A 
ATOM      5  C   UNL d   1      12.989  12.577  -4.311  0.00  0.00     0.168 A 
ATOM      6  C   UNL d   1      12.773  11.783  -4.461  0.00  0.00     0.050 C 
ATOM      7  C   UNL d   1      12.832  13.163  -4.882  0.00  0.00     0.050 C 
ENDROOT
BRANCH   2   8
ATOM      8  S   UNL d   1      13.872  14.133  -3.031  0.00  0.00    -0.061 SA
BRANCH   8   9
ATOM      9  C   UNL d   1      14.022  14.792  -3.502  0.00  0.00     0.099 C 
BRANCH   9  10
ATOM     10  C   UNL d   1      14.277  15.490  -3.162  0.00  0.00     0.286 C 
ATOM     11  N   UNL d   1      14.518  16.113  -3.630  0.00  0.00    -0.208 NA
ATOM     12  O   UNL d   1      14.288  15.560  -2.345  0.00  0.00    -0.265 OA
BRANCH  11  13
ATOM     13  C   UNL d   1      14.507  16.044  -4.438  0.00  0.00     0.085 A 
ATOM     14  C   UNL d   1      13.836  16.249  -4.851  0.00  0.00     0.019 A 
ATOM     15  C   UNL d   1      13.812  16.183  -5.676  0.00  0.00     0.002 A 
ATOM     16  C   UNL d   1      14.474  15.909  -6.075  0.00  0.00     0.000 A 
ATOM     17  C   UNL d   1      15.154  15.701  -5.661  0.00  0.00     0.002 A 
ATOM     18  C   UNL d   1      15.169  15.769  -4.847  0.00  0.00     0.019 A 
ENDBRANCH  11  13
ENDBRANCH   9  10
ENDBRANCH   8   9
ENDBRANCH   2   8
BRANCH   4  19
ATOM     19  C   UNL d   1      13.902  12.473  -2.306  0.00  0.00     0.019 A 
ATOM     20  C   UNL d   1      13.392  12.183  -1.722  0.00  0.00     0.002 A 
ATOM     21  C   UNL d   1      13.687  11.958  -0.997  0.00  0.00     0.011 A 
ATOM     22  C   UNL d   1      14.512  12.018  -0.834  0.00  0.00     0.058 A 
ATOM     23  C   UNL d   1      14.999  12.300  -1.402  0.00  0.00     0.011 A 
ATOM     24 CL   UNL d   1      14.814  11.788  -0.090  0.00  0.00    -0.082 Cl
ATOM     25  C   UNL d   1      14.711  12.534  -2.149  0.00  0.00     0.002 A 
ENDBRANCH   4  19
TORSDOF 5
ENDMDL
