MODEL 1
REMARK VINA RESULT:      -8.8      0.000      0.000
REMARK  4 active torsions:
REMARK  status: ('A' for Active; 'I' for Inactive)
REMARK    1  A    between atoms: C_3  and  C_1 
REMARK    2  A    between atoms: N_10  and  C_3 
REMARK    3  A    between atoms: C_13  and  C_3 
REMARK    4  A    between atoms: C_5  and  N_10 
ROOT
ATOM      1  C   UNL d   1      53.172  32.299  53.813  0.00  0.00     0.086 C 
ENDROOT
BRANCH   1   2
ATOM      2  C   UNL d   1      53.912  32.673  53.898  0.00  0.00     0.037 A 
ATOM      3  C   UNL d   1      54.479  32.765  53.287  0.00  0.00     0.083 A 
ATOM      4  N   UNL d   1      55.104  33.143  53.579  0.00  0.00    -0.245 NA
ATOM      5  C   UNL d   1      54.395  32.503  52.511  0.00  0.00     0.021 C 
ATOM      6  C   UNL d   1      54.978  33.310  54.369  0.00  0.00     0.081 A 
ATOM      7  C   UNL d   1      54.230  33.015  54.570  0.00  0.00     0.021 A 
ATOM      8  C   UNL d   1      55.442  33.690  54.935  0.00  0.00     0.019 A 
ATOM      9  C   UNL d   1      53.957  33.105  55.333  0.00  0.00     0.002 A 
ATOM     10  C   UNL d   1      54.405  33.479  55.903  0.00  0.00     0.000 A 
ATOM     11  C   UNL d   1      55.152  33.774  55.702  0.00  0.00     0.002 A 
ENDBRANCH   1   2
BRANCH   1  12
ATOM     12  N   UNL d   1      52.488  32.722  53.945  0.00  0.00    -0.225 NA
BRANCH  12  13
ATOM     13  C   UNL d   1      52.121  33.074  53.317  0.00  0.00     0.191 A 
ATOM     14  N   UNL d   1      52.272  33.089  52.482  0.00  0.00    -0.107 NA
ATOM     15  O   UNL d   1      51.699  33.549  52.122  0.00  0.00    -0.210 OA
ATOM     16  C   UNL d   1      51.184  33.830  52.697  0.00  0.00     0.128 A 
ATOM     17  C   UNL d   1      51.439  33.542  53.437  0.00  0.00     0.068 A 
ATOM     18  C   UNL d   1      50.535  34.317  52.525  0.00  0.00     0.029 C 
ENDBRANCH  12  13
ENDBRANCH   1  12
BRANCH   1  19
ATOM     19  C   UNL d   1      53.147  31.506  53.595  0.00  0.00     0.037 A 
ATOM     20  C   UNL d   1      53.100  31.305  52.822  0.00  0.00     0.100 A 
ATOM     21  N   UNL d   1      53.075  30.516  52.578  0.00  0.00    -0.242 NA
ATOM     22  C   UNL d   1      53.099  29.922  53.166  0.00  0.00     0.099 A 
ATOM     23  C   UNL d   1      53.147  30.137  53.962  0.00  0.00     0.021 A 
ATOM     24  C   UNL d   1      53.172  30.916  54.191  0.00  0.00     0.005 A 
ENDBRANCH   1  19
TORSDOF 4
ENDMDL
MODEL 2
REMARK VINA RESULT:      -8.5      0.831      2.472
REMARK  4 active torsions:
REMARK  status: ('A' for Active; 'I' for Inactive)
REMARK    1  A    between atoms: C_3  and  C_1 
REMARK    2  A    between atoms: N_10  and  C_3 
REMARK    3  A    between atoms: C_13  and  C_3 
REMARK    4  A    between atoms: C_5  and  N_10 
ROOT
ATOM      1  C   UNL d   1      53.095  32.630  53.759  0.00  0.00     0.086 C 
ENDROOT
BRANCH   1   2
ATOM      2  C   UNL d   1      53.870  32.905  53.898  0.00  0.00     0.037 A 
ATOM      3  C   UNL d   1      54.493  32.895  53.336  0.00  0.00     0.083 A 
ATOM      4  N   UNL d   1      55.137  33.198  53.671  0.00  0.00    -0.245 NA
ATOM      5  C   UNL d   1      54.438  32.616  52.563  0.00  0.00     0.021 C 
ATOM      6  C   UNL d   1      54.969  33.412  54.442  0.00  0.00     0.081 A 
ATOM      7  C   UNL d   1      54.175  33.228  54.585  0.00  0.00     0.021 A 
ATOM      8  C   UNL d   1      55.433  33.749  55.035  0.00  0.00     0.019 A 
ATOM      9  C   UNL d   1      53.854  33.384  55.319  0.00  0.00     0.002 A 
ATOM     10  C   UNL d   1      54.300  33.717  55.914  0.00  0.00     0.000 A 
ATOM     11  C   UNL d   1      55.095  33.901  55.772  0.00  0.00     0.002 A 
ENDBRANCH   1   2
BRANCH   1  12
ATOM     12  N   UNL d   1      52.869  31.899  54.038  0.00  0.00    -0.225 NA
BRANCH  12  13
ATOM     13  C   UNL d   1      52.850  31.276  53.523  0.00  0.00     0.191 A 
ATOM     14  N   UNL d   1      52.778  31.213  52.680  0.00  0.00    -0.107 NA
ATOM     15  O   UNL d   1      52.793  30.421  52.476  0.00  0.00    -0.210 OA
ATOM     16  C   UNL d   1      52.873  29.972  53.159  0.00  0.00     0.128 A 
ATOM     17  C   UNL d   1      52.909  30.493  53.810  0.00  0.00     0.068 A 
ATOM     18  C   UNL d   1      52.908  29.143  53.155  0.00  0.00     0.029 C 
ENDBRANCH  12  13
ENDBRANCH   1  12
BRANCH   1  19
ATOM     19  C   UNL d   1      52.571  33.108  53.339  0.00  0.00     0.037 A 
ATOM     20  C   UNL d   1      52.747  33.332  52.592  0.00  0.00     0.100 A 
ATOM     21  N   UNL d   1      52.238  33.811  52.151  0.00  0.00    -0.242 NA
ATOM     22  C   UNL d   1      51.524  34.060  52.507  0.00  0.00     0.099 A 
ATOM     23  C   UNL d   1      51.350  33.824  53.280  0.00  0.00     0.021 A 
ATOM     24  C   UNL d   1      51.857  33.353  53.704  0.00  0.00     0.005 A 
ENDBRANCH   1  19
TORSDOF 4
ENDMDL
MODEL 3
REMARK VINA RESULT:      -8.5      0.656      2.718
REMARK  4 active torsions:
REMARK  status: ('A' for Active; 'I' for Inactive)
REMARK    1  A    between atoms: C_3  and  C_1 
REMARK    2  A    between atoms: N_10  and  C_3 
REMARK    3  A    between atoms: C_13  and  C_3 
REMARK    4  A    between atoms: C_5  and  N_10 
ROOT
ATOM      1  C   UNL d   1      53.059  31.864  53.854  0.00  0.00     0.086 C 
ENDROOT
BRANCH   1   2
ATOM      2  C   UNL d   1      53.151  31.062  53.644  0.00  0.00     0.037 A 
ATOM      3  C   UNL d   1      53.234  30.776  52.860  0.00  0.00     0.083 A 
ATOM      4  N   UNL d   1      53.309  29.993  52.885  0.00  0.00    -0.245 NA
ATOM      5  C   UNL d   1      53.238  31.237  52.178  0.00  0.00     0.021 C 
ATOM      6  C   UNL d   1      53.278  29.741  53.662  0.00  0.00     0.081 A 
ATOM      7  C   UNL d   1      53.180  30.411  54.138  0.00  0.00     0.021 A 
ATOM      8  C   UNL d   1      53.327  28.991  54.002  0.00  0.00     0.019 A 
ATOM      9  C   UNL d   1      53.131  30.323  54.948  0.00  0.00     0.002 A 
ATOM     10  C   UNL d   1      53.178  29.588  55.298  0.00  0.00     0.000 A 
ATOM     11  C   UNL d   1      53.277  28.917  54.822  0.00  0.00     0.002 A 
ENDBRANCH   1   2
BRANCH   1  12
ATOM     12  N   UNL d   1      52.311  32.179  53.925  0.00  0.00    -0.225 NA
BRANCH  12  13
ATOM     13  C   UNL d   1      52.072  32.735  53.389  0.00  0.00     0.191 A 
ATOM     14  N   UNL d   1      52.332  32.950  52.611  0.00  0.00    -0.107 NA
ATOM     15  O   UNL d   1      51.865  33.566  52.341  0.00  0.00    -0.210 OA
ATOM     16  C   UNL d   1      51.313  33.754  52.919  0.00  0.00     0.128 A 
ATOM     17  C   UNL d   1      51.434  33.245  53.569  0.00  0.00     0.068 A 
ATOM     18  C   UNL d   1      50.749  34.355  52.829  0.00  0.00     0.029 C 
ENDBRANCH  12  13
ENDBRANCH   1  12
BRANCH   1  19
ATOM     19  C   UNL d   1      53.730  32.322  53.985  0.00  0.00     0.037 A 
ATOM     20  C   UNL d   1      54.263  32.428  53.398  0.00  0.00     0.100 A 
ATOM     21  N   UNL d   1      54.944  32.884  53.506  0.00  0.00    -0.242 NA
ATOM     22  C   UNL d   1      55.066  33.238  54.254  0.00  0.00     0.099 A 
ATOM     23  C   UNL d   1      54.511  33.124  54.855  0.00  0.00     0.021 A 
ATOM     24  C   UNL d   1      53.845  32.674  54.738  0.00  0.00     0.005 A 
ENDBRANCH   1  19
TORSDOF 4
ENDMDL
MODEL 4
REMARK VINA RESULT:      -8.1      1.079      3.420
REMARK  4 active torsions:
REMARK  status: ('A' for Active; 'I' for Inactive)
REMARK    1  A    between atoms: C_3  and  C_1 
REMARK    2  A    between atoms: N_10  and  C_3 
REMARK    3  A    between atoms: C_13  and  C_3 
REMARK    4  A    between atoms: C_5  and  N_10 
ROOT
ATOM      1  C   UNL d   1      53.145  32.704  53.976  0.00  0.00     0.086 C 
ENDROOT
BRANCH   1   2
ATOM      2  C   UNL d   1      52.833  33.163  53.354  0.00  0.00     0.037 A 
ATOM      3  C   UNL d   1      53.262  33.414  52.678  0.00  0.00     0.083 A 
ATOM      4  N   UNL d   1      52.782  33.835  52.219  0.00  0.00    -0.245 NA
ATOM      5  C   UNL d   1      54.053  33.248  52.523  0.00  0.00     0.021 C 
ATOM      6  C   UNL d   1      52.041  33.876  52.563  0.00  0.00     0.081 A 
ATOM      7  C   UNL d   1      52.073  33.455  53.275  0.00  0.00     0.021 A 
ATOM      8  C   UNL d   1      51.341  34.241  52.324  0.00  0.00     0.019 A 
ATOM      9  C   UNL d   1      51.405  33.404  53.739  0.00  0.00     0.002 A 
ATOM     10  C   UNL d   1      50.705  33.759  53.516  0.00  0.00     0.000 A 
ATOM     11  C   UNL d   1      50.673  34.180  52.804  0.00  0.00     0.002 A 
ENDBRANCH   1   2
BRANCH   1  12
ATOM     12  N   UNL d   1      52.819  31.976  54.144  0.00  0.00    -0.225 NA
BRANCH  12  13
ATOM     13  C   UNL d   1      53.189  31.312  53.869  0.00  0.00     0.191 A 
ATOM     14  N   UNL d   1      53.775  31.171  53.271  0.00  0.00    -0.107 NA
ATOM     15  O   UNL d   1      53.933  30.369  53.246  0.00  0.00    -0.210 OA
ATOM     16  C   UNL d   1      53.470  29.989  53.807  0.00  0.00     0.128 A 
ATOM     17  C   UNL d   1      53.007  30.564  54.196  0.00  0.00     0.068 A 
ATOM     18  C   UNL d   1      53.490  29.169  53.932  0.00  0.00     0.029 C 
ENDBRANCH  12  13
ENDBRANCH   1  12
BRANCH   1  19
ATOM     19  C   UNL d   1      53.780  32.997  54.410  0.00  0.00     0.037 A 
ATOM     20  C   UNL d   1      54.504  33.048  54.073  0.00  0.00     0.100 A 
ATOM     21  N   UNL d   1      55.157  33.340  54.488  0.00  0.00    -0.242 NA
ATOM     22  C   UNL d   1      55.043  33.583  55.280  0.00  0.00     0.099 A 
ATOM     23  C   UNL d   1      54.293  33.527  55.621  0.00  0.00     0.021 A 
ATOM     24  C   UNL d   1      53.658  33.240  55.204  0.00  0.00     0.005 A 
ENDBRANCH   1  19
TORSDOF 4
ENDMDL
MODEL 5
REMARK VINA RESULT:      -8.0      1.148      3.186
REMARK  4 active torsions:
REMARK  status: ('A' for Active; 'I' for Inactive)
REMARK    1  A    between atoms: C_3  and  C_1 
REMARK    2  A    between atoms: N_10  and  C_3 
REMARK    3  A    between atoms: C_13  and  C_3 
REMARK    4  A    between atoms: C_5  and  N_10 
ROOT
ATOM      1  C   UNL d   1      52.618  32.733  53.582  0.00  0.00     0.086 C 
ENDROOT
BRANCH   1   2
ATOM      2  C   UNL d   1      52.275  33.314  53.091  0.00  0.00     0.037 A 
ATOM      3  C   UNL d   1      52.685  33.751  52.504  0.00  0.00     0.083 A 
ATOM      4  N   UNL d   1      52.177  34.243  52.159  0.00  0.00    -0.245 NA
ATOM      5  C   UNL d   1      53.484  33.677  52.320  0.00  0.00     0.021 C 
ATOM      6  C   UNL d   1      51.437  34.153  52.495  0.00  0.00     0.081 A 
ATOM      7  C   UNL d   1      51.498  33.570  53.080  0.00  0.00     0.021 A 
ATOM      8  C   UNL d   1      50.714  34.522  52.348  0.00  0.00     0.019 A 
ATOM      9  C   UNL d   1      50.837  33.363  53.510  0.00  0.00     0.002 A 
ATOM     10  C   UNL d   1      50.116  33.720  53.375  0.00  0.00     0.000 A 
ATOM     11  C   UNL d   1      50.054  34.303  52.791  0.00  0.00     0.002 A 
ENDBRANCH   1   2
BRANCH   1  12
ATOM     12  N   UNL d   1      52.869  32.933  54.331  0.00  0.00    -0.225 NA
BRANCH  12  13
ATOM     13  C   UNL d   1      53.661  33.031  54.462  0.00  0.00     0.191 A 
ATOM     14  N   UNL d   1      54.360  32.745  54.076  0.00  0.00    -0.107 NA
ATOM     15  O   UNL d   1      55.014  33.038  54.470  0.00  0.00    -0.210 OA
ATOM     16  C   UNL d   1      54.760  33.504  55.096  0.00  0.00     0.128 A 
ATOM     17  C   UNL d   1      53.925  33.505  55.098  0.00  0.00     0.068 A 
ATOM     18  C   UNL d   1      55.280  33.890  55.614  0.00  0.00     0.029 C 
ENDBRANCH  12  13
ENDBRANCH   1  12
BRANCH   1  19
ATOM     19  C   UNL d   1      52.696  31.964  53.297  0.00  0.00     0.037 A 
ATOM     20  C   UNL d   1      53.082  31.832  52.609  0.00  0.00     0.100 A 
ATOM     21  N   UNL d   1      53.173  31.069  52.302  0.00  0.00    -0.242 NA
ATOM     22  C   UNL d   1      52.849  30.430  52.733  0.00  0.00     0.099 A 
ATOM     23  C   UNL d   1      52.452  30.576  53.442  0.00  0.00     0.021 A 
ATOM     24  C   UNL d   1      52.368  31.329  53.735  0.00  0.00     0.005 A 
ENDBRANCH   1  19
TORSDOF 4
ENDMDL
MODEL 6
REMARK VINA RESULT:      -7.2      1.162      3.378
REMARK  4 active torsions:
REMARK  status: ('A' for Active; 'I' for Inactive)
REMARK    1  A    between atoms: C_3  and  C_1 
REMARK    2  A    between atoms: N_10  and  C_3 
REMARK    3  A    between atoms: C_13  and  C_3 
REMARK    4  A    between atoms: C_5  and  N_10 
ROOT
ATOM      1  C   UNL d   1      52.685  32.782  53.745  0.00  0.00     0.086 C 
ENDROOT
BRANCH   1   2
ATOM      2  C   UNL d   1      53.035  32.130  53.359  0.00  0.00     0.037 A 
ATOM      3  C   UNL d   1      53.719  32.167  52.875  0.00  0.00     0.083 A 
ATOM      4  N   UNL d   1      53.878  31.443  52.612  0.00  0.00    -0.245 NA
ATOM      5  C   UNL d   1      54.151  32.847  52.705  0.00  0.00     0.021 C 
ATOM      6  C   UNL d   1      53.323  30.918  52.902  0.00  0.00     0.081 A 
ATOM      7  C   UNL d   1      52.794  31.349  53.371  0.00  0.00     0.021 A 
ATOM      8  C   UNL d   1      53.227  30.105  52.803  0.00  0.00     0.019 A 
ATOM      9  C   UNL d   1      52.175  30.961  53.735  0.00  0.00     0.002 A 
ATOM     10  C   UNL d   1      52.068  30.157  53.646  0.00  0.00     0.000 A 
ATOM     11  C   UNL d   1      52.597  29.727  53.177  0.00  0.00     0.002 A 
ENDBRANCH   1   2
BRANCH   1  12
ATOM     12  N   UNL d   1      52.836  32.913  54.534  0.00  0.00    -0.225 NA
BRANCH  12  13
ATOM     13  C   UNL d   1      53.401  33.454  54.737  0.00  0.00     0.191 A 
ATOM     14  N   UNL d   1      53.520  34.275  54.556  0.00  0.00    -0.107 NA
ATOM     15  O   UNL d   1      54.204  34.527  54.928  0.00  0.00    -0.210 OA
ATOM     16  C   UNL d   1      54.530  33.896  55.342  0.00  0.00     0.128 A 
ATOM     17  C   UNL d   1      54.040  33.230  55.228  0.00  0.00     0.068 A 
ATOM     18  C   UNL d   1      55.229  33.957  55.784  0.00  0.00     0.029 C 
ENDBRANCH  12  13
ENDBRANCH   1  12
BRANCH   1  19
ATOM     19  C   UNL d   1      52.191  33.282  53.316  0.00  0.00     0.037 A 
ATOM     20  C   UNL d   1      52.486  33.707  52.706  0.00  0.00     0.100 A 
ATOM     21  N   UNL d   1      52.011  34.216  52.260  0.00  0.00    -0.242 NA
ATOM     22  C   UNL d   1      51.202  34.278  52.464  0.00  0.00     0.099 A 
ATOM     23  C   UNL d   1      50.905  33.835  53.095  0.00  0.00     0.021 A 
ATOM     24  C   UNL d   1      51.381  33.338  53.526  0.00  0.00     0.005 A 
ENDBRANCH   1  19
TORSDOF 4
ENDMDL
