MODEL 1
REMARK VINA RESULT:     137.2      0.000      0.000
REMARK  6 active torsions:
REMARK  status: ('A' for Active; 'I' for Inactive)
REMARK    1  A    between atoms: S_12  and  C_5 
REMARK    2  A    between atoms: C_14  and  C_6 
REMARK    3  A    between atoms: C_10  and  C_13 
REMARK    4  A    between atoms: C_21  and  S_12 
REMARK    5  A    between atoms: C_15  and  C_21 
REMARK       I    between atoms: N_16  and  C_15 
REMARK    6  A    between atoms: C_18  and  N_16 
ROOT
ATOM      1  C   UNL d   1      61.559  47.709  52.013  0.00  0.00     0.186 A 
ATOM      2  C   UNL d   1      61.329  48.451  51.720  0.00  0.00     0.065 A 
ATOM      3  N   UNL d   1      61.510  47.040  51.535  0.00  0.00    -0.203 NA
ATOM      4  N   UNL d   1      61.000  47.857  50.472  0.00  0.00    -0.220 NA
ATOM      5  C   UNL d   1      61.053  48.514  50.953  0.00  0.00     0.116 A 
ATOM      6  C   UNL d   1      61.229  47.110  50.757  0.00  0.00     0.165 A 
ATOM      7  O   UNL d   1      61.838  47.635  52.783  0.00  0.00    -0.289 OA
ATOM      8  C   UNL d   1      61.380  49.119  52.202  0.00  0.00     0.007 A 
ATOM      9  C   UNL d   1      61.891  48.305  53.273  0.00  0.00     0.102 A 
ATOM     10  C   UNL d   1      61.662  49.044  52.981  0.00  0.00     0.023 A 
ATOM     11  C   UNL d   1      62.168  48.232  54.036  0.00  0.00     0.025 A 
ATOM     12  C   UNL d   1      61.713  49.705  53.462  0.00  0.00     0.002 A 
ATOM     13  C   UNL d   1      62.223  48.889  54.526  0.00  0.00     0.002 A 
ATOM     14  C   UNL d   1      61.995  49.630  54.238  0.00  0.00     0.000 A 
ENDROOT
BRANCH   5  15
ATOM     15  S   UNL d   1      60.822  49.257  50.660  0.00  0.00    -0.062 SA
BRANCH  15  16
ATOM     16  C   UNL d   1      60.553  49.329  49.888  0.00  0.00     0.099 C 
BRANCH  16  17
ATOM     17  C   UNL d   1      59.747  49.392  49.740  0.00  0.00     0.286 C 
ATOM     18  N   UNL d   1      59.204  49.343  50.362  0.00  0.00    -0.208 NA
ATOM     19  O   UNL d   1      59.470  49.505  48.973  0.00  0.00    -0.265 OA
BRANCH  18  20
ATOM     20  C   UNL d   1      58.399  49.407  50.214  0.00  0.00     0.085 A 
ATOM     21  C   UNL d   1      57.867  49.232  50.808  0.00  0.00     0.025 A 
ATOM     22  C   UNL d   1      57.066  49.293  50.666  0.00  0.00     0.066 A 
ATOM     23  C   UNL d   1      56.790  49.532  49.920  0.00  0.00     0.006 A 
ATOM     24  C   UNL d   1      57.331  49.706  49.327  0.00  0.00     0.002 A 
ATOM     25  C   UNL d   1      58.142  49.645  49.469  0.00  0.00     0.019 A 
BRANCH  22  26
ATOM     26  C   UNL d   1      56.517  49.119  51.262  0.00  0.00     0.211 C 
ATOM     27  O   UNL d   1      56.349  49.688  51.832  0.00  0.00    -0.644 OA
ATOM     28  O   UNL d   1      56.143  48.386  51.286  0.00  0.00    -0.644 OA
ENDBRANCH  22  26
ENDBRANCH  18  20
ENDBRANCH  16  17
ENDBRANCH  15  16
ENDBRANCH   5  15
BRANCH   6  29
ATOM     29  C   UNL d   1      61.179  46.441  50.276  0.00  0.00     0.036 A 
ATOM     30  C   UNL d   1      61.537  46.445  49.535  0.00  0.00     0.005 A 
ATOM     31  C   UNL d   1      61.490  45.776  49.049  0.00  0.00     0.030 A 
ATOM     32  C   UNL d   1      61.084  45.104  49.308  0.00  0.00     0.140 A 
ATOM     33  C   UNL d   1      60.720  45.101  50.061  0.00  0.00     0.030 A 
ATOM     34  F   UNL d   1      61.035  44.439  48.828  0.00  0.00    -0.204 F 
ATOM     35  C   UNL d   1      60.773  45.773  50.537  0.00  0.00     0.005 A 
ENDBRANCH   6  29
TORSDOF 6
ENDMDL
