MODEL 1
REMARK VINA RESULT:      -5.6      0.000      0.000
REMARK  4 active torsions:
REMARK  status: ('A' for Active; 'I' for Inactive)
REMARK    1  A    between atoms: S_2  and  C_1 
REMARK    2  A    between atoms: C_8  and  S_2 
REMARK    3  A    between atoms: N_7  and  C_4 
REMARK    4  A    between atoms: C_11  and  N_7 
ROOT
ATOM      1  C   UNL d   1      58.040  -0.504  30.422  0.00  0.00     0.187 A 
ATOM      2  N   UNL d   1      58.572  -1.089  30.309  0.00  0.00    -0.208 NA
ATOM      3  C   UNL d   1      58.922  -0.970  29.571  0.00  0.00     0.196 A 
ATOM      4  C   UNL d   1      57.984   0.027  29.815  0.00  0.00     0.118 A 
ATOM      5  S   UNL d   1      58.580  -0.275  29.224  0.00  0.00    -0.035 SA
ATOM      6 CL   UNL d   1      57.558   0.682  29.659  0.00  0.00    -0.073 Cl
ENDROOT
BRANCH   1   7
ATOM      7  S   UNL d   1      57.531  -0.357  31.073  0.00  0.00     0.228 S 
ATOM      8  O   UNL d   1      58.114   0.297  31.315  0.00  0.00    -0.216 OA
ATOM      9  O   UNL d   1      57.060  -0.973  30.771  0.00  0.00    -0.216 OA
BRANCH   7  10
ATOM     10  C   UNL d   1      57.033  -0.257  31.657  0.00  0.00     0.089 A 
ATOM     11  C   UNL d   1      56.810   0.431  31.995  0.00  0.00     0.011 A 
ATOM     12  C   UNL d   1      56.252   0.428  32.636  0.00  0.00     0.001 A 
ATOM     13  C   UNL d   1      55.890  -0.195  32.977  0.00  0.00     0.000 A 
ATOM     14  C   UNL d   1      56.090  -0.999  32.651  0.00  0.00     0.001 A 
ATOM     15  C   UNL d   1      55.294  -0.186  33.662  0.00  0.00     0.000 C 
ATOM     16  C   UNL d   1      56.648  -0.995  32.011  0.00  0.00     0.011 A 
ENDBRANCH   7  10
ENDBRANCH   1   7
BRANCH   3  17
ATOM     17  N   UNL d   1      59.567  -1.410  29.081  0.00  0.00    -0.221 NA
BRANCH  17  18
ATOM     18  C   UNL d   1      59.559  -2.284  28.957  0.00  0.00     0.084 A 
ATOM     19  C   UNL d   1      60.290  -2.592  29.032  0.00  0.00     0.018 A 
ATOM     20  C   UNL d   1      60.976  -2.228  29.194  0.00  0.00     0.002 C 
ATOM     21  C   UNL d   1      60.287  -3.383  28.921  0.00  0.00     0.002 A 
ATOM     22  C   UNL d   1      59.515  -3.821  28.735  0.00  0.00     0.000 A 
ATOM     23  C   UNL d   1      58.828  -3.476  28.672  0.00  0.00     0.002 A 
ATOM     24  C   UNL d   1      58.917  -2.608  28.808  0.00  0.00     0.019 A 
ENDBRANCH  17  18
ENDBRANCH   3  17
TORSDOF 4
ENDMDL
MODEL 2
REMARK VINA RESULT:      -3.8      2.170      2.778
REMARK  4 active torsions:
REMARK  status: ('A' for Active; 'I' for Inactive)
REMARK    1  A    between atoms: S_2  and  C_1 
REMARK    2  A    between atoms: C_8  and  S_2 
REMARK    3  A    between atoms: N_7  and  C_4 
REMARK    4  A    between atoms: C_11  and  N_7 
ROOT
ATOM      1  C   UNL d   1      57.009   0.126  31.861  0.00  0.00     0.187 A 
ATOM      2  N   UNL d   1      57.389   0.648  31.390  0.00  0.00    -0.208 NA
ATOM      3  C   UNL d   1      57.672   0.235  30.735  0.00  0.00     0.196 A 
ATOM      4  C   UNL d   1      57.001  -0.634  31.587  0.00  0.00     0.118 A 
ATOM      5  S   UNL d   1      57.449  -0.580  30.818  0.00  0.00    -0.035 SA
ATOM      6 CL   UNL d   1      56.709  -1.333  31.835  0.00  0.00    -0.073 Cl
ENDROOT
BRANCH   1   7
ATOM      7  S   UNL d   1      56.619   0.246  32.594  0.00  0.00     0.228 S 
ATOM      8  O   UNL d   1      55.879   0.452  32.108  0.00  0.00    -0.216 OA
ATOM      9  O   UNL d   1      57.344   0.043  32.948  0.00  0.00    -0.216 OA
BRANCH   7  10
ATOM     10  C   UNL d   1      56.301   0.345  33.293  0.00  0.00     0.089 A 
ATOM     11  C   UNL d   1      56.678   0.417  33.993  0.00  0.00     0.011 A 
ATOM     12  C   UNL d   1      56.229   0.524  34.707  0.00  0.00     0.001 A 
ATOM     13  C   UNL d   1      55.438   0.566  34.795  0.00  0.00     0.000 A 
ATOM     14  C   UNL d   1      54.950   0.494  34.055  0.00  0.00     0.001 A 
ATOM     15  C   UNL d   1      54.969   0.680  35.565  0.00  0.00     0.000 C 
ATOM     16  C   UNL d   1      55.399   0.387  33.341  0.00  0.00     0.011 A 
ENDBRANCH   7  10
ENDBRANCH   1   7
BRANCH   3  17
ATOM     17  N   UNL d   1      58.151   0.464  29.980  0.00  0.00    -0.221 NA
BRANCH  17  18
ATOM     18  C   UNL d   1      59.033   0.481  29.961  0.00  0.00     0.084 A 
ATOM     19  C   UNL d   1      59.307   0.325  29.229  0.00  0.00     0.018 A 
ATOM     20  C   UNL d   1      58.907   0.168  28.563  0.00  0.00     0.002 C 
ATOM     21  C   UNL d   1      60.105   0.339  29.207  0.00  0.00     0.002 A 
ATOM     22  C   UNL d   1      60.586   0.517  29.956  0.00  0.00     0.000 A 
ATOM     23  C   UNL d   1      60.271   0.662  30.646  0.00  0.00     0.002 A 
ATOM     24  C   UNL d   1      59.391   0.627  30.585  0.00  0.00     0.019 A 
ENDBRANCH  17  18
ENDBRANCH   3  17
TORSDOF 4
ENDMDL
MODEL 3
REMARK VINA RESULT:      -3.2      1.113      4.642
REMARK  4 active torsions:
REMARK  status: ('A' for Active; 'I' for Inactive)
REMARK    1  A    between atoms: S_2  and  C_1 
REMARK    2  A    between atoms: C_8  and  S_2 
REMARK    3  A    between atoms: N_7  and  C_4 
REMARK    4  A    between atoms: C_11  and  N_7 
ROOT
ATOM      1  C   UNL d   1      58.564  -0.846  29.994  0.00  0.00     0.187 A 
ATOM      2  N   UNL d   1      58.320  -0.774  30.752  0.00  0.00    -0.208 NA
ATOM      3  C   UNL d   1      57.825  -0.116  30.794  0.00  0.00     0.196 A 
ATOM      4  C   UNL d   1      58.277  -0.283  29.490  0.00  0.00     0.118 A 
ATOM      5  S   UNL d   1      57.769   0.225  30.018  0.00  0.00    -0.035 SA
ATOM      6 CL   UNL d   1      58.348  -0.114  28.714  0.00  0.00    -0.073 Cl
ENDROOT
BRANCH   1   7
ATOM      7  S   UNL d   1      59.072  -1.414  29.643  0.00  0.00     0.228 S 
ATOM      8  O   UNL d   1      58.421  -1.537  29.021  0.00  0.00    -0.216 OA
ATOM      9  O   UNL d   1      59.605  -1.232  30.255  0.00  0.00    -0.216 OA
BRANCH   7  10
ATOM     10  C   UNL d   1      59.573  -1.930  29.355  0.00  0.00     0.089 A 
ATOM     11  C   UNL d   1      60.262  -1.780  28.979  0.00  0.00     0.011 A 
ATOM     12  C   UNL d   1      60.741  -2.425  28.700  0.00  0.00     0.001 A 
ATOM     13  C   UNL d   1      60.603  -3.208  28.757  0.00  0.00     0.000 A 
ATOM     14  C   UNL d   1      59.850  -3.451  29.166  0.00  0.00     0.001 A 
ATOM     15  C   UNL d   1      61.122  -3.889  28.455  0.00  0.00     0.000 C 
ATOM     16  C   UNL d   1      59.372  -2.806  29.445  0.00  0.00     0.011 A 
ENDBRANCH   7  10
ENDBRANCH   1   7
BRANCH   3  17
ATOM     17  N   UNL d   1      57.350   0.297  31.468  0.00  0.00    -0.221 NA
BRANCH  17  18
ATOM     18  C   UNL d   1      56.897  -0.154  32.077  0.00  0.00     0.084 A 
ATOM     19  C   UNL d   1      57.066   0.106  32.811  0.00  0.00     0.018 A 
ATOM     20  C   UNL d   1      57.560   0.682  33.041  0.00  0.00     0.002 C 
ATOM     21  C   UNL d   1      56.657  -0.299  33.365  0.00  0.00     0.002 A 
ATOM     22  C   UNL d   1      56.086  -0.962  33.127  0.00  0.00     0.000 A 
ATOM     23  C   UNL d   1      55.956  -1.178  32.397  0.00  0.00     0.002 A 
ATOM     24  C   UNL d   1      56.443  -0.684  31.850  0.00  0.00     0.019 A 
ENDBRANCH  17  18
ENDBRANCH   3  17
TORSDOF 4
ENDMDL
