MODEL 1
REMARK VINA RESULT:      -7.7      0.000      0.000
REMARK  3 active torsions:
REMARK  status: ('A' for Active; 'I' for Inactive)
REMARK    1  A    between atoms: N_2  and  S_1 
REMARK    2  A    between atoms: C_3  and  S_1 
REMARK    3  A    between atoms: C_10  and  C_9 
ROOT
ATOM      1  C   UNL d   1     -48.711  14.302  22.290  0.00  0.00     0.104 A 
ATOM      2  C   UNL d   1     -47.292  13.468  22.457  0.00  0.00     0.000 A 
ATOM      3  C   UNL d   1     -48.235  14.427  22.949  0.00  0.00     0.013 A 
ATOM      4  C   UNL d   1     -48.481  13.760  21.709  0.00  0.00     0.013 A 
ATOM      5  C   UNL d   1     -47.770  13.342  21.793  0.00  0.00     0.001 A 
ATOM      6  C   UNL d   1     -47.523  14.009  23.032  0.00  0.00     0.001 A 
ENDROOT
BRANCH   1   7
ATOM      7  S   UNL d   1     -49.417  14.721  22.213  0.00  0.00     0.271 S 
ATOM      8  O   UNL d   1     -49.017  15.349  21.877  0.00  0.00    -0.200 OA
ATOM      9  O   UNL d   1     -50.124  15.133  22.141  0.00  0.00    -0.200 OA
BRANCH   7  10
ATOM     10  N   UNL d   1     -49.829  14.092  22.552  0.00  0.00    -0.226 N 
ATOM     11  C   UNL d   1     -50.122  13.489  22.062  0.00  0.00     0.111 A 
ATOM     12  C   UNL d   1     -50.534  12.859  22.400  0.00  0.00     0.100 A 
ATOM     13  N   UNL d   1     -50.648  12.836  23.212  0.00  0.00    -0.299 N 
ATOM     14  C   UNL d   1     -50.360  13.430  23.698  0.00  0.00     0.100 A 
ATOM     15  C   UNL d   1     -51.064  12.197  23.546  0.00  0.00     0.100 C 
ATOM     16  C   UNL d   1     -49.948  14.060  23.364  0.00  0.00     0.111 A 
ENDBRANCH   7  10
ENDBRANCH   1   7
BRANCH   2  17
ATOM     17  C   UNL d   1     -46.586  13.058  22.546  0.00  0.00     0.000 A 
ATOM     18  C   UNL d   1     -45.908  13.299  22.147  0.00  0.00     0.001 A 
ATOM     19  C   UNL d   1     -45.203  12.882  22.242  0.00  0.00     0.011 A 
ATOM     20  C   UNL d   1     -45.175  12.224  22.737  0.00  0.00     0.058 A 
ATOM     21  C   UNL d   1     -45.865  11.983  23.140  0.00  0.00     0.011 A 
ATOM     22 CL   UNL d   1     -44.478  11.812  22.831  0.00  0.00    -0.082 Cl
ATOM     23  C   UNL d   1     -46.560  12.401  23.041  0.00  0.00     0.001 A 
ENDBRANCH   2  17
TORSDOF 3
ENDMDL
MODEL 2
REMARK VINA RESULT:      -7.6      0.277      1.061
REMARK  3 active torsions:
REMARK  status: ('A' for Active; 'I' for Inactive)
REMARK    1  A    between atoms: N_2  and  S_1 
REMARK    2  A    between atoms: C_3  and  S_1 
REMARK    3  A    between atoms: C_10  and  C_9 
ROOT
ATOM      1  C   UNL d   1     -48.830  14.454  22.469  0.00  0.00     0.104 A 
ATOM      2  C   UNL d   1     -47.367  13.682  22.523  0.00  0.00     0.000 A 
ATOM      3  C   UNL d   1     -48.544  14.063  21.803  0.00  0.00     0.013 A 
ATOM      4  C   UNL d   1     -48.385  14.460  23.167  0.00  0.00     0.013 A 
ATOM      5  C   UNL d   1     -47.652  14.074  23.194  0.00  0.00     0.001 A 
ATOM      6  C   UNL d   1     -47.811  13.676  21.830  0.00  0.00     0.001 A 
ENDROOT
BRANCH   1   7
ATOM      7  S   UNL d   1     -49.559  14.836  22.435  0.00  0.00     0.271 S 
ATOM      8  O   UNL d   1     -49.193  15.530  22.210  0.00  0.00    -0.200 OA
ATOM      9  O   UNL d   1     -50.289  15.210  22.403  0.00  0.00    -0.200 OA
BRANCH   7  10
ATOM     10  N   UNL d   1     -49.936  14.138  22.662  0.00  0.00    -0.226 N 
ATOM     11  C   UNL d   1     -50.060  13.989  23.470  0.00  0.00     0.111 A 
ATOM     12  C   UNL d   1     -50.437  13.292  23.698  0.00  0.00     0.100 A 
ATOM     13  N   UNL d   1     -50.684  12.757  23.126  0.00  0.00    -0.299 N 
ATOM     14  C   UNL d   1     -50.563  12.902  22.329  0.00  0.00     0.100 A 
ATOM     15  C   UNL d   1     -51.064  12.055  23.364  0.00  0.00     0.100 C 
ATOM     16  C   UNL d   1     -50.187  13.597  22.097  0.00  0.00     0.111 A 
ENDBRANCH   7  10
ENDBRANCH   1   7
BRANCH   2  17
ATOM     17  C   UNL d   1     -46.642  13.297  22.542  0.00  0.00     0.000 A 
ATOM     18  C   UNL d   1     -46.562  12.572  22.923  0.00  0.00     0.001 A 
ATOM     19  C   UNL d   1     -45.831  12.191  22.938  0.00  0.00     0.011 A 
ATOM     20  C   UNL d   1     -45.178  12.535  22.572  0.00  0.00     0.058 A 
ATOM     21  C   UNL d   1     -45.262  13.270  22.187  0.00  0.00     0.011 A 
ATOM     22 CL   UNL d   1     -44.455  12.158  22.587  0.00  0.00    -0.082 Cl
ATOM     23  C   UNL d   1     -45.990  13.642  22.176  0.00  0.00     0.001 A 
ENDBRANCH   2  17
TORSDOF 3
ENDMDL
MODEL 3
REMARK VINA RESULT:      -6.7      8.741      9.892
REMARK  3 active torsions:
REMARK  status: ('A' for Active; 'I' for Inactive)
REMARK    1  A    between atoms: N_2  and  S_1 
REMARK    2  A    between atoms: C_3  and  S_1 
REMARK    3  A    between atoms: C_10  and  C_9 
ROOT
ATOM      1  C   UNL d   1     -40.631  15.118  18.035  0.00  0.00     0.104 A 
ATOM      2  C   UNL d   1     -40.023  14.685  19.512  0.00  0.00     0.000 A 
ATOM      3  C   UNL d   1     -40.394  15.697  18.570  0.00  0.00     0.013 A 
ATOM      4  C   UNL d   1     -40.566  14.318  18.237  0.00  0.00     0.013 A 
ATOM      5  C   UNL d   1     -40.261  14.101  18.976  0.00  0.00     0.001 A 
ATOM      6  C   UNL d   1     -40.089  15.480  19.310  0.00  0.00     0.001 A 
ENDROOT
BRANCH   1   7
ATOM      7  S   UNL d   1     -40.934  15.341  17.302  0.00  0.00     0.271 S 
ATOM      8  O   UNL d   1     -41.677  15.430  17.626  0.00  0.00    -0.200 OA
ATOM      9  O   UNL d   1     -41.227  15.563  16.568  0.00  0.00    -0.200 OA
BRANCH   7  10
ATOM     10  N   UNL d   1     -40.185  15.254  16.966  0.00  0.00    -0.226 N 
ATOM     11  C   UNL d   1     -39.698  15.922  16.884  0.00  0.00     0.111 A 
ATOM     12  C   UNL d   1     -38.949  15.836  16.548  0.00  0.00     0.100 A 
ATOM     13  N   UNL d   1     -38.697  15.095  16.301  0.00  0.00    -0.299 N 
ATOM     14  C   UNL d   1     -39.175  14.435  16.381  0.00  0.00     0.100 A 
ATOM     15  C   UNL d   1     -37.940  15.016  15.962  0.00  0.00     0.100 C 
ATOM     16  C   UNL d   1     -39.924  14.517  16.716  0.00  0.00     0.111 A 
ENDBRANCH   7  10
ENDBRANCH   1   7
BRANCH   2  17
ATOM     17  C   UNL d   1     -39.720  14.478  20.247  0.00  0.00     0.000 A 
ATOM     18  C   UNL d   1     -40.188  14.524  20.921  0.00  0.00     0.001 A 
ATOM     19  C   UNL d   1     -39.876  14.314  21.656  0.00  0.00     0.011 A 
ATOM     20  C   UNL d   1     -39.097  14.058  21.716  0.00  0.00     0.058 A 
ATOM     21  C   UNL d   1     -38.624  14.012  21.029  0.00  0.00     0.011 A 
ATOM     22 CL   UNL d   1     -38.789  13.850  22.442  0.00  0.00    -0.082 Cl
ATOM     23  C   UNL d   1     -38.939  14.221  20.305  0.00  0.00     0.001 A 
ENDBRANCH   2  17
TORSDOF 3
ENDMDL
MODEL 4
REMARK VINA RESULT:      -6.4      8.474      9.704
REMARK  3 active torsions:
REMARK  status: ('A' for Active; 'I' for Inactive)
REMARK    1  A    between atoms: N_2  and  S_1 
REMARK    2  A    between atoms: C_3  and  S_1 
REMARK    3  A    between atoms: C_10  and  C_9 
ROOT
ATOM      1  C   UNL d   1     -40.383  15.235  19.548  0.00  0.00     0.104 A 
ATOM      2  C   UNL d   1     -39.575  14.606  18.248  0.00  0.00     0.000 A 
ATOM      3  C   UNL d   1     -39.769  15.658  19.200  0.00  0.00     0.013 A 
ATOM      4  C   UNL d   1     -40.597  14.495  19.248  0.00  0.00     0.013 A 
ATOM      5  C   UNL d   1     -40.193  14.180  18.597  0.00  0.00     0.001 A 
ATOM      6  C   UNL d   1     -39.364  15.343  18.549  0.00  0.00     0.001 A 
ENDROOT
BRANCH   1   7
ATOM      7  S   UNL d   1     -40.781  15.555  20.195  0.00  0.00     0.271 S 
ATOM      8  O   UNL d   1     -41.313  15.922  19.697  0.00  0.00    -0.200 OA
ATOM      9  O   UNL d   1     -41.172  15.870  20.845  0.00  0.00    -0.200 OA
BRANCH   7  10
ATOM     10  N   UNL d   1     -40.248  15.188  20.706  0.00  0.00    -0.226 N 
ATOM     11  C   UNL d   1     -40.413  14.422  20.983  0.00  0.00     0.111 A 
ATOM     12  C   UNL d   1     -39.881  14.053  21.494  0.00  0.00     0.100 A 
ATOM     13  N   UNL d   1     -39.197  14.447  21.721  0.00  0.00    -0.299 N 
ATOM     14  C   UNL d   1     -39.031  15.202  21.449  0.00  0.00     0.100 A 
ATOM     15  C   UNL d   1     -38.663  14.068  22.237  0.00  0.00     0.100 C 
ATOM     16  C   UNL d   1     -39.561  15.573  20.939  0.00  0.00     0.111 A 
ENDBRANCH   7  10
ENDBRANCH   1   7
BRANCH   2  17
ATOM     17  C   UNL d   1     -39.169  14.301  17.603  0.00  0.00     0.000 A 
ATOM     18  C   UNL d   1     -38.729  13.610  17.674  0.00  0.00     0.001 A 
ATOM     19  C   UNL d   1     -38.324  13.309  17.021  0.00  0.00     0.011 A 
ATOM     20  C   UNL d   1     -38.360  13.699  16.297  0.00  0.00     0.058 A 
ATOM     21  C   UNL d   1     -38.808  14.400  16.228  0.00  0.00     0.011 A 
ATOM     22 CL   UNL d   1     -37.959  13.401  15.652  0.00  0.00    -0.082 Cl
ATOM     23  C   UNL d   1     -39.206  14.692  16.879  0.00  0.00     0.001 A 
ENDBRANCH   2  17
TORSDOF 3
ENDMDL
MODEL 5
REMARK VINA RESULT:      -5.4      9.442     10.194
REMARK  3 active torsions:
REMARK  status: ('A' for Active; 'I' for Inactive)
REMARK    1  A    between atoms: N_2  and  S_1 
REMARK    2  A    between atoms: C_3  and  S_1 
REMARK    3  A    between atoms: C_10  and  C_9 
ROOT
ATOM      1  C   UNL d   1     -38.787  14.408  18.426  0.00  0.00     0.104 A 
ATOM      2  C   UNL d   1     -38.892  14.903  20.002  0.00  0.00     0.000 A 
ATOM      3  C   UNL d   1     -38.403  15.094  18.670  0.00  0.00     0.013 A 
ATOM      4  C   UNL d   1     -39.226  13.965  18.969  0.00  0.00     0.013 A 
ATOM      5  C   UNL d   1     -39.278  14.213  19.759  0.00  0.00     0.001 A 
ATOM      6  C   UNL d   1     -38.455  15.342  19.459  0.00  0.00     0.001 A 
ENDROOT
BRANCH   1   7
ATOM      7  S   UNL d   1     -38.730  14.168  17.639  0.00  0.00     0.271 S 
ATOM      8  O   UNL d   1     -38.059  13.736  17.812  0.00  0.00    -0.200 OA
ATOM      9  O   UNL d   1     -38.680  13.933  16.854  0.00  0.00    -0.200 OA
BRANCH   7  10
ATOM     10  N   UNL d   1     -39.407  14.603  17.457  0.00  0.00    -0.226 N 
ATOM     11  C   UNL d   1     -39.325  15.359  17.122  0.00  0.00     0.111 A 
ATOM     12  C   UNL d   1     -40.001  15.795  16.939  0.00  0.00     0.100 A 
ATOM     13  N   UNL d   1     -40.743  15.476  17.089  0.00  0.00    -0.299 N 
ATOM     14  C   UNL d   1     -40.826  14.731  17.419  0.00  0.00     0.100 A 
ATOM     15  C   UNL d   1     -41.421  15.922  16.902  0.00  0.00     0.100 C 
ATOM     16  C   UNL d   1     -40.153  14.293  17.603  0.00  0.00     0.111 A 
ENDBRANCH   7  10
ENDBRANCH   1   7
BRANCH   2  17
ATOM     17  C   UNL d   1     -38.939  15.155  20.782  0.00  0.00     0.000 A 
ATOM     18  C   UNL d   1     -39.582  14.946  21.251  0.00  0.00     0.001 A 
ATOM     19  C   UNL d   1     -39.622  15.202  22.034  0.00  0.00     0.011 A 
ATOM     20  C   UNL d   1     -39.020  15.668  22.348  0.00  0.00     0.058 A 
ATOM     21  C   UNL d   1     -38.370  15.878  21.869  0.00  0.00     0.011 A 
ATOM     22 CL   UNL d   1     -39.061  15.922  23.122  0.00  0.00    -0.082 Cl
ATOM     23  C   UNL d   1     -38.336  15.620  21.094  0.00  0.00     0.001 A 
ENDBRANCH   2  17
TORSDOF 3
ENDMDL
