MODEL 1
REMARK VINA RESULT:      -7.7      0.000      0.000
REMARK  3 active torsions:
REMARK  status: ('A' for Active; 'I' for Inactive)
REMARK    1  A    between atoms: C_2  and  S_1 
REMARK    2  A    between atoms: N_3  and  S_1 
REMARK    3  A    between atoms: N_4  and  C_6 
ROOT
ATOM      1  C   UNL d   1     -48.306  12.528  22.979  0.00  0.00     0.116 A 
ATOM      2  C   UNL d   1     -47.563  12.907  22.971  0.00  0.00     0.037 A 
ATOM      3  C   UNL d   1     -46.924  12.540  23.325  0.00  0.00     0.127 A 
ATOM      4  C   UNL d   1     -48.395  11.784  23.344  0.00  0.00     0.070 A 
ATOM      5  C   UNL d   1     -47.017  11.777  23.698  0.00  0.00     0.024 A 
ATOM      6  C   UNL d   1     -47.744  11.421  23.698  0.00  0.00     0.014 A 
ATOM      7 CL   UNL d   1     -49.092  11.478  23.326  0.00  0.00    -0.082 Cl
ENDROOT
BRANCH   1   8
ATOM      8  S   UNL d   1     -48.968  12.910  22.612  0.00  0.00     0.273 S 
ATOM      9  O   UNL d   1     -49.173  13.260  23.336  0.00  0.00    -0.200 OA
ATOM     10  O   UNL d   1     -48.764  12.554  21.865  0.00  0.00    -0.200 OA
BRANCH   8  11
ATOM     11  N   UNL d   1     -49.602  13.272  22.247  0.00  0.00    -0.210 N 
ATOM     12  C   UNL d   1     -49.917  13.110  21.455  0.00  0.00     0.193 A 
ATOM     13  N   UNL d   1     -50.566  13.631  21.350  0.00  0.00    -0.222 NA
ATOM     14  C   UNL d   1     -50.647  14.096  22.051  0.00  0.00     0.120 A 
ATOM     15  C   UNL d   1     -50.054  13.858  22.572  0.00  0.00     0.114 A 
ENDBRANCH   8  11
ENDBRANCH   1   8
BRANCH   3  16
ATOM     16  N   UNL d   1     -46.199  12.916  23.313  0.00  0.00    -0.114 N 
ATOM     17  O   UNL d   1     -46.037  13.638  23.629  0.00  0.00    -0.532 OA
ATOM     18  O   UNL d   1     -45.530  12.588  22.964  0.00  0.00    -0.532 OA
ENDBRANCH   3  16
TORSDOF 3
ENDMDL
MODEL 2
REMARK VINA RESULT:      -7.6      1.664      3.390
REMARK  3 active torsions:
REMARK  status: ('A' for Active; 'I' for Inactive)
REMARK    1  A    between atoms: C_2  and  S_1 
REMARK    2  A    between atoms: N_3  and  S_1 
REMARK    3  A    between atoms: N_4  and  C_6 
ROOT
ATOM      1  C   UNL d   1     -48.675  12.728  22.420  0.00  0.00     0.116 A 
ATOM      2  C   UNL d   1     -49.163  12.374  22.996  0.00  0.00     0.037 A 
ATOM      3  C   UNL d   1     -49.913  12.126  22.787  0.00  0.00     0.127 A 
ATOM      4  C   UNL d   1     -48.950  12.827  21.640  0.00  0.00     0.070 A 
ATOM      5  C   UNL d   1     -50.193  12.228  21.986  0.00  0.00     0.024 A 
ATOM      6  C   UNL d   1     -49.708  12.573  21.437  0.00  0.00     0.014 A 
ATOM      7 CL   UNL d   1     -48.468  13.155  21.149  0.00  0.00    -0.082 Cl
ENDROOT
BRANCH   1   8
ATOM      8  S   UNL d   1     -47.898  12.984  22.640  0.00  0.00     0.273 S 
ATOM      9  O   UNL d   1     -48.165  13.769  22.685  0.00  0.00    -0.200 OA
ATOM     10  O   UNL d   1     -47.615  12.181  22.596  0.00  0.00    -0.200 OA
BRANCH   8  11
ATOM     11  N   UNL d   1     -47.145  13.219  22.850  0.00  0.00    -0.210 N 
ATOM     12  C   UNL d   1     -46.460  12.711  23.013  0.00  0.00     0.193 A 
ATOM     13  N   UNL d   1     -45.826  13.225  23.203  0.00  0.00    -0.222 NA
ATOM     14  C   UNL d   1     -46.110  14.022  23.159  0.00  0.00     0.120 A 
ATOM     15  C   UNL d   1     -46.905  13.985  22.945  0.00  0.00     0.114 A 
ENDBRANCH   8  11
ENDBRANCH   1   8
BRANCH   3  16
ATOM     16  N   UNL d   1     -50.386  11.780  23.356  0.00  0.00    -0.114 N 
ATOM     17  O   UNL d   1     -50.265  11.062  23.698  0.00  0.00    -0.532 OA
ATOM     18  O   UNL d   1     -51.064  12.140  23.654  0.00  0.00    -0.532 OA
ENDBRANCH   3  16
TORSDOF 3
ENDMDL
MODEL 3
REMARK VINA RESULT:      -7.5      1.396      3.497
REMARK  3 active torsions:
REMARK  status: ('A' for Active; 'I' for Inactive)
REMARK    1  A    between atoms: C_2  and  S_1 
REMARK    2  A    between atoms: N_3  and  S_1 
REMARK    3  A    between atoms: N_4  and  C_6 
ROOT
ATOM      1  C   UNL d   1     -48.725  13.529  22.487  0.00  0.00     0.116 A 
ATOM      2  C   UNL d   1     -49.072  14.151  22.921  0.00  0.00     0.037 A 
ATOM      3  C   UNL d   1     -49.735  14.526  22.621  0.00  0.00     0.127 A 
ATOM      4  C   UNL d   1     -49.050  13.293  21.757  0.00  0.00     0.070 A 
ATOM      5  C   UNL d   1     -50.066  14.282  21.873  0.00  0.00     0.024 A 
ATOM      6  C   UNL d   1     -49.718  13.677  21.463  0.00  0.00     0.014 A 
ATOM      7 CL   UNL d   1     -48.698  12.721  21.398  0.00  0.00    -0.082 Cl
ENDROOT
BRANCH   1   8
ATOM      8  S   UNL d   1     -48.039  13.142  22.799  0.00  0.00     0.273 S 
ATOM      9  O   UNL d   1     -48.522  12.591  23.190  0.00  0.00    -0.200 OA
ATOM     10  O   UNL d   1     -47.536  13.704  22.402  0.00  0.00    -0.200 OA
BRANCH   8  11
ATOM     11  N   UNL d   1     -47.370  12.778  23.094  0.00  0.00    -0.210 N 
ATOM     12  C   UNL d   1     -46.554  13.071  23.063  0.00  0.00     0.193 A 
ATOM     13  N   UNL d   1     -46.082  12.490  23.442  0.00  0.00    -0.222 NA
ATOM     14  C   UNL d   1     -46.590  11.862  23.697  0.00  0.00     0.120 A 
ATOM     15  C   UNL d   1     -47.357  12.064  23.473  0.00  0.00     0.114 A 
ENDBRANCH   8  11
ENDBRANCH   1   8
BRANCH   3  16
ATOM     16  N   UNL d   1     -50.070  15.134  23.051  0.00  0.00    -0.114 N 
ATOM     17  O   UNL d   1     -49.954  15.920  22.926  0.00  0.00    -0.532 OA
ATOM     18  O   UNL d   1     -50.582  15.006  23.683  0.00  0.00    -0.532 OA
ENDBRANCH   3  16
TORSDOF 3
ENDMDL
