MODEL 1
REMARK VINA RESULT:      -3.7      0.000      0.000
REMARK  2 active torsions:
REMARK  status: ('A' for Active; 'I' for Inactive)
REMARK    1  A    between atoms: N_10  and  C_6 
REMARK    2  A    between atoms: C_12  and  N_10 
ROOT
ATOM      1  N   UNL d   1      33.237  20.095 -22.650  0.00  0.00    -0.169 N 
ATOM      2  C   UNL d   1      33.235  19.596 -21.992  0.00  0.00     0.201 A 
ATOM      3  C   UNL d   1      33.237  20.904 -22.545  0.00  0.00     0.283 A 
ATOM      4  S   UNL d   1      33.236  18.817 -22.261  0.00  0.00    -0.008 SA
ATOM      5  N   UNL d   1      33.240  19.617 -23.328  0.00  0.00    -0.134 NA
ATOM      6  C   UNL d   1      33.239  18.836 -23.087  0.00  0.00     0.216 A 
ATOM      7  N   UNL d   1      33.232  19.897 -21.237  0.00  0.00    -0.221 NA
ATOM      8  C   UNL d   1      33.234  21.223 -21.782  0.00  0.00     0.076 A 
ATOM      9  C   UNL d   1      33.232  20.719 -21.128  0.00  0.00     0.088 A 
ATOM     10  O   UNL d   1      33.240  21.408 -23.199  0.00  0.00    -0.265 OA
ATOM     11  C   UNL d   1      33.234  22.042 -21.669  0.00  0.00     0.006 A 
ATOM     12  C   UNL d   1      33.229  21.034 -20.361  0.00  0.00     0.019 A 
ATOM     13  C   UNL d   1      33.231  22.354 -20.894  0.00  0.00     0.000 A 
ATOM     14  C   UNL d   1      33.229  21.858 -20.250  0.00  0.00     0.002 A 
ENDROOT
BRANCH   6  15
ATOM     15  N   UNL d   1      33.241  18.175 -23.582  0.00  0.00    -0.220 NA
BRANCH  15  16
ATOM     16  C   UNL d   1      32.557  17.918 -23.955  0.00  0.00     0.084 A 
ATOM     17  C   UNL d   1      32.078  17.358 -23.604  0.00  0.00     0.019 A 
ATOM     18  C   UNL d   1      31.397  17.111 -23.989  0.00  0.00     0.002 A 
ATOM     19  C   UNL d   1      30.911  16.548 -23.642  0.00  0.00     0.000 C 
ATOM     20  C   UNL d   1      31.205  17.431 -24.725  0.00  0.00     0.000 A 
ATOM     21  C   UNL d   1      31.682  17.990 -25.075  0.00  0.00     0.002 A 
ATOM     22  C   UNL d   1      32.367  18.238 -24.688  0.00  0.00     0.019 A 
ENDBRANCH  15  16
ENDBRANCH   6  15
TORSDOF 2
ENDMDL
MODEL 2
REMARK VINA RESULT:      -3.0      1.719      4.894
REMARK  2 active torsions:
REMARK  status: ('A' for Active; 'I' for Inactive)
REMARK    1  A    between atoms: N_10  and  C_6 
REMARK    2  A    between atoms: C_12  and  N_10 
ROOT
ATOM      1  N   UNL d   1      31.724  17.428 -23.814  0.00  0.00    -0.169 N 
ATOM      2  C   UNL d   1      31.432  17.994 -24.340  0.00  0.00     0.201 A 
ATOM      3  C   UNL d   1      31.304  16.741 -23.685  0.00  0.00     0.283 A 
ATOM      4  S   UNL d   1      31.964  18.623 -24.362  0.00  0.00    -0.008 SA
ATOM      5  N   UNL d   1      32.441  17.712 -23.512  0.00  0.00    -0.134 NA
ATOM      6  C   UNL d   1      32.586  18.443 -23.848  0.00  0.00     0.216 A 
ATOM      7  N   UNL d   1      30.729  17.880 -24.733  0.00  0.00    -0.221 NA
ATOM      8  C   UNL d   1      30.588  16.612 -24.078  0.00  0.00     0.076 A 
ATOM      9  C   UNL d   1      30.301  17.182 -24.603  0.00  0.00     0.088 A 
ATOM     10  O   UNL d   1      31.591  16.171 -23.160  0.00  0.00    -0.265 OA
ATOM     11  C   UNL d   1      30.157  15.918 -23.951  0.00  0.00     0.006 A 
ATOM     12  C   UNL d   1      29.583  17.056 -24.999  0.00  0.00     0.019 A 
ATOM     13  C   UNL d   1      29.436  15.797 -24.353  0.00  0.00     0.000 A 
ATOM     14  C   UNL d   1      29.153  16.357 -24.869  0.00  0.00     0.002 A 
ENDROOT
BRANCH   6  15
ATOM     15  N   UNL d   1      33.241  18.925 -23.702  0.00  0.00    -0.220 NA
BRANCH  15  16
ATOM     16  C   UNL d   1      33.241  19.473 -23.093  0.00  0.00     0.084 A 
ATOM     17  C   UNL d   1      33.241  20.273 -23.254  0.00  0.00     0.019 A 
ATOM     18  C   UNL d   1      33.241  20.811 -22.633  0.00  0.00     0.002 A 
ATOM     19  C   UNL d   1      33.241  21.616 -22.789  0.00  0.00     0.000 C 
ATOM     20  C   UNL d   1      33.241  20.535 -21.855  0.00  0.00     0.000 A 
ATOM     21  C   UNL d   1      33.241  19.738 -21.694  0.00  0.00     0.002 A 
ATOM     22  C   UNL d   1      33.241  19.198 -22.318  0.00  0.00     0.019 A 
ENDBRANCH  15  16
ENDBRANCH   6  15
TORSDOF 2
ENDMDL
MODEL 3
REMARK VINA RESULT:      -2.5      2.913      5.567
REMARK  2 active torsions:
REMARK  status: ('A' for Active; 'I' for Inactive)
REMARK    1  A    between atoms: N_10  and  C_6 
REMARK    2  A    between atoms: C_12  and  N_10 
ROOT
ATOM      1  N   UNL d   1      30.289  16.103 -23.683  0.00  0.00    -0.169 N 
ATOM      2  C   UNL d   1      30.281  16.128 -24.509  0.00  0.00     0.201 A 
ATOM      3  C   UNL d   1      29.604  15.930 -23.277  0.00  0.00     0.283 A 
ATOM      4  S   UNL d   1      31.041  16.315 -24.768  0.00  0.00    -0.008 SA
ATOM      5  N   UNL d   1      31.061  16.276 -23.434  0.00  0.00    -0.134 NA
ATOM      6  C   UNL d   1      31.519  16.405 -24.099  0.00  0.00     0.216 A 
ATOM      7  N   UNL d   1      29.599  15.982 -24.927  0.00  0.00    -0.221 NA
ATOM      8  C   UNL d   1      28.904  15.779 -23.690  0.00  0.00     0.076 A 
ATOM      9  C   UNL d   1      28.901  15.806 -24.515  0.00  0.00     0.088 A 
ATOM     10  O   UNL d   1      29.606  15.904 -22.451  0.00  0.00    -0.265 OA
ATOM     11  C   UNL d   1      28.205  15.603 -23.283  0.00  0.00     0.006 A 
ATOM     12  C   UNL d   1      28.201  15.656 -24.933  0.00  0.00     0.019 A 
ATOM     13  C   UNL d   1      27.503  15.453 -23.709  0.00  0.00     0.000 A 
ATOM     14  C   UNL d   1      27.501  15.478 -24.522  0.00  0.00     0.002 A 
ENDROOT
BRANCH   6  15
ATOM     15  N   UNL d   1      32.323  16.593 -24.107  0.00  0.00    -0.220 NA
BRANCH  15  16
ATOM     16  C   UNL d   1      32.583  17.362 -23.993  0.00  0.00     0.084 A 
ATOM     17  C   UNL d   1      32.781  17.628 -23.248  0.00  0.00     0.019 A 
ATOM     18  C   UNL d   1      33.039  18.401 -23.149  0.00  0.00     0.002 A 
ATOM     19  C   UNL d   1      33.240  18.674 -22.402  0.00  0.00     0.000 C 
ATOM     20  C   UNL d   1      33.095  18.899 -23.805  0.00  0.00     0.000 A 
ATOM     21  C   UNL d   1      32.898  18.635 -24.548  0.00  0.00     0.002 A 
ATOM     22  C   UNL d   1      32.638  17.858 -24.647  0.00  0.00     0.019 A 
ENDBRANCH  15  16
ENDBRANCH   6  15
TORSDOF 2
ENDMDL
MODEL 4
REMARK VINA RESULT:      -1.2      2.657      4.059
REMARK  2 active torsions:
REMARK  status: ('A' for Active; 'I' for Inactive)
REMARK    1  A    between atoms: N_10  and  C_6 
REMARK    2  A    between atoms: C_12  and  N_10 
ROOT
ATOM      1  N   UNL d   1      31.066  17.324 -24.224  0.00  0.00    -0.169 N 
ATOM      2  C   UNL d   1      31.615  17.015 -23.689  0.00  0.00     0.201 A 
ATOM      3  C   UNL d   1      31.196  18.055 -24.560  0.00  0.00     0.283 A 
ATOM      4  S   UNL d   1      31.344  16.277 -23.440  0.00  0.00    -0.008 SA
ATOM      5  N   UNL d   1      30.454  16.770 -24.302  0.00  0.00    -0.134 NA
ATOM      6  C   UNL d   1      30.626  16.131 -23.823  0.00  0.00     0.216 A 
ATOM      7  N   UNL d   1      32.286  17.428 -23.491  0.00  0.00    -0.221 NA
ATOM      8  C   UNL d   1      31.875  18.486 -24.367  0.00  0.00     0.076 A 
ATOM      9  C   UNL d   1      32.420  18.172 -23.832  0.00  0.00     0.088 A 
ATOM     10  O   UNL d   1      30.650  18.369 -25.095  0.00  0.00    -0.265 OA
ATOM     11  C   UNL d   1      32.012  19.228 -24.705  0.00  0.00     0.006 A 
ATOM     12  C   UNL d   1      33.103  18.600 -23.636  0.00  0.00     0.019 A 
ATOM     13  C   UNL d   1      32.701  19.655 -24.504  0.00  0.00     0.000 A 
ATOM     14  C   UNL d   1      33.238  19.346 -23.977  0.00  0.00     0.002 A 
ENDROOT
BRANCH   6  15
ATOM     15  N   UNL d   1      30.164  15.453 -23.732  0.00  0.00    -0.220 NA
BRANCH  15  16
ATOM     16  C   UNL d   1      29.387  15.496 -23.476  0.00  0.00     0.084 A 
ATOM     17  C   UNL d   1      28.772  15.490 -24.013  0.00  0.00     0.019 A 
ATOM     18  C   UNL d   1      27.998  15.534 -23.741  0.00  0.00     0.002 A 
ATOM     19  C   UNL d   1      27.376  15.528 -24.275  0.00  0.00     0.000 C 
ATOM     20  C   UNL d   1      27.852  15.584 -22.930  0.00  0.00     0.000 A 
ATOM     21  C   UNL d   1      28.465  15.590 -22.396  0.00  0.00     0.002 A 
ATOM     22  C   UNL d   1      29.242  15.545 -22.668  0.00  0.00     0.019 A 
ENDBRANCH  15  16
ENDBRANCH   6  15
TORSDOF 2
ENDMDL
