MODEL 1
REMARK VINA RESULT:      -0.8      0.000      0.000
REMARK  2 active torsions:
REMARK  status: ('A' for Active; 'I' for Inactive)
REMARK    1  A    between atoms: C_18  and  N_5 
REMARK    2  A    between atoms: C_21  and  C_18 
ROOT
ATOM      1  C   UNL d   1      59.247  -1.376  29.556  0.00  0.00     0.155 A 
ATOM      2  C   UNL d   1      58.564  -1.800  29.741  0.00  0.00     0.092 A 
ATOM      3  N   UNL d   1      59.879  -1.761  29.185  0.00  0.00    -0.210 NA
ATOM      4  N   UNL d   1      59.143  -2.977  29.192  0.00  0.00    -0.258 N 
ATOM      5  N   UNL d   1      59.297  -0.575  29.739  0.00  0.00    -0.275 N 
ATOM      6  C   UNL d   1      59.827  -2.555  29.005  0.00  0.00     0.152 A 
ATOM      7  C   UNL d   1      58.511  -2.603  29.559  0.00  0.00     0.269 A 
ATOM      8  C   UNL d   1      57.979  -0.620  30.294  0.00  0.00     0.105 A 
ATOM      9  C   UNL d   1      58.673  -0.188  30.106  0.00  0.00     0.180 A 
ATOM     10  C   UNL d   1      57.930  -1.420  30.111  0.00  0.00     0.021 A 
ATOM     11  C   UNL d   1      60.451  -2.932  28.640  0.00  0.00     0.035 A 
ATOM     12  C   UNL d   1      57.353  -0.239  30.661  0.00  0.00     0.104 C 
ATOM     13  N   UNL d   1      56.724   0.139  31.028  0.00  0.00    -0.191 NA
ATOM     14  C   UNL d   1      59.086  -3.782  29.011  0.00  0.00     0.084 A 
ATOM     15  N   UNL d   1      58.557   0.592  30.355  0.00  0.00    -0.128 N 
ATOM     16  O   UNL d   1      57.827  -3.025  29.746  0.00  0.00    -0.266 OA
ATOM     17  C   UNL d   1      59.726  -4.154  28.640  0.00  0.00     0.019 A 
ATOM     18  C   UNL d   1      60.408  -3.729  28.455  0.00  0.00     0.005 A 
ATOM     19  C   UNL d   1      61.133  -2.507  28.455  0.00  0.00     0.003 C 
ENDROOT
BRANCH   5  20
ATOM     20  C   UNL d   1      59.983  -0.156  29.550  0.00  0.00     0.067 C 
ATOM     21  C   UNL d   1      60.001   0.242  28.826  0.00  0.00     0.019 C 
BRANCH  20  22
ATOM     22  C   UNL d   1      60.665  -0.097  30.026  0.00  0.00     0.018 C 
ATOM     23  C   UNL d   1      61.133   0.581  30.128  0.00  0.00     0.002 C 
ENDBRANCH  20  22
ENDBRANCH   5  20
TORSDOF 2
ENDMDL
MODEL 2
REMARK VINA RESULT:       0.3      7.477      8.473
REMARK  2 active torsions:
REMARK  status: ('A' for Active; 'I' for Inactive)
REMARK    1  A    between atoms: C_18  and  N_5 
REMARK    2  A    between atoms: C_21  and  C_18 
ROOT
ATOM      1  C   UNL d   1      58.498  -9.458  30.511  0.00  0.00     0.155 A 
ATOM      2  C   UNL d   1      57.780  -9.578  30.898  0.00  0.00     0.092 A 
ATOM      3  N   UNL d   1      59.202  -9.457  30.947  0.00  0.00    -0.210 NA
ATOM      4  N   UNL d   1      58.464  -9.695  32.138  0.00  0.00    -0.258 N 
ATOM      5  N   UNL d   1      58.513  -9.339  29.696  0.00  0.00    -0.275 N 
ATOM      6  C   UNL d   1      59.184  -9.574  31.754  0.00  0.00     0.152 A 
ATOM      7  C   UNL d   1      57.761  -9.697  31.714  0.00  0.00     0.269 A 
ATOM      8  C   UNL d   1      57.089  -9.462  29.653  0.00  0.00     0.105 A 
ATOM      9  C   UNL d   1      57.818  -9.339  29.259  0.00  0.00     0.180 A 
ATOM     10  C   UNL d   1      57.074  -9.580  30.467  0.00  0.00     0.021 A 
ATOM     11  C   UNL d   1      59.878  -9.573  32.181  0.00  0.00     0.035 A 
ATOM     12  C   UNL d   1      56.392  -9.463  29.221  0.00  0.00     0.104 C 
ATOM     13  N   UNL d   1      55.692  -9.465  28.792  0.00  0.00    -0.191 NA
ATOM     14  C   UNL d   1      58.442  -9.814  32.956  0.00  0.00     0.084 A 
ATOM     15  N   UNL d   1      57.655  -9.239  28.455  0.00  0.00    -0.128 N 
ATOM     16  O   UNL d   1      57.041  -9.818  32.098  0.00  0.00    -0.266 OA
ATOM     17  C   UNL d   1      59.153  -9.811  33.380  0.00  0.00     0.019 A 
ATOM     18  C   UNL d   1      59.871  -9.690  32.992  0.00  0.00     0.005 A 
ATOM     19  C   UNL d   1      60.597  -9.453  31.794  0.00  0.00     0.003 C 
ENDROOT
BRANCH   5  20
ATOM     20  C   UNL d   1      59.235  -9.219  29.316  0.00  0.00     0.067 C 
ATOM     21  C   UNL d   1      59.467  -8.439  29.172  0.00  0.00     0.019 C 
BRANCH  20  22
ATOM     22  C   UNL d   1      59.758  -9.817  29.060  0.00  0.00     0.018 C 
ATOM     23  C   UNL d   1      60.530  -9.702  28.775  0.00  0.00     0.002 C 
ENDBRANCH  20  22
ENDBRANCH   5  20
TORSDOF 2
ENDMDL
MODEL 3
REMARK VINA RESULT:       1.6      2.722      4.772
REMARK  2 active torsions:
REMARK  status: ('A' for Active; 'I' for Inactive)
REMARK    1  A    between atoms: C_18  and  N_5 
REMARK    2  A    between atoms: C_21  and  C_18 
ROOT
ATOM      1  C   UNL d   1      57.883   0.283  31.793  0.00  0.00     0.155 A 
ATOM      2  C   UNL d   1      58.349   0.445  32.454  0.00  0.00     0.092 A 
ATOM      3  N   UNL d   1      57.066   0.184  31.883  0.00  0.00    -0.210 NA
ATOM      4  N   UNL d   1      57.194   0.407  33.281  0.00  0.00    -0.258 N 
ATOM      5  N   UNL d   1      58.230   0.222  31.049  0.00  0.00    -0.275 N 
ATOM      6  C   UNL d   1      56.725   0.245  32.622  0.00  0.00     0.152 A 
ATOM      7  C   UNL d   1      58.004   0.508  33.201  0.00  0.00     0.269 A 
ATOM      8  C   UNL d   1      59.513   0.484  31.626  0.00  0.00     0.105 A 
ATOM      9  C   UNL d   1      59.040   0.320  30.954  0.00  0.00     0.180 A 
ATOM     10  C   UNL d   1      59.165   0.545  32.369  0.00  0.00     0.021 A 
ATOM     11  C   UNL d   1      55.921   0.147  32.708  0.00  0.00     0.035 A 
ATOM     12  C   UNL d   1      60.321   0.583  31.537  0.00  0.00     0.104 C 
ATOM     13  N   UNL d   1      61.131   0.682  31.451  0.00  0.00    -0.191 NA
ATOM     14  C   UNL d   1      56.852   0.471  34.031  0.00  0.00     0.084 A 
ATOM     15  N   UNL d   1      59.541   0.292  30.297  0.00  0.00    -0.128 N 
ATOM     16  O   UNL d   1      58.473   0.670  33.861  0.00  0.00    -0.266 OA
ATOM     17  C   UNL d   1      56.033   0.369  34.107  0.00  0.00     0.019 A 
ATOM     18  C   UNL d   1      55.568   0.207  33.445  0.00  0.00     0.005 A 
ATOM     19  C   UNL d   1      55.455  -0.015  32.047  0.00  0.00     0.003 C 
ENDROOT
BRANCH   5  20
ATOM     20  C   UNL d   1      57.758   0.060  30.392  0.00  0.00     0.067 C 
ATOM     21  C   UNL d   1      57.661  -0.733  30.177  0.00  0.00     0.019 C 
BRANCH  20  22
ATOM     22  C   UNL d   1      57.367   0.625  29.920  0.00  0.00     0.018 C 
ATOM     23  C   UNL d   1      57.404   0.680  29.092  0.00  0.00     0.002 C 
ENDBRANCH  20  22
ENDBRANCH   5  20
TORSDOF 2
ENDMDL
