MODEL 1
REMARK VINA RESULT:      -5.3      0.000      0.000
REMARK  4 active torsions:
REMARK  status: ('A' for Active; 'I' for Inactive)
REMARK    1  A    between atoms: C_3  and  C_1 
REMARK    2  A    between atoms: C_7  and  C_3 
REMARK    3  A    between atoms: N_9  and  C_4 
REMARK    4  A    between atoms: C_8  and  C_7 
ROOT
ATOM      1  C   UNL d   1      57.893   0.335  31.143  0.00  0.00     0.106 C 
ATOM      2  C   UNL d   1      58.628   0.507  31.403  0.00  0.00     0.104 C 
ATOM      3  N   UNL d   1      59.382   0.682  31.687  0.00  0.00    -0.191 NA
ENDROOT
BRANCH   1   4
ATOM      4  C   UNL d   1      57.281   0.137  31.660  0.00  0.00     0.172 A 
ATOM      5  N   UNL d   1      57.079  -0.589  31.934  0.00  0.00    -0.225 NA
ATOM      6  C   UNL d   1      56.434  -0.521  32.436  0.00  0.00     0.101 A 
ATOM      7  C   UNL d   1      55.994  -1.075  32.871  0.00  0.00     0.021 A 
ATOM      8  C   UNL d   1      56.241   0.285  32.464  0.00  0.00     0.101 A 
ATOM      9  C   UNL d   1      55.359  -0.838  33.339  0.00  0.00     0.002 A 
ATOM     10  C   UNL d   1      55.170  -0.014  33.362  0.00  0.00     0.002 A 
ATOM     11  C   UNL d   1      55.609   0.538  32.927  0.00  0.00     0.021 A 
ATOM     12  N   UNL d   1      56.769   0.682  31.983  0.00  0.00    -0.225 NA
ENDBRANCH   1   4
BRANCH   1  13
ATOM     13  C   UNL d   1      57.729   0.353  30.330  0.00  0.00     0.038 C 
BRANCH  13  14
ATOM     14  C   UNL d   1      58.145  -0.137  29.804  0.00  0.00     0.103 A 
ATOM     15  O   UNL d   1      58.492  -0.880  29.893  0.00  0.00    -0.290 OA
ATOM     16  C   UNL d   1      58.824  -1.083  29.177  0.00  0.00     0.168 A 
ATOM     17  C   UNL d   1      58.692  -0.486  28.649  0.00  0.00     0.045 A 
ATOM     18  C   UNL d   1      58.270   0.109  29.028  0.00  0.00     0.028 A 
BRANCH  16  19
ATOM     19  N   UNL d   1      59.237  -1.767  28.967  0.00  0.00    -0.281 N 
ATOM     20  C   UNL d   1      58.831  -2.438  28.755  0.00  0.00     0.109 A 
ATOM     21  C   UNL d   1      59.244  -3.122  28.545  0.00  0.00     0.142 A 
ATOM     22  O   UNL d   1      60.063  -3.111  28.556  0.00  0.00    -0.300 OA
ATOM     23  C   UNL d   1      60.477  -2.439  28.769  0.00  0.00     0.142 A 
ATOM     24  C   UNL d   1      60.058  -1.759  28.977  0.00  0.00     0.109 A 
ENDBRANCH  16  19
ENDBRANCH  13  14
ENDBRANCH   1  13
TORSDOF 4
ENDMDL
MODEL 2
REMARK VINA RESULT:      -3.7      1.513      2.061
REMARK  4 active torsions:
REMARK  status: ('A' for Active; 'I' for Inactive)
REMARK    1  A    between atoms: C_3  and  C_1 
REMARK    2  A    between atoms: C_7  and  C_3 
REMARK    3  A    between atoms: N_9  and  C_4 
REMARK    4  A    between atoms: C_8  and  C_7 
ROOT
ATOM      1  C   UNL d   1      56.864  -0.036  31.673  0.00  0.00     0.106 C 
ATOM      2  C   UNL d   1      56.994  -0.783  31.424  0.00  0.00     0.104 C 
ATOM      3  N   UNL d   1      57.121  -1.561  31.181  0.00  0.00    -0.191 NA
ENDROOT
BRANCH   1   4
ATOM      4  C   UNL d   1      56.534   0.128  32.411  0.00  0.00     0.172 A 
ATOM      5  N   UNL d   1      56.911   0.252  33.107  0.00  0.00    -0.225 NA
ATOM      6  C   UNL d   1      56.359   0.396  33.696  0.00  0.00     0.101 A 
ATOM      7  C   UNL d   1      56.424   0.558  34.508  0.00  0.00     0.021 A 
ATOM      8  C   UNL d   1      55.614   0.357  33.334  0.00  0.00     0.101 A 
ATOM      9  C   UNL d   1      55.754   0.682  34.970  0.00  0.00     0.002 A 
ATOM     10  C   UNL d   1      54.999   0.640  34.593  0.00  0.00     0.002 A 
ATOM     11  C   UNL d   1      54.934   0.478  33.782  0.00  0.00     0.021 A 
ATOM     12  N   UNL d   1      55.733   0.191  32.542  0.00  0.00    -0.225 NA
ENDBRANCH   1   4
BRANCH   1  13
ATOM     13  C   UNL d   1      57.066   0.602  31.182  0.00  0.00     0.038 C 
BRANCH  13  14
ATOM     14  C   UNL d   1      57.681   0.532  30.629  0.00  0.00     0.103 A 
ATOM     15  O   UNL d   1      58.483   0.356  30.709  0.00  0.00    -0.290 OA
ATOM     16  C   UNL d   1      58.811   0.365  29.963  0.00  0.00     0.168 A 
ATOM     17  C   UNL d   1      58.234   0.541  29.425  0.00  0.00     0.045 A 
ATOM     18  C   UNL d   1      57.526   0.647  29.828  0.00  0.00     0.028 A 
BRANCH  16  19
ATOM     19  N   UNL d   1      59.593   0.226  29.734  0.00  0.00    -0.281 N 
ATOM     20  C   UNL d   1      60.199   0.640  30.082  0.00  0.00     0.109 A 
ATOM     21  C   UNL d   1      60.980   0.501  29.853  0.00  0.00     0.142 A 
ATOM     22  O   UNL d   1      61.131  -0.058  29.273  0.00  0.00    -0.300 OA
ATOM     23  C   UNL d   1      60.525  -0.477  28.918  0.00  0.00     0.142 A 
ATOM     24  C   UNL d   1      59.747  -0.333  29.152  0.00  0.00     0.109 A 
ENDBRANCH  16  19
ENDBRANCH  13  14
ENDBRANCH   1  13
TORSDOF 4
ENDMDL
