MODEL 1
REMARK VINA RESULT:      -7.6      0.000      0.000
REMARK  10 active torsions:
REMARK  status: ('A' for Active; 'I' for Inactive)
REMARK    1  A    between atoms: N_2  and  S_1 
REMARK    2  A    between atoms: C_12  and  S_1 
REMARK    3  A    between atoms: C_4  and  N_2 
REMARK    4  A    between atoms: O_22  and  C_6 
REMARK    5  A    between atoms: C_7  and  N_15 
REMARK    6  A    between atoms: N_8  and  C_7 
REMARK       I    between atoms: C_10  and  N_8 
REMARK    7  A    between atoms: O_23  and  C_9 
REMARK    8  A    between atoms: C_20  and  C_10 
REMARK    9  A    between atoms: N_15  and  C_21 
REMARK   10  A    between atoms: C_26  and  C_20 
ROOT
ATOM      1  C   UNL d   1      51.207  34.238  52.569  0.00  0.00     0.105 A 
ATOM      2  C   UNL d   1      50.958  34.078  51.814  0.00  0.00     0.015 A 
ATOM      3  C   UNL d   1      50.663  34.434  53.144  0.00  0.00     0.015 A 
ATOM      4  C   UNL d   1      49.611  34.309  52.205  0.00  0.00     0.084 A 
ATOM      5  C   UNL d   1      50.170  34.106  51.606  0.00  0.00     0.020 A 
ATOM      6  C   UNL d   1      49.872  34.467  52.957  0.00  0.00     0.020 A 
ENDROOT
BRANCH   1   7
ATOM      7  S   UNL d   1      52.029  34.206  52.775  0.00  0.00     0.287 S 
ATOM      8  O   UNL d   1      52.203  33.968  51.991  0.00  0.00    -0.198 OA
ATOM      9  O   UNL d   1      51.847  34.442  53.548  0.00  0.00    -0.198 OA
BRANCH   7  10
ATOM     10  N   UNL d   1      52.843  34.170  52.963  0.00  0.00    -0.139 NA
BRANCH  10  11
ATOM     11  C   UNL d   1      53.163  33.503  53.358  0.00  0.00     0.182 A 
ATOM     12  N   UNL d   1      53.162  32.795  53.000  0.00  0.00    -0.185 NA
ATOM     13  C   UNL d   1      53.473  32.118  53.368  0.00  0.00     0.274 A 
ATOM     14  N   UNL d   1      53.786  32.187  54.117  0.00  0.00    -0.181 NA
ATOM     15  C   UNL d   1      53.801  32.894  54.505  0.00  0.00     0.185 A 
ATOM     16  C   UNL d   1      53.470  33.597  54.103  0.00  0.00     0.084 A 
BRANCH  13  17
ATOM     17  O   UNL d   1      53.474  31.372  52.995  0.00  0.00    -0.297 OA
ATOM     18  C   UNL d   1      52.950  30.773  53.230  0.00  0.00     0.185 C 
ENDBRANCH  13  17
BRANCH  15  19
ATOM     19  O   UNL d   1      54.127  32.933  55.268  0.00  0.00    -0.312 OA
ATOM     20  C   UNL d   1      54.778  33.426  55.402  0.00  0.00     0.183 C 
ENDBRANCH  15  19
ENDBRANCH  10  11
ENDBRANCH   7  10
ENDBRANCH   1   7
BRANCH   4  21
ATOM     21  N   UNL d   1      48.794  34.349  52.034  0.00  0.00    -0.217 NA
BRANCH  21  22
ATOM     22  C   UNL d   1      48.535  34.916  51.493  0.00  0.00     0.223 C 
ATOM     23  S   UNL d   1      48.627  34.805  50.676  0.00  0.00    -0.037 SA
BRANCH  22  24
ATOM     24  N   UNL d   1      48.178  35.605  51.772  0.00  0.00    -0.179 NA
ATOM     25  C   UNL d   1      47.360  35.723  51.687  0.00  0.00     0.281 C 
ATOM     26  O   UNL d   1      46.900  35.142  51.318  0.00  0.00    -0.265 OA
BRANCH  25  27
ATOM     27  C   UNL d   1      47.006  36.414  51.967  0.00  0.00     0.063 C 
BRANCH  27  28
ATOM     28  C   UNL d   1      46.276  36.391  52.353  0.00  0.00     0.005 C 
ATOM     29  C   UNL d   1      46.220  36.360  53.197  0.00  0.00     0.000 C 
ATOM     30  C   UNL d   1      45.587  36.399  51.905  0.00  0.00     0.000 C 
ENDBRANCH  27  28
ENDBRANCH  25  27
ENDBRANCH  22  24
ENDBRANCH  21  22
ENDBRANCH   4  21
TORSDOF 10
ENDMDL
MODEL 2
REMARK VINA RESULT:      -6.9      1.385      6.570
REMARK  10 active torsions:
REMARK  status: ('A' for Active; 'I' for Inactive)
REMARK    1  A    between atoms: N_2  and  S_1 
REMARK    2  A    between atoms: C_12  and  S_1 
REMARK    3  A    between atoms: C_4  and  N_2 
REMARK    4  A    between atoms: O_22  and  C_6 
REMARK    5  A    between atoms: C_7  and  N_15 
REMARK    6  A    between atoms: N_8  and  C_7 
REMARK       I    between atoms: C_10  and  N_8 
REMARK    7  A    between atoms: O_23  and  C_9 
REMARK    8  A    between atoms: C_20  and  C_10 
REMARK    9  A    between atoms: N_15  and  C_21 
REMARK   10  A    between atoms: C_26  and  C_20 
ROOT
ATOM      1  C   UNL d   1      48.937  35.195  52.411  0.00  0.00     0.105 A 
ATOM      2  C   UNL d   1      49.262  35.231  53.152  0.00  0.00     0.015 A 
ATOM      3  C   UNL d   1      49.241  34.677  51.859  0.00  0.00     0.015 A 
ATOM      4  C   UNL d   1      50.201  34.226  52.795  0.00  0.00     0.084 A 
ATOM      5  C   UNL d   1      49.891  34.760  53.370  0.00  0.00     0.020 A 
ATOM      6  C   UNL d   1      49.868  34.198  52.056  0.00  0.00     0.020 A 
ENDROOT
BRANCH   1   7
ATOM      7  S   UNL d   1      48.283  35.688  52.194  0.00  0.00     0.287 S 
ATOM      8  O   UNL d   1      48.384  36.113  52.909  0.00  0.00    -0.198 OA
ATOM      9  O   UNL d   1      48.191  35.263  51.489  0.00  0.00    -0.198 OA
BRANCH   7  10
ATOM     10  N   UNL d   1      47.640  36.184  51.995  0.00  0.00    -0.139 NA
BRANCH  10  11
ATOM     11  C   UNL d   1      46.853  35.960  52.176  0.00  0.00     0.182 A 
ATOM     12  N   UNL d   1      46.413  35.587  51.630  0.00  0.00    -0.185 NA
ATOM     13  C   UNL d   1      45.630  35.353  51.783  0.00  0.00     0.274 A 
ATOM     14  N   UNL d   1      45.309  35.512  52.513  0.00  0.00    -0.181 NA
ATOM     15  C   UNL d   1      45.731  35.889  53.088  0.00  0.00     0.185 A 
ATOM     16  C   UNL d   1      46.554  36.129  52.911  0.00  0.00     0.084 A 
BRANCH  13  17
ATOM     17  O   UNL d   1      45.167  34.962  51.211  0.00  0.00    -0.297 OA
ATOM     18  C   UNL d   1      44.660  35.383  50.707  0.00  0.00     0.185 C 
ENDBRANCH  13  17
BRANCH  15  19
ATOM     19  O   UNL d   1      45.376  36.038  53.824  0.00  0.00    -0.312 OA
ATOM     20  C   UNL d   1      45.330  35.427  54.379  0.00  0.00     0.183 C 
ENDBRANCH  15  19
ENDBRANCH  10  11
ENDBRANCH   7  10
ENDBRANCH   1   7
BRANCH   4  21
ATOM     21  N   UNL d   1      50.846  33.726  52.978  0.00  0.00    -0.217 NA
BRANCH  21  22
ATOM     22  C   UNL d   1      51.604  34.051  52.983  0.00  0.00     0.223 C 
ATOM     23  S   UNL d   1      51.953  34.340  52.288  0.00  0.00    -0.037 SA
BRANCH  22  24
ATOM     24  N   UNL d   1      52.021  34.088  53.694  0.00  0.00    -0.179 NA
ATOM     25  C   UNL d   1      52.723  33.654  53.796  0.00  0.00     0.281 C 
ATOM     26  O   UNL d   1      53.004  33.180  53.178  0.00  0.00    -0.265 OA
BRANCH  25  27
ATOM     27  C   UNL d   1      53.138  33.693  54.508  0.00  0.00     0.063 C 
BRANCH  27  28
ATOM     28  C   UNL d   1      53.813  33.233  54.633  0.00  0.00     0.005 C 
ATOM     29  C   UNL d   1      53.770  32.392  54.705  0.00  0.00     0.000 C 
ATOM     30  C   UNL d   1      54.544  33.605  54.687  0.00  0.00     0.000 C 
ENDBRANCH  27  28
ENDBRANCH  25  27
ENDBRANCH  22  24
ENDBRANCH  21  22
ENDBRANCH   4  21
TORSDOF 10
ENDMDL
MODEL 3
REMARK VINA RESULT:      -5.4      1.425      6.290
REMARK  10 active torsions:
REMARK  status: ('A' for Active; 'I' for Inactive)
REMARK    1  A    between atoms: N_2  and  S_1 
REMARK    2  A    between atoms: C_12  and  S_1 
REMARK    3  A    between atoms: C_4  and  N_2 
REMARK    4  A    between atoms: O_22  and  C_6 
REMARK    5  A    between atoms: C_7  and  N_15 
REMARK    6  A    between atoms: N_8  and  C_7 
REMARK       I    between atoms: C_10  and  N_8 
REMARK    7  A    between atoms: O_23  and  C_9 
REMARK    8  A    between atoms: C_20  and  C_10 
REMARK    9  A    between atoms: N_15  and  C_21 
REMARK   10  A    between atoms: C_26  and  C_20 
ROOT
ATOM      1  C   UNL d   1      50.247  34.336  52.499  0.00  0.00     0.105 A 
ATOM      2  C   UNL d   1      50.772  34.270  51.886  0.00  0.00     0.015 A 
ATOM      3  C   UNL d   1      50.512  34.286  53.269  0.00  0.00     0.015 A 
ATOM      4  C   UNL d   1      51.838  34.102  52.811  0.00  0.00     0.084 A 
ATOM      5  C   UNL d   1      51.570  34.153  52.013  0.00  0.00     0.020 A 
ATOM      6  C   UNL d   1      51.303  34.170  53.417  0.00  0.00     0.020 A 
ENDROOT
BRANCH   1   7
ATOM      7  S   UNL d   1      49.420  34.457  52.357  0.00  0.00     0.287 S 
ATOM      8  O   UNL d   1      49.263  34.228  53.147  0.00  0.00    -0.198 OA
ATOM      9  O   UNL d   1      49.584  34.683  51.577  0.00  0.00    -0.198 OA
BRANCH   7  10
ATOM     10  N   UNL d   1      48.602  34.572  52.232  0.00  0.00    -0.139 NA
BRANCH  10  11
ATOM     11  C   UNL d   1      48.226  35.283  52.470  0.00  0.00     0.182 A 
ATOM     12  N   UNL d   1      47.703  35.634  51.988  0.00  0.00    -0.185 NA
ATOM     13  C   UNL d   1      47.316  36.339  52.198  0.00  0.00     0.274 A 
ATOM     14  N   UNL d   1      47.482  36.676  52.920  0.00  0.00    -0.181 NA
ATOM     15  C   UNL d   1      48.009  36.342  53.432  0.00  0.00     0.185 A 
ATOM     16  C   UNL d   1      48.407  35.600  53.195  0.00  0.00     0.084 A 
BRANCH  13  17
ATOM     17  O   UNL d   1      46.766  36.709  51.693  0.00  0.00    -0.297 OA
ATOM     18  C   UNL d   1      45.955  36.545  51.747  0.00  0.00     0.185 C 
ENDBRANCH  13  17
BRANCH  15  19
ATOM     19  O   UNL d   1      48.157  36.709  54.162  0.00  0.00    -0.312 OA
ATOM     20  C   UNL d   1      47.593  36.648  54.765  0.00  0.00     0.183 C 
ENDBRANCH  15  19
ENDBRANCH  10  11
ENDBRANCH   7  10
ENDBRANCH   1   7
BRANCH   4  21
ATOM     21  N   UNL d   1      52.647  33.983  52.984  0.00  0.00    -0.217 NA
BRANCH  21  22
ATOM     22  C   UNL d   1      52.878  33.255  53.294  0.00  0.00     0.223 C 
ATOM     23  S   UNL d   1      52.787  32.554  52.860  0.00  0.00    -0.037 SA
BRANCH  22  24
ATOM     24  N   UNL d   1      53.205  33.224  54.051  0.00  0.00    -0.179 NA
ATOM     25  C   UNL d   1      54.001  33.012  54.161  0.00  0.00     0.281 C 
ATOM     26  O   UNL d   1      54.469  32.829  53.503  0.00  0.00    -0.265 OA
BRANCH  25  27
ATOM     27  C   UNL d   1      54.325  32.982  54.919  0.00  0.00     0.063 C 
BRANCH  27  28
ATOM     28  C   UNL d   1      54.875  33.545  55.168  0.00  0.00     0.005 C 
ATOM     29  C   UNL d   1      55.577  33.708  54.724  0.00  0.00     0.000 C 
ATOM     30  C   UNL d   1      54.737  33.957  55.866  0.00  0.00     0.000 C 
ENDBRANCH  27  28
ENDBRANCH  25  27
ENDBRANCH  22  24
ENDBRANCH  21  22
ENDBRANCH   4  21
TORSDOF 10
ENDMDL
