MODEL 1
REMARK VINA RESULT:      -6.7      0.000      0.000
REMARK  3 active torsions:
REMARK  status: ('A' for Active; 'I' for Inactive)
REMARK    1  A    between atoms: N_3  and  C_1 
REMARK       I    between atoms: C_5  and  N_3 
REMARK    2  A    between atoms: C_10  and  C_4 
REMARK       I    between atoms: N_8  and  C_5 
REMARK    3  A    between atoms: C_11  and  N_8 
ROOT
ATOM      1  C   UNL d   1     -41.548-122.330 -52.156  0.00  0.00     0.199 A 
ATOM      2  N   UNL d   1     -41.890-122.793 -51.565  0.00  0.00    -0.221 NA
ATOM      3  C   UNL d   1     -41.679-122.457 -50.809  0.00  0.00     0.090 A 
ATOM      4  S   UNL d   1     -41.123-121.708 -51.820  0.00  0.00    -0.046 SA
ATOM      5  C   UNL d   1     -41.199-121.779 -50.968  0.00  0.00     0.058 A 
ENDROOT
BRANCH   1   6
ATOM      6  N   UNL d   1     -41.622-122.473 -52.987  0.00  0.00    -0.166 NA
ATOM      7  C   UNL d   1     -41.402-123.229 -53.286  0.00  0.00     0.370 C 
ATOM      8  N   UNL d   1     -41.476-123.371 -54.116  0.00  0.00    -0.191 NA
ATOM      9  O   UNL d   1     -41.125-123.817 -52.800  0.00  0.00    -0.242 OA
BRANCH   8  10
ATOM     10  C   UNL d   1     -41.756-122.776 -54.602  0.00  0.00     0.086 A 
ATOM     11  C   UNL d   1     -42.554-122.611 -54.689  0.00  0.00     0.019 A 
ATOM     12  C   UNL d   1     -42.820-122.004 -55.187  0.00  0.00     0.002 A 
ATOM     13  C   UNL d   1     -42.269-121.556 -55.605  0.00  0.00     0.000 A 
ATOM     14  C   UNL d   1     -41.467-121.710 -55.529  0.00  0.00     0.002 A 
ATOM     15  C   UNL d   1     -41.225-122.320 -55.026  0.00  0.00     0.019 A 
ENDBRANCH   8  10
ENDBRANCH   1   6
BRANCH   3  16
ATOM     16  C   UNL d   1     -41.905-122.749 -50.070  0.00  0.00     0.018 A 
ATOM     17  C   UNL d   1     -41.344-123.107 -49.555  0.00  0.00     0.002 A 
ATOM     18  C   UNL d   1     -41.563-123.392 -48.834  0.00  0.00     0.000 A 
ATOM     19  C   UNL d   1     -42.368-123.334 -48.584  0.00  0.00     0.000 A 
ATOM     20  C   UNL d   1     -42.918-122.982 -49.091  0.00  0.00     0.000 A 
ATOM     21  C   UNL d   1     -42.682-122.694 -49.826  0.00  0.00     0.002 A 
ENDBRANCH   3  16
TORSDOF 3
ENDMDL
MODEL 2
REMARK VINA RESULT:      -5.3      1.413      5.067
REMARK  3 active torsions:
REMARK  status: ('A' for Active; 'I' for Inactive)
REMARK    1  A    between atoms: N_3  and  C_1 
REMARK       I    between atoms: C_5  and  N_3 
REMARK    2  A    between atoms: C_10  and  C_4 
REMARK       I    between atoms: N_8  and  C_5 
REMARK    3  A    between atoms: C_11  and  N_8 
ROOT
ATOM      1  C   UNL d   1     -41.755-122.494 -50.576  0.00  0.00     0.199 A 
ATOM      2  N   UNL d   1     -41.763-122.971 -51.250  0.00  0.00    -0.221 NA
ATOM      3  C   UNL d   1     -41.499-122.499 -51.912  0.00  0.00     0.090 A 
ATOM      4  S   UNL d   1     -41.498-121.733 -50.768  0.00  0.00    -0.046 SA
ATOM      5  C   UNL d   1     -41.334-121.726 -51.610  0.00  0.00     0.058 A 
ENDROOT
BRANCH   1   6
ATOM      6  N   UNL d   1     -41.978-122.748 -49.801  0.00  0.00    -0.166 NA
ATOM      7  C   UNL d   1     -42.779-122.971 -49.666  0.00  0.00     0.370 C 
ATOM      8  N   UNL d   1     -43.002-123.225 -48.891  0.00  0.00    -0.191 NA
ATOM      9  O   UNL d   1     -43.335-122.948 -50.256  0.00  0.00    -0.242 OA
BRANCH   8  10
ATOM     10  C   UNL d   1     -42.439-123.248 -48.298  0.00  0.00     0.086 A 
ATOM     11  C   UNL d   1     -41.842-123.809 -48.272  0.00  0.00     0.019 A 
ATOM     12  C   UNL d   1     -41.280-123.817 -47.664  0.00  0.00     0.002 A 
ATOM     13  C   UNL d   1     -41.321-123.248 -47.069  0.00  0.00     0.000 A 
ATOM     14  C   UNL d   1     -41.913-122.680 -47.081  0.00  0.00     0.002 A 
ATOM     15  C   UNL d   1     -42.463-122.692 -47.699  0.00  0.00     0.019 A 
ENDBRANCH   8  10
ENDBRANCH   1   6
BRANCH   3  16
ATOM     16  C   UNL d   1     -41.424-122.759 -52.691  0.00  0.00     0.018 A 
ATOM     17  C   UNL d   1     -41.234-123.561 -52.863  0.00  0.00     0.002 A 
ATOM     18  C   UNL d   1     -41.160-123.817 -53.624  0.00  0.00     0.000 A 
ATOM     19  C   UNL d   1     -41.275-123.279 -54.264  0.00  0.00     0.000 A 
ATOM     20  C   UNL d   1     -41.462-122.491 -54.093  0.00  0.00     0.000 A 
ATOM     21  C   UNL d   1     -41.535-122.241 -53.312  0.00  0.00     0.002 A 
ENDBRANCH   3  16
TORSDOF 3
ENDMDL
MODEL 3
REMARK VINA RESULT:      -4.5      1.047      1.471
REMARK  3 active torsions:
REMARK  status: ('A' for Active; 'I' for Inactive)
REMARK    1  A    between atoms: N_3  and  C_1 
REMARK       I    between atoms: C_5  and  N_3 
REMARK    2  A    between atoms: C_10  and  C_4 
REMARK       I    between atoms: N_8  and  C_5 
REMARK    3  A    between atoms: C_11  and  N_8 
ROOT
ATOM      1  C   UNL d   1     -41.605-122.399 -51.557  0.00  0.00     0.199 A 
ATOM      2  N   UNL d   1     -42.103-122.878 -51.105  0.00  0.00    -0.221 NA
ATOM      3  C   UNL d   1     -41.938-122.728 -50.280  0.00  0.00     0.090 A 
ATOM      4  S   UNL d   1     -41.124-121.943 -51.066  0.00  0.00    -0.046 SA
ATOM      5  C   UNL d   1     -41.327-122.143 -50.256  0.00  0.00     0.058 A 
ENDROOT
BRANCH   1   6
ATOM      6  N   UNL d   1     -41.591-122.379 -52.403  0.00  0.00    -0.166 NA
ATOM      7  C   UNL d   1     -41.344-121.669 -52.784  0.00  0.00     0.370 C 
ATOM      8  N   UNL d   1     -41.330-121.649 -53.628  0.00  0.00    -0.191 NA
ATOM      9  O   UNL d   1     -41.123-121.012 -52.362  0.00  0.00    -0.242 OA
BRANCH   8  10
ATOM     10  C   UNL d   1     -41.553-122.313 -54.050  0.00  0.00     0.086 A 
ATOM     11  C   UNL d   1     -41.123-123.010 -54.046  0.00  0.00     0.019 A 
ATOM     12  C   UNL d   1     -41.364-123.673 -54.479  0.00  0.00     0.002 A 
ATOM     13  C   UNL d   1     -42.054-123.631 -54.927  0.00  0.00     0.000 A 
ATOM     14  C   UNL d   1     -42.497-122.941 -54.942  0.00  0.00     0.002 A 
ATOM     15  C   UNL d   1     -42.236-122.291 -54.501  0.00  0.00     0.019 A 
ENDBRANCH   8  10
ENDBRANCH   1   6
BRANCH   3  16
ATOM     16  C   UNL d   1     -42.312-123.089 -49.639  0.00  0.00     0.018 A 
ATOM     17  C   UNL d   1     -43.100-123.376 -49.703  0.00  0.00     0.002 A 
ATOM     18  C   UNL d   1     -43.467-123.730 -49.079  0.00  0.00     0.000 A 
ATOM     19  C   UNL d   1     -43.059-123.817 -48.344  0.00  0.00     0.000 A 
ATOM     20  C   UNL d   1     -42.284-123.535 -48.283  0.00  0.00     0.000 A 
ATOM     21  C   UNL d   1     -41.921-123.175 -48.928  0.00  0.00     0.002 A 
ENDBRANCH   3  16
TORSDOF 3
ENDMDL
