MODEL 1
REMARK VINA RESULT:      -1.0      0.000      0.000
REMARK  5 active torsions:
REMARK  status: ('A' for Active; 'I' for Inactive)
REMARK    1  A    between atoms: N_3  and  C_1 
REMARK    2  A    between atoms: C_12  and  N_2 
REMARK       I    between atoms: C_6  and  N_3 
REMARK    3  A    between atoms: C_8  and  C_6 
REMARK    4  A    between atoms: C_16  and  C_12 
REMARK    5  A    between atoms: O_22  and  C_16 
ROOT
ATOM      1  C   UNL d   1     -41.897-122.822 -50.128  0.00  0.00     0.183 A 
ATOM      2  N   UNL d   1     -42.536-122.734 -49.620  0.00  0.00    -0.280 N 
ATOM      3  S   UNL d   1     -41.264-123.124 -49.692  0.00  0.00    -0.048 SA
ATOM      4  C   UNL d   1     -41.516-123.222 -48.909  0.00  0.00     0.051 A 
ATOM      5  C   UNL d   1     -42.306-122.980 -48.864  0.00  0.00     0.072 A 
ATOM      6  C   UNL d   1     -41.130-123.498 -48.234  0.00  0.00     0.038 A 
ATOM      7  C   UNL d   1     -42.708-123.015 -48.145  0.00  0.00     0.020 A 
ATOM      8  C   UNL d   1     -41.533-123.533 -47.515  0.00  0.00     0.141 A 
ATOM      9  C   UNL d   1     -42.322-123.291 -47.470  0.00  0.00     0.031 A 
ATOM     10  F   UNL d   1     -41.146-123.808 -46.849  0.00  0.00    -0.204 F 
ENDROOT
BRANCH   1  11
ATOM     11  N   UNL d   1     -41.895-122.640 -50.935  0.00  0.00    -0.183 NA
ATOM     12  C   UNL d   1     -41.505-123.139 -51.464  0.00  0.00     0.287 C 
ATOM     13  O   UNL d   1     -41.122-123.814 -51.185  0.00  0.00    -0.265 OA
BRANCH  12  14
ATOM     14  C   UNL d   1     -41.499-122.965 -52.259  0.00  0.00     0.088 A 
ATOM     15  S   UNL d   1     -41.478-123.513 -52.883  0.00  0.00    -0.071 SA
ATOM     16  C   UNL d   1     -41.479-123.100 -53.584  0.00  0.00     0.087 A 
ATOM     17 CL   UNL d   1     -41.462-123.408 -54.343  0.00  0.00    -0.075 Cl
ATOM     18  C   UNL d   1     -41.500-122.306 -53.402  0.00  0.00     0.019 A 
ATOM     19  C   UNL d   1     -41.513-122.227 -52.589  0.00  0.00     0.013 A 
ENDBRANCH  12  14
ENDBRANCH   1  11
BRANCH   2  20
ATOM     20  C   UNL d   1     -43.315-122.521 -49.462  0.00  0.00     0.151 C 
BRANCH  20  21
ATOM     21  C   UNL d   1     -43.892-122.650 -50.025  0.00  0.00     0.314 C 
ATOM     22  O   UNL d   1     -44.128-123.416 -50.191  0.00  0.00    -0.257 OA
BRANCH  21  23
ATOM     23  O   UNL d   1     -44.230-122.025 -50.417  0.00  0.00    -0.295 OA
ATOM     24  C   UNL d   1     -45.013-122.055 -50.639  0.00  0.00     0.185 C 
ENDBRANCH  21  23
ENDBRANCH  20  21
ENDBRANCH   2  20
TORSDOF 5
ENDMDL
MODEL 2
REMARK VINA RESULT:       0.5      1.978      2.708
REMARK  5 active torsions:
REMARK  status: ('A' for Active; 'I' for Inactive)
REMARK    1  A    between atoms: N_3  and  C_1 
REMARK    2  A    between atoms: C_12  and  N_2 
REMARK       I    between atoms: C_6  and  N_3 
REMARK    3  A    between atoms: C_8  and  C_6 
REMARK    4  A    between atoms: C_16  and  C_12 
REMARK    5  A    between atoms: O_22  and  C_16 
ROOT
ATOM      1  C   UNL d   1     -41.662-122.251 -52.081  0.00  0.00     0.183 A 
ATOM      2  N   UNL d   1     -41.394-121.746 -51.491  0.00  0.00    -0.280 N 
ATOM      3  S   UNL d   1     -41.812-122.986 -51.738  0.00  0.00    -0.048 SA
ATOM      4  C   UNL d   1     -41.634-122.934 -50.930  0.00  0.00     0.051 A 
ATOM      5  C   UNL d   1     -41.375-122.164 -50.777  0.00  0.00     0.072 A 
ATOM      6  C   UNL d   1     -41.675-123.485 -50.318  0.00  0.00     0.038 A 
ATOM      7  C   UNL d   1     -41.156-121.946 -50.012  0.00  0.00     0.020 A 
ATOM      8  C   UNL d   1     -41.457-123.267 -49.553  0.00  0.00     0.141 A 
ATOM      9  C   UNL d   1     -41.197-122.497 -49.400  0.00  0.00     0.031 A 
ATOM     10  F   UNL d   1     -41.499-123.817 -48.948  0.00  0.00    -0.204 F 
ENDROOT
BRANCH   1  11
ATOM     11  N   UNL d   1     -41.763-122.051 -52.877  0.00  0.00    -0.183 NA
ATOM     12  C   UNL d   1     -41.762-122.645 -53.449  0.00  0.00     0.287 C 
ATOM     13  O   UNL d   1     -41.662-123.432 -53.223  0.00  0.00    -0.265 OA
BRANCH  12  14
ATOM     14  C   UNL d   1     -41.860-122.455 -54.234  0.00  0.00     0.088 A 
ATOM     15  S   UNL d   1     -42.570-122.230 -54.602  0.00  0.00    -0.071 SA
ATOM     16  C   UNL d   1     -42.416-122.092 -55.389  0.00  0.00     0.087 A 
ATOM     17 CL   UNL d   1     -42.948-121.858 -55.967  0.00  0.00    -0.075 Cl
ATOM     18  C   UNL d   1     -41.622-122.229 -55.512  0.00  0.00     0.019 A 
ATOM     19  C   UNL d   1     -41.285-122.451 -54.802  0.00  0.00     0.013 A 
ENDBRANCH  12  14
ENDBRANCH   1  11
BRANCH   2  20
ATOM     20  C   UNL d   1     -41.124-121.015 -51.228  0.00  0.00     0.151 C 
BRANCH  20  21
ATOM     21  C   UNL d   1     -41.490-120.331 -51.485  0.00  0.00     0.314 C 
ATOM     22  O   UNL d   1     -42.230-120.137 -51.195  0.00  0.00    -0.257 OA
BRANCH  21  23
ATOM     23  O   UNL d   1     -41.123-119.847 -52.024  0.00  0.00    -0.295 OA
ATOM     24  C   UNL d   1     -41.217-119.040 -51.979  0.00  0.00     0.185 C 
ENDBRANCH  21  23
ENDBRANCH  20  21
ENDBRANCH   2  20
TORSDOF 5
ENDMDL
