MODEL 1
REMARK VINA RESULT:      55.1      0.000      0.000
REMARK  11 active torsions:
REMARK  status: ('A' for Active; 'I' for Inactive)
REMARK    1  A    between atoms: N_2  and  S_1 
REMARK    2  A    between atoms: C_4  and  S_1 
REMARK    3  A    between atoms: C_22  and  N_2 
REMARK    4  A    between atoms: C_3  and  C_8 
REMARK       I    between atoms: N_16  and  C_3 
REMARK    5  A    between atoms: O_28  and  C_7 
REMARK    6  A    between atoms: C_9  and  C_10 
REMARK    7  A    between atoms: O_29  and  C_11 
REMARK    8  A    between atoms: C_30  and  N_16 
REMARK    9  A    between atoms: C_24  and  C_22 
REMARK   10  A    between atoms: C_23  and  C_34 
REMARK   11  A    between atoms: C_34  and  C_30 
ROOT
ATOM      1  C   UNL d   1      13.205  13.256  -4.176  0.00  0.00     0.058 A 
ATOM      2  C   UNL d   1      12.928  13.940  -3.822  0.00  0.00     0.005 A 
ATOM      3  C   UNL d   1      13.475  13.289  -4.965  0.00  0.00     0.005 A 
ATOM      4  C   UNL d   1      13.182  14.688  -5.015  0.00  0.00     0.020 A 
ATOM      5  C   UNL d   1      12.914  14.658  -4.234  0.00  0.00     0.002 A 
ATOM      6  C   UNL d   1      13.461  14.007  -5.377  0.00  0.00     0.002 A 
ENDROOT
BRANCH   1   7
ATOM      7  C   UNL d   1      13.220  12.544  -3.770  0.00  0.00     0.279 C 
ATOM      8  O   UNL d   1      12.970  11.850  -4.149  0.00  0.00    -0.265 OA
ATOM      9  N   UNL d   1      13.480  12.518  -2.992  0.00  0.00    -0.206 NA
BRANCH   9  10
ATOM     10  C   UNL d   1      13.494  11.798  -2.587  0.00  0.00     0.102 C 
BRANCH  10  11
ATOM     11  C   UNL d   1      13.469  11.799  -1.771  0.00  0.00     0.021 C 
BRANCH  11  12
ATOM     12  C   UNL d   1      14.041  12.199  -1.353  0.00  0.00     0.004 A 
ATOM     13  C   UNL d   1      14.001  13.017  -1.260  0.00  0.00     0.026 A 
ATOM     14  C   UNL d   1      14.579  13.411  -0.839  0.00  0.00     0.116 A 
ATOM     15  C   UNL d   1      15.212  12.985  -0.502  0.00  0.00     0.116 A 
ATOM     16  C   UNL d   1      15.254  12.178  -0.592  0.00  0.00     0.026 A 
ATOM     17  C   UNL d   1      14.668  11.779  -1.018  0.00  0.00     0.002 A 
BRANCH  14  18
ATOM     18  O   UNL d   1      14.536  14.231  -0.748  0.00  0.00    -0.326 OA
ATOM     19  C   UNL d   1      14.635  14.694  -0.015  0.00  0.00     0.181 C 
ENDBRANCH  14  18
BRANCH  15  20
ATOM     20  O   UNL d   1      15.794  13.360  -0.081  0.00  0.00    -0.326 OA
ATOM     21  C   UNL d   1      16.557  13.087  -0.101  0.00  0.00     0.181 C 
ENDBRANCH  15  20
ENDBRANCH  11  12
ENDBRANCH  10  11
ENDBRANCH   9  10
ENDBRANCH   1   7
BRANCH   4  22
ATOM     22  C   UNL d   1      13.168  15.406  -5.428  0.00  0.00     0.112 C 
BRANCH  22  23
ATOM     23  N   UNL d   1      13.868  15.766  -5.656  0.00  0.00    -0.157 NA
BRANCH  23  24
ATOM     24  S   UNL d   1      13.928  16.589  -5.713  0.00  0.00     0.285 S 
ATOM     25  O   UNL d   1      14.405  16.604  -5.046  0.00  0.00    -0.198 OA
ATOM     26  O   UNL d   1      13.445  16.566  -6.386  0.00  0.00    -0.198 OA
BRANCH  24  27
ATOM     27  C   UNL d   1      13.978  17.404  -5.781  0.00  0.00     0.105 A 
ATOM     28  C   UNL d   1      13.312  17.862  -5.616  0.00  0.00     0.013 A 
ATOM     29  C   UNL d   1      13.355  18.691  -5.682  0.00  0.00    -0.004 A 
ATOM     30  C   UNL d   1      14.069  19.047  -5.915  0.00  0.00    -0.023 A 
ATOM     31  C   UNL d   1      14.728  18.585  -6.078  0.00  0.00    -0.004 A 
ATOM     32  C   UNL d   1      14.680  17.761  -6.010  0.00  0.00     0.013 A 
BRANCH  30  33
ATOM     33  C   UNL d   1      14.113  19.869  -5.982  0.00  0.00     0.019 C 
ATOM     34  C   UNL d   1      14.830  19.864  -5.573  0.00  0.00     0.004 C 
ATOM     35  C   UNL d   1      13.398  19.866  -6.388  0.00  0.00     0.004 C 
ATOM     36  C   UNL d   1      14.159  20.688  -6.047  0.00  0.00     0.004 C 
ENDBRANCH  30  33
ENDBRANCH  24  27
ENDBRANCH  23  24
ENDBRANCH  22  23
ENDBRANCH   4  22
TORSDOF 11
ENDMDL
