MODEL 1
REMARK VINA RESULT:      -5.5      0.000      0.000
REMARK  6 active torsions:
REMARK  status: ('A' for Active; 'I' for Inactive)
REMARK    1  A    between atoms: N_2  and  S_1 
REMARK    2  A    between atoms: C_3  and  S_1 
REMARK    3  A    between atoms: C_7  and  N_2 
REMARK    4  A    between atoms: C_10  and  C_7 
REMARK    5  A    between atoms: O_14  and  C_11 
REMARK    6  A    between atoms: C_17  and  O_14 
ROOT
ATOM      1  S   UNL d   1     -41.491-122.671 -51.775  0.00  0.00     0.285 S 
ATOM      2  O   UNL d   1     -41.465-123.462 -52.009  0.00  0.00    -0.198 OA
ATOM      3  O   UNL d   1     -41.518-121.880 -51.541  0.00  0.00    -0.198 OA
ENDROOT
BRANCH   1   4
ATOM      4  N   UNL d   1     -41.426-122.436 -52.563  0.00  0.00    -0.155 NA
BRANCH   4   5
ATOM      5  C   UNL d   1     -41.794-122.873 -53.157  0.00  0.00     0.131 C 
BRANCH   5   6
ATOM      6  C   UNL d   1     -41.849-122.568 -53.921  0.00  0.00     0.101 A 
ATOM      7  N   UNL d   1     -42.455-122.046 -54.114  0.00  0.00    -0.242 NA
ATOM      8  C   UNL d   1     -42.510-121.741 -54.879  0.00  0.00     0.099 A 
ATOM      9  C   UNL d   1     -41.958-121.958 -55.451  0.00  0.00     0.021 A 
ATOM     10  C   UNL d   1     -41.346-122.485 -55.259  0.00  0.00     0.003 A 
ATOM     11  C   UNL d   1     -41.291-122.789 -54.494  0.00  0.00     0.021 A 
ENDBRANCH   5   6
ENDBRANCH   4   5
ENDBRANCH   1   4
BRANCH   1  12
ATOM     12  C   UNL d   1     -41.557-122.906 -50.987  0.00  0.00     0.105 A 
ATOM     13  C   UNL d   1     -42.053-122.497 -50.475  0.00  0.00     0.015 A 
ATOM     14  C   UNL d   1     -42.119-122.732 -49.687  0.00  0.00     0.025 A 
ATOM     15  C   UNL d   1     -41.688-123.377 -49.411  0.00  0.00     0.100 A 
ATOM     16  C   UNL d   1     -41.191-123.787 -49.925  0.00  0.00     0.025 A 
ATOM     17  C   UNL d   1     -41.125-123.550 -50.720  0.00  0.00     0.015 A 
BRANCH  15  18
ATOM     18  O   UNL d   1     -41.753-123.613 -48.623  0.00  0.00    -0.305 OA
BRANCH  18  19
ATOM     19  C   UNL d   1     -41.252-123.294 -48.055  0.00  0.00     0.123 C 
ATOM     20  C   UNL d   1     -41.326-123.519 -47.265  0.00  0.00     0.029 C 
ENDBRANCH  18  19
ENDBRANCH  15  18
ENDBRANCH   1  12
TORSDOF 6
ENDMDL
MODEL 2
REMARK VINA RESULT:      -5.3      1.433      5.020
REMARK  6 active torsions:
REMARK  status: ('A' for Active; 'I' for Inactive)
REMARK    1  A    between atoms: N_2  and  S_1 
REMARK    2  A    between atoms: C_3  and  S_1 
REMARK    3  A    between atoms: C_7  and  N_2 
REMARK    4  A    between atoms: C_10  and  C_7 
REMARK    5  A    between atoms: O_14  and  C_11 
REMARK    6  A    between atoms: C_17  and  O_14 
ROOT
ATOM      1  S   UNL d   1     -41.171-123.001 -51.147  0.00  0.00     0.285 S 
ATOM      2  O   UNL d   1     -41.219-122.187 -51.018  0.00  0.00    -0.198 OA
ATOM      3  O   UNL d   1     -41.123-123.814 -51.275  0.00  0.00    -0.198 OA
ENDROOT
BRANCH   1   4
ATOM      4  N   UNL d   1     -41.134-123.127 -50.332  0.00  0.00    -0.155 NA
BRANCH   4   5
ATOM      5  C   UNL d   1     -41.799-123.394 -49.925  0.00  0.00     0.131 C 
BRANCH   5   6
ATOM      6  C   UNL d   1     -41.794-123.425 -49.101  0.00  0.00     0.101 A 
ATOM      7  N   UNL d   1     -41.168-123.785 -48.706  0.00  0.00    -0.242 NA
ATOM      8  C   UNL d   1     -41.163-123.816 -47.881  0.00  0.00     0.099 A 
ATOM      9  C   UNL d   1     -41.785-123.487 -47.452  0.00  0.00     0.021 A 
ATOM     10  C   UNL d   1     -42.417-123.123 -47.848  0.00  0.00     0.003 A 
ATOM     11  C   UNL d   1     -42.422-123.092 -48.672  0.00  0.00     0.021 A 
ENDBRANCH   5   6
ENDBRANCH   4   5
ENDBRANCH   1   4
BRANCH   1  12
ATOM     12  C   UNL d   1     -41.208-122.874 -51.961  0.00  0.00     0.105 A 
ATOM     13  C   UNL d   1     -41.183-123.513 -52.479  0.00  0.00     0.015 A 
ATOM     14  C   UNL d   1     -41.220-123.387 -53.293  0.00  0.00     0.025 A 
ATOM     15  C   UNL d   1     -41.281-122.621 -53.590  0.00  0.00     0.100 A 
ATOM     16  C   UNL d   1     -41.306-121.982 -53.071  0.00  0.00     0.025 A 
ATOM     17  C   UNL d   1     -41.268-122.109 -52.249  0.00  0.00     0.015 A 
BRANCH  15  18
ATOM     18  O   UNL d   1     -41.318-122.495 -54.404  0.00  0.00    -0.305 OA
BRANCH  18  19
ATOM     19  C   UNL d   1     -42.040-122.333 -54.764  0.00  0.00     0.123 C 
ATOM     20  C   UNL d   1     -42.061-122.031 -55.532  0.00  0.00     0.029 C 
ENDBRANCH  18  19
ENDBRANCH  15  18
ENDBRANCH   1  12
TORSDOF 6
ENDMDL
