MODEL 1
REMARK VINA RESULT:      -9.1      0.000      0.000
REMARK  3 active torsions:
REMARK  status: ('A' for Active; 'I' for Inactive)
REMARK    1  A    between atoms: N_5  and  C_1 
REMARK    2  A    between atoms: C_7  and  N_4 
REMARK    3  A    between atoms: C_12  and  C_7 
ROOT
ATOM      1  C   UNL d   1      51.822  33.324  52.910  0.00  0.00     0.232 A 
ATOM      2  N   UNL d   1      51.867  32.508  52.865  0.00  0.00    -0.204 NA
ATOM      3  C   UNL d   1      52.558  33.630  53.089  0.00  0.00     0.141 A 
ATOM      4  N   UNL d   1      53.087  32.990  53.160  0.00  0.00    -0.282 N 
ATOM      5  C   UNL d   1      52.657  32.290  53.021  0.00  0.00     0.150 A 
ATOM      6 BR   UNL d   1      52.765  34.434  53.187  0.00  0.00    -0.026 Br
ATOM      7  C   UNL d   1      52.946  31.488  53.029  0.00  0.00     0.041 C 
ENDROOT
BRANCH   4   8
ATOM      8  C   UNL d   1      53.904  32.951  53.333  0.00  0.00     0.082 C 
BRANCH   8   9
ATOM      9  C   UNL d   1      54.188  33.080  54.100  0.00  0.00     0.018 A 
ATOM     10  C   UNL d   1      54.736  33.675  54.239  0.00  0.00     0.002 A 
ATOM     11  C   UNL d   1      55.030  33.818  54.995  0.00  0.00     0.000 A 
ATOM     12  C   UNL d   1      54.783  33.369  55.631  0.00  0.00     0.000 A 
ATOM     13  C   UNL d   1      54.227  32.760  55.507  0.00  0.00     0.000 A 
ATOM     14  C   UNL d   1      53.920  32.600  54.759  0.00  0.00     0.002 A 
ENDBRANCH   8   9
ENDBRANCH   4   8
BRANCH   1  15
ATOM     15  N   UNL d   1      51.144  33.765  52.794  0.00  0.00    -0.093 N 
ATOM     16  O   UNL d   1      50.951  34.178  52.098  0.00  0.00    -0.530 OA
ATOM     17  O   UNL d   1      50.553  33.862  53.354  0.00  0.00    -0.530 OA
ENDBRANCH   1  15
TORSDOF 3
ENDMDL
MODEL 2
REMARK VINA RESULT:      -8.9      1.605      2.628
REMARK  3 active torsions:
REMARK  status: ('A' for Active; 'I' for Inactive)
REMARK    1  A    between atoms: N_5  and  C_1 
REMARK    2  A    between atoms: C_7  and  N_4 
REMARK    3  A    between atoms: C_12  and  C_7 
ROOT
ATOM      1  C   UNL d   1      53.203  34.753  54.433  0.00  0.00     0.232 A 
ATOM      2  N   UNL d   1      53.669  34.438  55.029  0.00  0.00    -0.204 NA
ATOM      3  C   UNL d   1      53.270  34.295  53.761  0.00  0.00     0.141 A 
ATOM      4  N   UNL d   1      53.794  33.670  53.932  0.00  0.00    -0.282 N 
ATOM      5  C   UNL d   1      54.043  33.759  54.722  0.00  0.00     0.150 A 
ATOM      6 BR   UNL d   1      52.892  34.413  53.025  0.00  0.00    -0.026 Br
ATOM      7  C   UNL d   1      54.579  33.262  55.161  0.00  0.00     0.041 C 
ENDROOT
BRANCH   4   8
ATOM      8  C   UNL d   1      54.078  33.031  53.474  0.00  0.00     0.082 C 
BRANCH   8   9
ATOM      9  C   UNL d   1      53.646  32.328  53.401  0.00  0.00     0.018 A 
ATOM     10  C   UNL d   1      53.892  31.653  53.797  0.00  0.00     0.002 A 
ATOM     11  C   UNL d   1      53.475  30.945  53.735  0.00  0.00     0.000 A 
ATOM     12  C   UNL d   1      52.802  30.895  53.276  0.00  0.00     0.000 A 
ATOM     13  C   UNL d   1      52.538  31.573  52.867  0.00  0.00     0.000 A 
ATOM     14  C   UNL d   1      52.940  32.291  52.915  0.00  0.00     0.002 A 
ENDBRANCH   8   9
ENDBRANCH   4   8
BRANCH   1  15
ATOM     15  N   UNL d   1      52.741  35.424  54.503  0.00  0.00    -0.093 N 
ATOM     16  O   UNL d   1      51.920  35.459  54.376  0.00  0.00    -0.530 OA
ATOM     17  O   UNL d   1      53.028  36.164  54.709  0.00  0.00    -0.530 OA
ENDBRANCH   1  15
TORSDOF 3
ENDMDL
MODEL 3
REMARK VINA RESULT:      -8.5      1.951      2.323
REMARK  3 active torsions:
REMARK  status: ('A' for Active; 'I' for Inactive)
REMARK    1  A    between atoms: N_5  and  C_1 
REMARK    2  A    between atoms: C_7  and  N_4 
REMARK    3  A    between atoms: C_12  and  C_7 
ROOT
ATOM      1  C   UNL d   1      52.676  31.130  53.021  0.00  0.00     0.232 A 
ATOM      2  N   UNL d   1      52.109  31.687  52.823  0.00  0.00    -0.204 NA
ATOM      3  C   UNL d   1      53.380  31.505  53.196  0.00  0.00     0.141 A 
ATOM      4  N   UNL d   1      53.259  32.325  53.107  0.00  0.00    -0.282 N 
ATOM      5  C   UNL d   1      52.467  32.439  52.875  0.00  0.00     0.150 A 
ATOM      6 BR   UNL d   1      54.102  31.150  53.424  0.00  0.00    -0.026 Br
ATOM      7  C   UNL d   1      52.071  33.177  52.714  0.00  0.00     0.041 C 
ENDROOT
BRANCH   4   8
ATOM      8  C   UNL d   1      53.764  32.982  53.208  0.00  0.00     0.082 C 
BRANCH   8   9
ATOM      9  C   UNL d   1      53.949  33.273  53.961  0.00  0.00     0.018 A 
ATOM     10  C   UNL d   1      54.674  33.097  54.301  0.00  0.00     0.002 A 
ATOM     11  C   UNL d   1      54.875  33.377  55.050  0.00  0.00     0.000 A 
ATOM     12  C   UNL d   1      54.356  33.841  55.476  0.00  0.00     0.000 A 
ATOM     13  C   UNL d   1      53.614  34.029  55.144  0.00  0.00     0.000 A 
ATOM     14  C   UNL d   1      53.392  33.759  54.397  0.00  0.00     0.002 A 
ENDBRANCH   8   9
ENDBRANCH   4   8
BRANCH   1  15
ATOM     15  N   UNL d   1      52.554  30.322  53.039  0.00  0.00    -0.093 N 
ATOM     16  O   UNL d   1      52.107  29.915  53.611  0.00  0.00    -0.530 OA
ATOM     17  O   UNL d   1      52.860  29.795  52.490  0.00  0.00    -0.530 OA
ENDBRANCH   1  15
TORSDOF 3
ENDMDL
MODEL 4
REMARK VINA RESULT:      -8.3      2.018      3.241
REMARK  3 active torsions:
REMARK  status: ('A' for Active; 'I' for Inactive)
REMARK    1  A    between atoms: N_5  and  C_1 
REMARK    2  A    between atoms: C_7  and  N_4 
REMARK    3  A    between atoms: C_12  and  C_7 
ROOT
ATOM      1  C   UNL d   1      54.158  33.049  54.548  0.00  0.00     0.232 A 
ATOM      2  N   UNL d   1      54.059  32.272  54.308  0.00  0.00    -0.204 NA
ATOM      3  C   UNL d   1      53.752  33.546  54.043  0.00  0.00     0.141 A 
ATOM      4  N   UNL d   1      53.384  33.073  53.464  0.00  0.00    -0.282 N 
ATOM      5  C   UNL d   1      53.575  32.279  53.629  0.00  0.00     0.150 A 
ATOM      6 BR   UNL d   1      53.702  34.379  54.082  0.00  0.00    -0.026 Br
ATOM      7  C   UNL d   1      53.334  31.583  53.199  0.00  0.00     0.041 C 
ENDROOT
BRANCH   4   8
ATOM      8  C   UNL d   1      52.901  33.259  52.809  0.00  0.00     0.082 C 
BRANCH   8   9
ATOM      9  C   UNL d   1      52.111  33.487  52.907  0.00  0.00     0.018 A 
ATOM     10  C   UNL d   1      51.873  34.242  52.691  0.00  0.00     0.002 A 
ATOM     11  C   UNL d   1      51.091  34.486  52.781  0.00  0.00     0.000 A 
ATOM     12  C   UNL d   1      50.529  33.982  53.091  0.00  0.00     0.000 A 
ATOM     13  C   UNL d   1      50.755  33.211  53.316  0.00  0.00     0.000 A 
ATOM     14  C   UNL d   1      51.531  32.946  53.234  0.00  0.00     0.002 A 
ENDBRANCH   8   9
ENDBRANCH   4   8
BRANCH   1  15
ATOM     15  N   UNL d   1      54.595  33.288  55.195  0.00  0.00    -0.093 N 
ATOM     16  O   UNL d   1      55.251  33.799  55.171  0.00  0.00    -0.530 OA
ATOM     17  O   UNL d   1      54.447  33.055  55.967  0.00  0.00    -0.530 OA
ENDBRANCH   1  15
TORSDOF 3
ENDMDL
