MODEL 1
REMARK VINA RESULT:      -8.6      0.000      0.000
REMARK  3 active torsions:
REMARK  status: ('A' for Active; 'I' for Inactive)
REMARK    1  A    between atoms: C_4  and  C_1 
REMARK    2  A    between atoms: C_7  and  C_4 
REMARK    3  A    between atoms: C_10  and  C_7 
ROOT
ATOM      1  C   UNL d   1     -47.398  12.336  23.419  0.00  0.00     0.062 A 
ATOM      2  C   UNL d   1     -46.906  11.674  23.442  0.00  0.00     0.279 A 
ATOM      3  N   UNL d   1     -46.165  11.898  23.165  0.00  0.00    -0.208 NA
ATOM      4  C   UNL d   1     -46.958  12.966  23.128  0.00  0.00     0.022 A 
ATOM      5  C   UNL d   1     -46.199  12.699  22.971  0.00  0.00     0.085 A 
ATOM      6  O   UNL d   1     -47.117  10.919  23.697  0.00  0.00    -0.265 OA
ATOM      7  C   UNL d   1     -47.162  13.755  22.988  0.00  0.00     0.002 A 
ATOM      8  C   UNL d   1     -45.632  13.226  22.669  0.00  0.00     0.019 A 
ATOM      9  C   UNL d   1     -46.595  14.280  22.686  0.00  0.00     0.000 A 
ATOM     10  C   UNL d   1     -45.833  14.007  22.529  0.00  0.00     0.002 A 
ENDROOT
BRANCH   1  11
ATOM     11  C   UNL d   1     -48.188  12.359  23.647  0.00  0.00     0.047 C 
BRANCH  11  12
ATOM     12  C   UNL d   1     -48.632  11.995  23.052  0.00  0.00     0.196 C 
ATOM     13  O   UNL d   1     -48.269  11.487  22.520  0.00  0.00    -0.287 OA
BRANCH  12  14
ATOM     14  C   UNL d   1     -49.441  12.146  22.998  0.00  0.00     0.039 A 
ATOM     15  C   UNL d   1     -49.927  12.047  23.658  0.00  0.00     0.003 A 
ATOM     16  C   UNL d   1     -50.731  12.195  23.610  0.00  0.00     0.000 A 
ATOM     17  C   UNL d   1     -51.064  12.448  22.894  0.00  0.00     0.000 A 
ATOM     18  C   UNL d   1     -50.580  12.547  22.234  0.00  0.00     0.000 A 
ATOM     19  C   UNL d   1     -49.772  12.398  22.281  0.00  0.00     0.003 A 
ENDBRANCH  12  14
ENDBRANCH  11  12
ENDBRANCH   1  11
TORSDOF 3
ENDMDL
MODEL 2
REMARK VINA RESULT:      -8.4      1.584      2.202
REMARK  3 active torsions:
REMARK  status: ('A' for Active; 'I' for Inactive)
REMARK    1  A    between atoms: C_4  and  C_1 
REMARK    2  A    between atoms: C_7  and  C_4 
REMARK    3  A    between atoms: C_10  and  C_7 
ROOT
ATOM      1  C   UNL d   1     -47.573  13.539  23.092  0.00  0.00     0.062 A 
ATOM      2  C   UNL d   1     -46.899  13.983  22.923  0.00  0.00     0.279 A 
ATOM      3  N   UNL d   1     -46.243  13.496  23.020  0.00  0.00    -0.208 NA
ATOM      4  C   UNL d   1     -47.331  12.780  23.292  0.00  0.00     0.022 A 
ATOM      5  C   UNL d   1     -46.513  12.750  23.249  0.00  0.00     0.085 A 
ATOM      6  O   UNL d   1     -46.881  14.776  22.698  0.00  0.00    -0.265 OA
ATOM      7  C   UNL d   1     -47.763  12.109  23.509  0.00  0.00     0.002 A 
ATOM      8  C   UNL d   1     -46.117  12.042  23.424  0.00  0.00     0.019 A 
ATOM      9  C   UNL d   1     -47.367  11.403  23.685  0.00  0.00     0.000 A 
ATOM     10  C   UNL d   1     -46.544  11.377  23.640  0.00  0.00     0.002 A 
ENDROOT
BRANCH   1  11
ATOM     11  C   UNL d   1     -48.350  13.810  23.064  0.00  0.00     0.047 C 
BRANCH  11  12
ATOM     12  C   UNL d   1     -48.583  13.824  22.270  0.00  0.00     0.196 C 
ATOM     13  O   UNL d   1     -48.021  13.754  21.676  0.00  0.00    -0.287 OA
BRANCH  12  14
ATOM     14  C   UNL d   1     -49.381  13.907  22.082  0.00  0.00     0.039 A 
ATOM     15  C   UNL d   1     -49.739  13.384  21.553  0.00  0.00     0.003 A 
ATOM     16  C   UNL d   1     -50.532  13.462  21.362  0.00  0.00     0.000 A 
ATOM     17  C   UNL d   1     -50.982  14.070  21.701  0.00  0.00     0.000 A 
ATOM     18  C   UNL d   1     -50.625  14.593  22.229  0.00  0.00     0.000 A 
ATOM     19  C   UNL d   1     -49.829  14.516  22.422  0.00  0.00     0.003 A 
ENDBRANCH  12  14
ENDBRANCH  11  12
ENDBRANCH   1  11
TORSDOF 3
ENDMDL
MODEL 3
REMARK VINA RESULT:      -8.4      1.155      3.624
REMARK  3 active torsions:
REMARK  status: ('A' for Active; 'I' for Inactive)
REMARK    1  A    between atoms: C_4  and  C_1 
REMARK    2  A    between atoms: C_7  and  C_4 
REMARK    3  A    between atoms: C_10  and  C_7 
ROOT
ATOM      1  C   UNL d   1     -48.866  12.194  22.545  0.00  0.00     0.062 A 
ATOM      2  C   UNL d   1     -49.089  11.601  23.073  0.00  0.00     0.279 A 
ATOM      3  N   UNL d   1     -49.907  11.627  23.154  0.00  0.00    -0.208 NA
ATOM      4  C   UNL d   1     -49.547  12.584  22.303  0.00  0.00     0.022 A 
ATOM      5  C   UNL d   1     -50.189  12.238  22.675  0.00  0.00     0.085 A 
ATOM      6  O   UNL d   1     -48.584  11.072  23.454  0.00  0.00    -0.265 OA
ATOM      7  C   UNL d   1     -49.657  13.218  21.783  0.00  0.00     0.002 A 
ATOM      8  C   UNL d   1     -50.954  12.525  22.529  0.00  0.00     0.019 A 
ATOM      9  C   UNL d   1     -50.421  13.505  21.638  0.00  0.00     0.000 A 
ATOM     10  C   UNL d   1     -51.064  13.153  22.015  0.00  0.00     0.002 A 
ENDROOT
BRANCH   1  11
ATOM     11  C   UNL d   1     -48.097  12.364  22.306  0.00  0.00     0.047 C 
BRANCH  11  12
ATOM     12  C   UNL d   1     -47.720  12.755  22.931  0.00  0.00     0.196 C 
ATOM     13  O   UNL d   1     -48.050  12.743  23.682  0.00  0.00    -0.287 OA
BRANCH  12  14
ATOM     14  C   UNL d   1     -47.013  13.155  22.792  0.00  0.00     0.039 A 
ATOM     15  C   UNL d   1     -46.942  13.953  22.992  0.00  0.00     0.003 A 
ATOM     16  C   UNL d   1     -46.242  14.356  22.857  0.00  0.00     0.000 A 
ATOM     17  C   UNL d   1     -45.596  13.963  22.517  0.00  0.00     0.000 A 
ATOM     18  C   UNL d   1     -45.666  13.166  22.317  0.00  0.00     0.000 A 
ATOM     19  C   UNL d   1     -46.369  12.760  22.452  0.00  0.00     0.003 A 
ENDBRANCH  12  14
ENDBRANCH  11  12
ENDBRANCH   1  11
TORSDOF 3
ENDMDL
MODEL 4
REMARK VINA RESULT:      -8.2      2.258      3.876
REMARK  3 active torsions:
REMARK  status: ('A' for Active; 'I' for Inactive)
REMARK    1  A    between atoms: C_4  and  C_1 
REMARK    2  A    between atoms: C_7  and  C_4 
REMARK    3  A    between atoms: C_10  and  C_7 
ROOT
ATOM      1  C   UNL d   1     -49.335  14.197  22.206  0.00  0.00     0.062 A 
ATOM      2  C   UNL d   1     -49.898  13.827  21.730  0.00  0.00     0.279 A 
ATOM      3  N   UNL d   1     -50.637  14.131  21.926  0.00  0.00    -0.208 NA
ATOM      4  C   UNL d   1     -49.729  14.728  22.694  0.00  0.00     0.022 A 
ATOM      5  C   UNL d   1     -50.529  14.690  22.524  0.00  0.00     0.085 A 
ATOM      6  O   UNL d   1     -49.750  13.253  21.157  0.00  0.00    -0.265 OA
ATOM      7  C   UNL d   1     -49.448  15.244  23.276  0.00  0.00     0.002 A 
ATOM      8  C   UNL d   1     -51.062  15.173  22.940  0.00  0.00     0.019 A 
ATOM      9  C   UNL d   1     -49.980  15.726  23.690  0.00  0.00     0.000 A 
ATOM     10  C   UNL d   1     -50.785  15.685  23.516  0.00  0.00     0.002 A 
ENDROOT
BRANCH   1  11
ATOM     11  C   UNL d   1     -48.524  14.057  22.193  0.00  0.00     0.047 C 
BRANCH  11  12
ATOM     12  C   UNL d   1     -48.388  13.333  22.569  0.00  0.00     0.196 C 
ATOM     13  O   UNL d   1     -49.018  12.843  22.758  0.00  0.00    -0.287 OA
BRANCH  12  14
ATOM     14  C   UNL d   1     -47.616  13.110  22.753  0.00  0.00     0.039 A 
ATOM     15  C   UNL d   1     -46.978  13.469  22.372  0.00  0.00     0.003 A 
ATOM     16  C   UNL d   1     -46.209  13.251  22.550  0.00  0.00     0.000 A 
ATOM     17  C   UNL d   1     -46.065  12.665  23.119  0.00  0.00     0.000 A 
ATOM     18  C   UNL d   1     -46.702  12.305  23.500  0.00  0.00     0.000 A 
ATOM     19  C   UNL d   1     -47.475  12.524  23.322  0.00  0.00     0.003 A 
ENDBRANCH  12  14
ENDBRANCH  11  12
ENDBRANCH   1  11
TORSDOF 3
ENDMDL
MODEL 5
REMARK VINA RESULT:      -6.6      8.513     10.038
REMARK  3 active torsions:
REMARK  status: ('A' for Active; 'I' for Inactive)
REMARK    1  A    between atoms: C_4  and  C_1 
REMARK    2  A    between atoms: C_7  and  C_4 
REMARK    3  A    between atoms: C_10  and  C_7 
ROOT
ATOM      1  C   UNL d   1     -40.045  14.617  17.879  0.00  0.00     0.062 A 
ATOM      2  C   UNL d   1     -40.244  15.052  17.206  0.00  0.00     0.279 A 
ATOM      3  N   UNL d   1     -39.775  14.787  16.585  0.00  0.00    -0.208 NA
ATOM      4  C   UNL d   1     -39.454  14.087  17.670  0.00  0.00     0.022 A 
ATOM      5  C   UNL d   1     -39.285  14.188  16.874  0.00  0.00     0.085 A 
ATOM      6  O   UNL d   1     -40.813  15.647  17.161  0.00  0.00    -0.265 OA
ATOM      7  C   UNL d   1     -39.048  13.520  18.114  0.00  0.00     0.002 A 
ATOM      8  C   UNL d   1     -38.703  13.719  16.513  0.00  0.00     0.019 A 
ATOM      9  C   UNL d   1     -38.467  13.051  17.753  0.00  0.00     0.000 A 
ATOM     10  C   UNL d   1     -38.300  13.157  16.953  0.00  0.00     0.002 A 
ENDROOT
BRANCH   1  11
ATOM     11  C   UNL d   1     -40.381  14.702  18.625  0.00  0.00     0.047 C 
BRANCH  11  12
ATOM     12  C   UNL d   1     -40.083  15.400  18.956  0.00  0.00     0.196 C 
ATOM     13  O   UNL d   1     -39.648  15.921  18.496  0.00  0.00    -0.287 OA
BRANCH  12  14
ATOM     14  C   UNL d   1     -40.227  15.567  19.751  0.00  0.00     0.039 A 
ATOM     15  C   UNL d   1     -40.998  15.546  20.046  0.00  0.00     0.003 A 
ATOM     16  C   UNL d   1     -41.147  15.711  20.835  0.00  0.00     0.000 A 
ATOM     17  C   UNL d   1     -40.522  15.901  21.344  0.00  0.00     0.000 A 
ATOM     18  C   UNL d   1     -39.752  15.922  21.050  0.00  0.00     0.000 A 
ATOM     19  C   UNL d   1     -39.600  15.757  20.258  0.00  0.00     0.003 A 
ENDBRANCH  12  14
ENDBRANCH  11  12
ENDBRANCH   1  11
TORSDOF 3
ENDMDL
MODEL 6
REMARK VINA RESULT:      -6.3      8.603     10.259
REMARK  3 active torsions:
REMARK  status: ('A' for Active; 'I' for Inactive)
REMARK    1  A    between atoms: C_4  and  C_1 
REMARK    2  A    between atoms: C_7  and  C_4 
REMARK    3  A    between atoms: C_10  and  C_7 
ROOT
ATOM      1  C   UNL d   1     -40.113  15.407  18.478  0.00  0.00     0.062 A 
ATOM      2  C   UNL d   1     -40.836  15.683  18.191  0.00  0.00     0.279 A 
ATOM      3  N   UNL d   1     -41.291  15.921  18.834  0.00  0.00    -0.208 NA
ATOM      4  C   UNL d   1     -40.125  15.476  19.297  0.00  0.00     0.022 A 
ATOM      5  C   UNL d   1     -40.847  15.792  19.519  0.00  0.00     0.085 A 
ATOM      6  O   UNL d   1     -41.066  15.716  17.401  0.00  0.00    -0.265 OA
ATOM      7  C   UNL d   1     -39.557  15.287  19.868  0.00  0.00     0.002 A 
ATOM      8  C   UNL d   1     -41.010  15.922  20.323  0.00  0.00     0.019 A 
ATOM      9  C   UNL d   1     -39.720  15.417  20.670  0.00  0.00     0.000 A 
ATOM     10  C   UNL d   1     -40.449  15.735  20.889  0.00  0.00     0.002 A 
ENDROOT
BRANCH   1  11
ATOM     11  C   UNL d   1     -39.492  15.116  18.023  0.00  0.00     0.047 C 
BRANCH  11  12
ATOM     12  C   UNL d   1     -39.699  14.354  17.775  0.00  0.00     0.196 C 
ATOM     13  O   UNL d   1     -40.471  14.088  17.862  0.00  0.00    -0.287 OA
BRANCH  12  14
ATOM     14  C   UNL d   1     -39.125  13.865  17.441  0.00  0.00     0.039 A 
ATOM     15  C   UNL d   1     -38.624  14.156  16.853  0.00  0.00     0.003 A 
ATOM     16  C   UNL d   1     -38.052  13.675  16.518  0.00  0.00     0.000 A 
ATOM     17  C   UNL d   1     -37.972  12.889  16.768  0.00  0.00     0.000 A 
ATOM     18  C   UNL d   1     -38.472  12.598  17.355  0.00  0.00     0.000 A 
ATOM     19  C   UNL d   1     -39.048  13.080  17.693  0.00  0.00     0.003 A 
ENDBRANCH  12  14
ENDBRANCH  11  12
ENDBRANCH   1  11
TORSDOF 3
ENDMDL
