MODEL 1
REMARK VINA RESULT:      30.5      0.000      0.000
REMARK  5 active torsions:
REMARK  status: ('A' for Active; 'I' for Inactive)
REMARK    1  A    between atoms: C_11  and  C_5 
REMARK    2  A    between atoms: C_25  and  N_6 
REMARK    3  A    between atoms: N_14  and  C_27 
REMARK    4  A    between atoms: C_26  and  C_25 
REMARK    5  A    between atoms: C_27  and  C_26 
ROOT
ATOM      1  C   UNL d   1      45.996 -17.495  43.709  0.00  0.00     0.082 A 
ATOM      2  C   UNL d   1      45.909 -16.787  43.290  0.00  0.00     0.267 A 
ATOM      3  C   UNL d   1      45.988 -17.498  44.537  0.00  0.00     0.108 A 
ATOM      4  C   UNL d   1      46.179 -18.920  43.710  0.00  0.00     0.113 A 
ATOM      5  C   UNL d   1      46.092 -18.209  43.287  0.00  0.00     0.043 A 
ATOM      6  N   UNL d   1      45.814 -16.083  43.712  0.00  0.00    -0.273 N 
ATOM      7  C   UNL d   1      46.170 -18.919  44.534  0.00  0.00     0.213 A 
ATOM      8  O   UNL d   1      46.074 -18.205  44.949  0.00  0.00    -0.287 OA
ATOM      9  C   UNL d   1      45.893 -16.793  44.947  0.00  0.00     0.043 A 
ATOM     10  C   UNL d   1      45.806 -16.085  44.540  0.00  0.00     0.069 A 
ATOM     11  C   UNL d   1      46.274 -19.625  43.296  0.00  0.00     0.105 C 
ATOM     12  N   UNL d   1      46.369 -20.330  42.882  0.00  0.00    -0.191 NA
ATOM     13  O   UNL d   1      45.918 -16.785  42.461  0.00  0.00    -0.267 OA
ATOM     14  N   UNL d   1      46.257 -19.627  44.954  0.00  0.00    -0.120 N 
ATOM     15  C   UNL d   1      45.709 -15.368  44.955  0.00  0.00     0.019 C 
ENDROOT
BRANCH   5  16
ATOM     16  C   UNL d   1      46.101 -18.210  42.462  0.00  0.00     0.101 A 
ATOM     17  O   UNL d   1      46.646 -18.590  41.986  0.00  0.00    -0.305 OA
ATOM     18  C   UNL d   1      46.447 -18.445  41.198  0.00  0.00     0.123 A 
ATOM     19  C   UNL d   1      45.772 -17.971  41.194  0.00  0.00     0.029 A 
ATOM     20  C   UNL d   1      45.552 -17.821  41.972  0.00  0.00     0.027 A 
ENDBRANCH   5  16
BRANCH   6  21
ATOM     21  C   UNL d   1      45.726 -15.362  43.293  0.00  0.00     0.085 C 
BRANCH  21  22
ATOM     22  C   UNL d   1      45.891 -14.644  43.667  0.00  0.00     0.038 C 
BRANCH  22  23
ATOM     23  C   UNL d   1      45.923 -13.949  43.224  0.00  0.00     0.083 C 
BRANCH  23  24
ATOM     24  N   UNL d   1      45.629 -13.242  43.534  0.00  0.00    -0.285 N 
ATOM     25  C   UNL d   1      45.848 -12.892  44.244  0.00  0.00     0.183 A 
ATOM     26  N   UNL d   1      45.417 -12.197  44.330  0.00  0.00    -0.222 NA
ATOM     27  C   UNL d   1      44.929 -12.114  43.672  0.00  0.00     0.120 A 
ATOM     28  C   UNL d   1      45.057 -12.753  43.183  0.00  0.00     0.102 A 
ENDBRANCH  23  24
ENDBRANCH  22  23
ENDBRANCH  21  22
ENDBRANCH   6  21
TORSDOF 5
ENDMDL
