MODEL 1
REMARK VINA RESULT:       9.8      0.000      0.000
REMARK  1 active torsions:
REMARK  status: ('A' for Active; 'I' for Inactive)
REMARK    1  A    between atoms: C_7  and  C_6 
ROOT
ATOM      1  C   UNL d   1     -52.170  24.652  33.336  0.00  0.00     0.045 A 
ATOM      2  C   UNL d   1     -52.436  25.433  33.321  0.00  0.00     0.196 A 
ATOM      3  C   UNL d   1     -51.345  24.645  33.342  0.00  0.00     0.003 A 
ATOM      4  C   UNL d   1     -51.764  25.916  33.318  0.00  0.00     0.039 A 
ATOM      5  C   UNL d   1     -51.098  25.435  33.331  0.00  0.00     0.003 A 
ATOM      6  C   UNL d   1     -52.586  23.928  33.344  0.00  0.00     0.068 A 
ATOM      7  O   UNL d   1     -53.217  25.684  33.311  0.00  0.00    -0.287 OA
ATOM      8  C   UNL d   1     -50.937  23.935  33.357  0.00  0.00     0.000 A 
ATOM      9  C   UNL d   1     -51.677  26.739  33.306  0.00  0.00     0.003 A 
ATOM     10  C   UNL d   1     -50.344  25.777  33.332  0.00  0.00     0.000 A 
ATOM     11  C   UNL d   1     -52.173  23.215  33.358  0.00  0.00     0.006 A 
ATOM     12  C   UNL d   1     -51.341  23.224  33.365  0.00  0.00     0.000 A 
ATOM     13  C   UNL d   1     -50.928  27.074  33.307  0.00  0.00     0.000 A 
ATOM     14  C   UNL d   1     -50.262  26.593  33.319  0.00  0.00     0.000 A 
ENDROOT
BRANCH   6  15
ATOM     15  C   UNL d   1     -53.410  23.934  33.337  0.00  0.00     0.211 C 
ATOM     16  O   UNL d   1     -53.821  23.217  33.360  0.00  0.00    -0.644 OA
ATOM     17  O   UNL d   1     -53.819  24.644  33.309  0.00  0.00    -0.644 OA
ENDBRANCH   6  15
TORSDOF 1
ENDMDL
