MODEL 1
REMARK VINA RESULT:     116.9      0.000      0.000
REMARK  6 active torsions:
REMARK  status: ('A' for Active; 'I' for Inactive)
REMARK    1  A    between atoms: N_4  and  C_3 
REMARK       I    between atoms: C_6  and  N_10 
REMARK    2  A    between atoms: C_21  and  C_6 
REMARK    3  A    between atoms: C_11  and  C_7 
REMARK    4  A    between atoms: C_9  and  O_12 
REMARK    5  A    between atoms: N_10  and  C_22 
REMARK    6  A    between atoms: O_12  and  C_21 
ROOT
ATOM      1  C   UNL d   1      61.378  46.362  50.549  0.00  0.00     0.019 A 
ATOM      2  C   UNL d   1      61.012  46.582  51.246  0.00  0.00     0.003 A 
ATOM      3  C   UNL d   1      61.522  46.929  49.966  0.00  0.00     0.003 A 
ATOM      4  C   UNL d   1      60.926  47.930  50.794  0.00  0.00     0.085 A 
ATOM      5  C   UNL d   1      61.296  47.713  50.088  0.00  0.00     0.019 A 
ATOM      6  C   UNL d   1      60.785  47.366  51.368  0.00  0.00     0.019 A 
ENDROOT
BRANCH   4   7
ATOM      7  N   UNL d   1      60.700  48.714  50.916  0.00  0.00    -0.206 NA
ATOM      8  C   UNL d   1      59.904  48.919  50.915  0.00  0.00     0.304 C 
ATOM      9  O   UNL d   1      59.677  49.707  51.038  0.00  0.00    -0.263 OA
BRANCH   8  10
ATOM     10  C   UNL d   1      59.330  48.339  50.791  0.00  0.00     0.185 C 
BRANCH  10  11
ATOM     11  O   UNL d   1      58.548  48.477  51.014  0.00  0.00    -0.299 OA
BRANCH  11  12
ATOM     12  C   UNL d   1      58.012  48.786  50.467  0.00  0.00     0.111 A 
ATOM     13  C   UNL d   1      57.204  48.648  50.559  0.00  0.00     0.081 A 
ATOM     14  C   UNL d   1      56.670  48.951  50.020  0.00  0.00     0.025 A 
ATOM     15 CL   UNL d   1      56.929  48.196  51.207  0.00  0.00    -0.080 Cl
ATOM     16  C   UNL d   1      56.943  49.398  49.381  0.00  0.00     0.059 A 
ATOM     17  C   UNL d   1      57.751  49.535  49.289  0.00  0.00     0.013 A 
ATOM     18 CL   UNL d   1      56.401  49.708  48.831  0.00  0.00    -0.082 Cl
ATOM     19  C   UNL d   1      58.286  49.226  49.836  0.00  0.00     0.026 A 
ENDBRANCH  11  12
ENDBRANCH  10  11
ENDBRANCH   8  10
ENDBRANCH   4   7
BRANCH   1  20
ATOM     20  C   UNL d   1      61.604  45.578  50.426  0.00  0.00     0.103 A 
ATOM     21  N   UNL d   1      61.103  44.966  50.646  0.00  0.00    -0.147 NA
ATOM     22  N   UNL d   1      61.329  44.182  50.523  0.00  0.00    -0.130 NA
ATOM     23  C   UNL d   1      62.057  44.011  50.181  0.00  0.00     0.170 A 
ATOM     24  C   UNL d   1      62.562  44.625  49.960  0.00  0.00     0.041 A 
ATOM     25  C   UNL d   1      62.335  45.409  50.083  0.00  0.00     0.024 A 
BRANCH  23  26
ATOM     26  N   UNL d   1      62.283  43.227  50.059  0.00  0.00    -0.284 N 
ATOM     27  C   UNL d   1      61.870  42.756  49.532  0.00  0.00     0.108 A 
ATOM     28  C   UNL d   1      62.096  41.973  49.410  0.00  0.00     0.142 A 
ATOM     29  O   UNL d   1      62.735  41.659  49.814  0.00  0.00    -0.300 OA
ATOM     30  C   UNL d   1      63.153  42.131  50.346  0.00  0.00     0.142 A 
ATOM     31  C   UNL d   1      62.927  42.915  50.469  0.00  0.00     0.108 A 
ENDBRANCH  23  26
ENDBRANCH   1  20
TORSDOF 6
ENDMDL
