MODEL 1
REMARK VINA RESULT:      -5.3      0.000      0.000
REMARK  4 active torsions:
REMARK  status: ('A' for Active; 'I' for Inactive)
REMARK    1  A    between atoms: C_2  and  C_1 
REMARK    2  A    between atoms: N_12  and  C_6 
REMARK    3  A    between atoms: C_16  and  N_12 
REMARK    4  A    between atoms: O_25  and  C_17 
ROOT
ATOM      1  C   UNL d   1      58.091   0.180  31.018  0.00  0.00     0.082 A 
ATOM      2  C   UNL d   1      58.612   0.511  31.569  0.00  0.00     0.302 A 
ATOM      3  C   UNL d   1      57.302   0.006  31.237  0.00  0.00     0.009 A 
ATOM      4  O   UNL d   1      58.358   0.674  32.341  0.00  0.00    -0.273 OA
ATOM      5  C   UNL d   1      57.055   0.170  32.009  0.00  0.00     0.025 A 
ATOM      6  C   UNL d   1      57.580   0.505  32.565  0.00  0.00     0.103 A 
ATOM      7  O   UNL d   1      59.391   0.681  31.347  0.00  0.00    -0.259 OA
ATOM      8  C   UNL d   1      56.277  -0.000  32.227  0.00  0.00     0.026 A 
ATOM      9  C   UNL d   1      57.319   0.663  33.329  0.00  0.00     0.027 A 
ATOM     10  C   UNL d   1      56.027   0.163  32.997  0.00  0.00     0.094 A 
ATOM     11  C   UNL d   1      56.544   0.492  33.545  0.00  0.00     0.026 A 
ENDROOT
BRANCH   1  12
ATOM     12  C   UNL d   1      58.347   0.021  30.253  0.00  0.00     0.095 A 
ATOM     13  N   UNL d   1      58.321  -0.704  29.877  0.00  0.00    -0.221 NA
ATOM     14  C   UNL d   1      58.632  -0.613  29.122  0.00  0.00     0.194 A 
ATOM     15  S   UNL d   1      58.852   0.173  29.032  0.00  0.00    -0.046 SA
ATOM     16  C   UNL d   1      58.675   0.571  29.738  0.00  0.00     0.058 A 
BRANCH  14  17
ATOM     17  N   UNL d   1      58.708  -1.207  28.558  0.00  0.00    -0.221 NA
BRANCH  17  18
ATOM     18  C   UNL d   1      59.184  -1.863  28.723  0.00  0.00     0.084 A 
ATOM     19  C   UNL d   1      60.007  -1.784  28.690  0.00  0.00     0.022 A 
ATOM     20  C   UNL d   1      60.486  -2.428  28.852  0.00  0.00     0.044 A 
ATOM     21  C   UNL d   1      60.138  -3.153  29.049  0.00  0.00     0.196 A 
ATOM     22  C   UNL d   1      59.314  -3.226  29.081  0.00  0.00     0.044 A 
ATOM     23  O   UNL d   1      60.621  -3.804  29.213  0.00  0.00    -0.287 OA
ATOM     24  C   UNL d   1      58.844  -2.575  28.917  0.00  0.00     0.022 A 
ENDBRANCH  17  18
ENDBRANCH  14  17
ENDBRANCH   1  12
BRANCH  10  25
ATOM     25  O   UNL d   1      55.253  -0.007  33.213  0.00  0.00    -0.328 OA
ATOM     26  C   UNL d   1      54.878   0.443  33.791  0.00  0.00     0.181 C 
ENDBRANCH  10  25
TORSDOF 4
ENDMDL
MODEL 2
REMARK VINA RESULT:      -4.5      1.359      1.920
REMARK  4 active torsions:
REMARK  status: ('A' for Active; 'I' for Inactive)
REMARK    1  A    between atoms: C_2  and  C_1 
REMARK    2  A    between atoms: N_12  and  C_6 
REMARK    3  A    between atoms: C_16  and  N_12 
REMARK    4  A    between atoms: O_25  and  C_17 
ROOT
ATOM      1  C   UNL d   1      56.849  -0.441  31.866  0.00  0.00     0.082 A 
ATOM      2  C   UNL d   1      56.692  -1.248  31.953  0.00  0.00     0.302 A 
ATOM      3  C   UNL d   1      56.460   0.117  32.353  0.00  0.00     0.009 A 
ATOM      4  O   UNL d   1      56.149  -1.512  32.521  0.00  0.00    -0.273 OA
ATOM      5  C   UNL d   1      55.920  -0.151  32.918  0.00  0.00     0.025 A 
ATOM      6  C   UNL d   1      55.761  -0.966  33.006  0.00  0.00     0.103 A 
ATOM      7  O   UNL d   1      57.079  -1.797  31.468  0.00  0.00    -0.259 OA
ATOM      8  C   UNL d   1      55.535   0.398  33.399  0.00  0.00     0.026 A 
ATOM      9  C   UNL d   1      55.220  -1.217  33.574  0.00  0.00     0.027 A 
ATOM     10  C   UNL d   1      54.995   0.134  33.965  0.00  0.00     0.094 A 
ATOM     11  C   UNL d   1      54.838  -0.669  34.052  0.00  0.00     0.026 A 
ENDROOT
BRANCH   1  12
ATOM     12  C   UNL d   1      57.388  -0.185  31.301  0.00  0.00     0.095 A 
ATOM     13  N   UNL d   1      57.386  -0.380  30.508  0.00  0.00    -0.221 NA
ATOM     14  C   UNL d   1      58.021  -0.004  30.148  0.00  0.00     0.194 A 
ATOM     15  S   UNL d   1      58.418   0.427  30.723  0.00  0.00    -0.046 SA
ATOM     16  C   UNL d   1      58.025   0.316  31.444  0.00  0.00     0.058 A 
BRANCH  14  17
ATOM     17  N   UNL d   1      58.221  -0.052  29.351  0.00  0.00    -0.221 NA
BRANCH  17  18
ATOM     18  C   UNL d   1      58.868  -0.513  29.124  0.00  0.00     0.084 A 
ATOM     19  C   UNL d   1      59.634  -0.231  29.261  0.00  0.00     0.022 A 
ATOM     20  C   UNL d   1      60.281  -0.680  29.040  0.00  0.00     0.044 A 
ATOM     21  C   UNL d   1      60.160  -1.416  28.680  0.00  0.00     0.196 A 
ATOM     22  C   UNL d   1      59.392  -1.694  28.545  0.00  0.00     0.044 A 
ATOM     23  O   UNL d   1      60.813  -1.871  28.456  0.00  0.00    -0.287 OA
ATOM     24  C   UNL d   1      58.751  -1.236  28.770  0.00  0.00     0.022 A 
ENDBRANCH  17  18
ENDBRANCH  14  17
ENDBRANCH   1  12
BRANCH  10  25
ATOM     25  O   UNL d   1      54.612   0.682  34.444  0.00  0.00    -0.328 OA
ATOM     26  C   UNL d   1      54.642   0.604  35.263  0.00  0.00     0.181 C 
ENDBRANCH  10  25
TORSDOF 4
ENDMDL
