MODEL 1
REMARK VINA RESULT:     110.0      0.000      0.000
REMARK  6 active torsions:
REMARK  status: ('A' for Active; 'I' for Inactive)
REMARK    1  A    between atoms: C_9  and  N_1 
REMARK    2  A    between atoms: N_6  and  C_2 
REMARK    3  A    between atoms: C_7  and  C_5 
REMARK    4  A    between atoms: C_13  and  N_6 
REMARK    5  A    between atoms: C_8  and  C_7 
REMARK       I    between atoms: N_10  and  C_8 
REMARK    6  A    between atoms: C_14  and  N_10 
ROOT
ATOM      1  N   UNL d   1     -55.673-100.299 -43.633  0.00  0.00    -0.254 N 
ATOM      2  C   UNL d   1     -56.294-100.021 -43.165  0.00  0.00     0.182 A 
ATOM      3  C   UNL d   1     -55.433-101.002 -43.352  0.00  0.00     0.272 A 
ATOM      4  S   UNL d   1     -56.427-100.599 -42.569  0.00  0.00    -0.045 SA
ATOM      5  C   UNL d   1     -55.888-101.208 -42.690  0.00  0.00     0.093 A 
ATOM      6  O   UNL d   1     -54.827-101.463 -43.662  0.00  0.00    -0.266 OA
ENDROOT
BRANCH   5   7
ATOM      7  C   UNL d   1     -55.819-101.882 -42.242  0.00  0.00     0.074 C 
BRANCH   7   8
ATOM      8  C   UNL d   1     -56.469-102.382 -42.166  0.00  0.00     0.280 C 
ATOM      9  N   UNL d   1     -56.577-102.789 -41.437  0.00  0.00    -0.208 NA
ATOM     10  O   UNL d   1     -56.983-102.479 -42.770  0.00  0.00    -0.265 OA
BRANCH   9  11
ATOM     11  C   UNL d   1     -56.043-102.679 -40.831  0.00  0.00     0.085 A 
ATOM     12  C   UNL d   1     -56.301-102.364 -40.106  0.00  0.00     0.019 A 
ATOM     13  C   UNL d   1     -55.762-102.248 -39.479  0.00  0.00     0.002 A 
ATOM     14  C   UNL d   1     -54.971-102.451 -39.595  0.00  0.00     0.000 A 
ATOM     15  C   UNL d   1     -54.711-102.766 -40.320  0.00  0.00     0.002 A 
ATOM     16  C   UNL d   1     -55.245-102.880 -40.936  0.00  0.00     0.019 A 
ENDBRANCH   9  11
ENDBRANCH   7   8
ENDBRANCH   5   7
BRANCH   1  17
ATOM     17  C   UNL d   1     -55.359 -99.917 -44.277  0.00  0.00     0.069 A 
ATOM     18  C   UNL d   1     -55.036 -99.157 -44.178  0.00  0.00     0.018 A 
ATOM     19  C   UNL d   1     -54.712 -98.755 -44.830  0.00  0.00     0.002 A 
ATOM     20  C   UNL d   1     -54.713 -99.118 -45.572  0.00  0.00     0.000 A 
ATOM     21  C   UNL d   1     -55.036 -99.878 -45.669  0.00  0.00     0.002 A 
ATOM     22  C   UNL d   1     -55.356-100.268 -45.019  0.00  0.00     0.018 A 
ENDBRANCH   1  17
BRANCH   2  23
ATOM     23  N   UNL d   1     -56.734 -99.336 -43.214  0.00  0.00    -0.222 NA
BRANCH  23  24
ATOM     24  C   UNL d   1     -57.532 -99.363 -43.383  0.00  0.00     0.084 A 
ATOM     25  C   UNL d   1     -58.086 -99.263 -42.780  0.00  0.00     0.019 A 
ATOM     26  C   UNL d   1     -58.900 -99.292 -42.961  0.00  0.00     0.002 A 
ATOM     27  C   UNL d   1     -59.142 -99.416 -43.721  0.00  0.00     0.000 A 
ATOM     28  C   UNL d   1     -58.585 -99.517 -44.329  0.00  0.00     0.002 A 
ATOM     29  C   UNL d   1     -57.778 -99.490 -44.159  0.00  0.00     0.019 A 
ENDBRANCH  23  24
ENDBRANCH   2  23
TORSDOF 6
ENDMDL
