MODEL 1
REMARK VINA RESULT:      32.2      0.000      0.000
REMARK  4 active torsions:
REMARK  status: ('A' for Active; 'I' for Inactive)
REMARK    1  A    between atoms: C_2  and  S_1 
REMARK    2  A    between atoms: N_11  and  S_1 
REMARK    3  A    between atoms: C_7  and  C_19 
REMARK    4  A    between atoms: C_19  and  N_11 
ROOT
ATOM      1  C   UNL d   1     -55.070-102.387 -40.803  0.00  0.00     0.133 C 
ENDROOT
BRANCH   1   2
ATOM      2  C   UNL d   1     -55.216-102.416 -39.987  0.00  0.00     0.120 A 
ATOM      3  N   UNL d   1     -54.727-102.113 -39.418  0.00  0.00    -0.225 NA
ATOM      4  C   UNL d   1     -55.078-102.258 -38.672  0.00  0.00     0.148 A 
ATOM      5  C   UNL d   1     -54.840-102.079 -37.903  0.00  0.00     0.037 A 
ATOM      6  N   UNL d   1     -55.789-102.654 -38.802  0.00  0.00    -0.288 N 
ATOM      7  C   UNL d   1     -55.312-102.297 -37.264  0.00  0.00     0.004 A 
ATOM      8  C   UNL d   1     -55.066-102.115 -36.498  0.00  0.00     0.000 C 
ATOM      9  C   UNL d   1     -56.021-102.693 -37.394  0.00  0.00     0.019 A 
ATOM     10  C   UNL d   1     -56.260-102.872 -38.163  0.00  0.00     0.082 A 
ATOM     11  C   UNL d   1     -55.879-102.755 -39.622  0.00  0.00     0.102 A 
ENDBRANCH   1   2
BRANCH   1  12
ATOM     12  N   UNL d   1     -54.715-101.720 -41.134  0.00  0.00    -0.155 NA
BRANCH  12  13
ATOM     13  S   UNL d   1     -54.773-101.587 -41.950  0.00  0.00     0.291 S 
ATOM     14  O   UNL d   1     -54.782-102.410 -42.082  0.00  0.00    -0.198 OA
ATOM     15  O   UNL d   1     -54.765-100.764 -41.812  0.00  0.00    -0.198 OA
BRANCH  13  16
ATOM     16  C   UNL d   1     -54.831-101.452 -42.761  0.00  0.00     0.135 A 
ATOM     17  S   UNL d   1     -54.714-100.739 -43.142  0.00  0.00    -0.062 SA
ATOM     18  C   UNL d   1     -54.826-100.849 -43.951  0.00  0.00     0.088 A 
ATOM     19 CL   UNL d   1     -54.761-100.272 -44.532  0.00  0.00    -0.075 Cl
ATOM     20  C   UNL d   1     -55.017-101.652 -44.070  0.00  0.00     0.019 A 
ATOM     21  C   UNL d   1     -55.020-102.022 -43.335  0.00  0.00     0.021 A 
ENDBRANCH  13  16
ENDBRANCH  12  13
ENDBRANCH   1  12
TORSDOF 4
ENDMDL
MODEL 2
REMARK VINA RESULT:      35.0      2.225      5.089
REMARK  4 active torsions:
REMARK  status: ('A' for Active; 'I' for Inactive)
REMARK    1  A    between atoms: C_2  and  S_1 
REMARK    2  A    between atoms: N_11  and  S_1 
REMARK    3  A    between atoms: C_7  and  C_19 
REMARK    4  A    between atoms: C_19  and  N_11 
ROOT
ATOM      1  C   UNL d   1     -55.131-101.864 -41.191  0.00  0.00     0.133 C 
ENDROOT
BRANCH   1   2
ATOM      2  C   UNL d   1     -55.039-101.603 -41.973  0.00  0.00     0.120 A 
ATOM      3  N   UNL d   1     -55.030-100.828 -42.204  0.00  0.00    -0.225 NA
ATOM      4  C   UNL d   1     -54.926-100.808 -43.035  0.00  0.00     0.148 A 
ATOM      5  C   UNL d   1     -54.874-100.184 -43.573  0.00  0.00     0.037 A 
ATOM      6  N   UNL d   1     -54.873-101.586 -43.300  0.00  0.00    -0.288 N 
ATOM      7  C   UNL d   1     -54.769-100.339 -44.375  0.00  0.00     0.004 A 
ATOM      8  C   UNL d   1     -54.718 -99.709 -44.905  0.00  0.00     0.000 C 
ATOM      9  C   UNL d   1     -54.716-101.116 -44.639  0.00  0.00     0.019 A 
ATOM     10  C   UNL d   1     -54.768-101.740 -44.102  0.00  0.00     0.082 A 
ATOM     11  C   UNL d   1     -54.944-102.086 -42.640  0.00  0.00     0.102 A 
ENDBRANCH   1   2
BRANCH   1  12
ATOM     12  N   UNL d   1     -54.714-101.494 -40.582  0.00  0.00    -0.155 NA
BRANCH  12  13
ATOM     13  S   UNL d   1     -54.785-101.777 -39.807  0.00  0.00     0.291 S 
ATOM     14  O   UNL d   1     -54.770-102.560 -40.092  0.00  0.00    -0.198 OA
ATOM     15  O   UNL d   1     -54.799-100.990 -39.527  0.00  0.00    -0.198 OA
BRANCH  13  16
ATOM     16  C   UNL d   1     -54.855-102.055 -39.034  0.00  0.00     0.135 A 
ATOM     17  S   UNL d   1     -54.778-101.612 -38.352  0.00  0.00    -0.062 SA
ATOM     18  C   UNL d   1     -54.890-102.106 -37.701  0.00  0.00     0.088 A 
ATOM     19 CL   UNL d   1     -54.859-101.881 -36.912  0.00  0.00    -0.075 Cl
ATOM     20  C   UNL d   1     -55.038-102.873 -37.993  0.00  0.00     0.019 A 
ATOM     21  C   UNL d   1     -55.017-102.840 -38.815  0.00  0.00     0.021 A 
ENDBRANCH  13  16
ENDBRANCH  12  13
ENDBRANCH   1  12
TORSDOF 4
ENDMDL
