MODEL 1
REMARK VINA RESULT:      21.3      0.000      0.000
REMARK  4 active torsions:
REMARK  status: ('A' for Active; 'I' for Inactive)
REMARK    1  A    between atoms: N_2  and  C_1 
REMARK    2  A    between atoms: N_4  and  C_1 
REMARK       I    between atoms: C_3  and  N_2 
REMARK    3  A    between atoms: C_6  and  C_3 
REMARK    4  A    between atoms: C_9  and  N_5 
ROOT
ATOM      1  N   UNL d   1      45.966 -15.498  44.107  0.00  0.00    -0.278 N 
ATOM      2  N   UNL d   1      46.090 -17.106  43.788  0.00  0.00    -0.301 N 
ATOM      3  C   UNL d   1      46.186 -16.027  44.707  0.00  0.00     0.101 A 
ATOM      4  C   UNL d   1      45.806 -15.771  43.342  0.00  0.00     0.101 A 
ATOM      5  C   UNL d   1      46.246 -16.832  44.539  0.00  0.00     0.100 A 
ATOM      6  C   UNL d   1      45.867 -16.576  43.177  0.00  0.00     0.100 A 
ENDROOT
BRANCH   1   7
ATOM      7  C   UNL d   1      45.908 -14.695  44.283  0.00  0.00     0.209 C 
ATOM      8  S   UNL d   1      46.268 -14.406  44.955  0.00  0.00    -0.038 SA
BRANCH   7   9
ATOM      9  N   UNL d   1      45.488 -14.212  43.774  0.00  0.00    -0.179 NA
ATOM     10  C   UNL d   1      45.591 -13.407  43.804  0.00  0.00     0.287 C 
ATOM     11  O   UNL d   1      46.120 -13.119  44.354  0.00  0.00    -0.265 OA
BRANCH  10  12
ATOM     12  C   UNL d   1      45.187 -12.909  43.311  0.00  0.00     0.087 A 
ATOM     13  S   UNL d   1      44.427 -12.641  43.445  0.00  0.00    -0.082 SA
ATOM     14  C   UNL d   1      44.199 -12.132  42.808  0.00  0.00     0.036 A 
ATOM     15  C   UNL d   1      44.850 -12.108  42.290  0.00  0.00     0.008 A 
ATOM     16  C   UNL d   1      45.453 -12.566  42.574  0.00  0.00     0.012 A 
ENDBRANCH  10  12
ENDBRANCH   7   9
ENDBRANCH   1   7
BRANCH   2  17
ATOM     17  C   UNL d   1      46.151 -17.912  43.622  0.00  0.00     0.064 A 
ATOM     18  C   UNL d   1      46.189 -18.461  44.246  0.00  0.00     0.020 A 
ATOM     19  C   UNL d   1      46.250 -19.262  44.069  0.00  0.00     0.031 A 
ATOM     20  C   UNL d   1      46.273 -19.529  43.284  0.00  0.00     0.140 A 
ATOM     21  C   UNL d   1      46.235 -18.979  42.661  0.00  0.00     0.031 A 
ATOM     22  F   UNL d   1      46.334 -20.330  43.129  0.00  0.00    -0.204 F 
ATOM     23  C   UNL d   1      46.174 -18.167  42.838  0.00  0.00     0.020 A 
ENDBRANCH   2  17
TORSDOF 4
ENDMDL
MODEL 2
REMARK VINA RESULT:      24.2      1.019      1.239
REMARK  4 active torsions:
REMARK  status: ('A' for Active; 'I' for Inactive)
REMARK    1  A    between atoms: N_2  and  C_1 
REMARK    2  A    between atoms: N_4  and  C_1 
REMARK       I    between atoms: C_3  and  N_2 
REMARK    3  A    between atoms: C_6  and  C_3 
REMARK    4  A    between atoms: C_9  and  N_5 
ROOT
ATOM      1  N   UNL d   1      45.599 -16.124  43.803  0.00  0.00    -0.278 N 
ATOM      2  N   UNL d   1      45.955 -17.517  43.005  0.00  0.00    -0.301 N 
ATOM      3  C   UNL d   1      46.384 -16.298  43.598  0.00  0.00     0.101 A 
ATOM      4  C   UNL d   1      44.986 -16.647  43.611  0.00  0.00     0.101 A 
ATOM      5  C   UNL d   1      46.554 -16.999  43.197  0.00  0.00     0.100 A 
ATOM      6  C   UNL d   1      45.159 -17.345  43.211  0.00  0.00     0.100 A 
ENDROOT
BRANCH   1   7
ATOM      7  C   UNL d   1      45.437 -15.422  44.204  0.00  0.00     0.209 C 
ATOM      8  S   UNL d   1      45.113 -15.454  44.951  0.00  0.00    -0.038 SA
BRANCH   7   9
ATOM      9  N   UNL d   1      45.608 -14.712  43.835  0.00  0.00    -0.179 NA
ATOM     10  C   UNL d   1      45.133 -14.066  43.962  0.00  0.00     0.287 C 
ATOM     11  O   UNL d   1      44.497 -14.164  44.463  0.00  0.00    -0.265 OA
BRANCH  10  12
ATOM     12  C   UNL d   1      45.281 -13.354  43.609  0.00  0.00     0.087 A 
ATOM     13  S   UNL d   1      45.102 -13.176  42.832  0.00  0.00    -0.082 SA
ATOM     14  C   UNL d   1      45.340 -12.381  42.670  0.00  0.00     0.036 A 
ATOM     15  C   UNL d   1      45.668 -12.091  43.379  0.00  0.00     0.008 A 
ATOM     16  C   UNL d   1      45.642 -12.659  43.954  0.00  0.00     0.012 A 
ENDBRANCH  10  12
ENDBRANCH   7   9
ENDBRANCH   1   7
BRANCH   2  17
ATOM     17  C   UNL d   1      46.128 -18.216  42.604  0.00  0.00     0.064 A 
ATOM     18  C   UNL d   1      45.974 -18.950  42.965  0.00  0.00     0.020 A 
ATOM     19  C   UNL d   1      46.151 -19.641  42.556  0.00  0.00     0.031 A 
ATOM     20  C   UNL d   1      46.478 -19.618  41.794  0.00  0.00     0.140 A 
ATOM     21  C   UNL d   1      46.631 -18.885  41.434  0.00  0.00     0.031 A 
ATOM     22  F   UNL d   1      46.647 -20.317  41.404  0.00  0.00    -0.204 F 
ATOM     23  C   UNL d   1      46.453 -18.183  41.847  0.00  0.00     0.020 A 
ENDBRANCH   2  17
TORSDOF 4
ENDMDL
