MODEL 1
REMARK VINA RESULT:      18.6      0.000      0.000
REMARK  3 active torsions:
REMARK  status: ('A' for Active; 'I' for Inactive)
REMARK    1  A    between atoms: N_7  and  C_3 
REMARK       I    between atoms: C_8  and  N_7 
REMARK    2  A    between atoms: C_14  and  C_8 
REMARK    3  A    between atoms: C_15  and  C_14 
ROOT
ATOM      1  C   UNL d   1      13.094  13.569  -4.255  0.00  0.00     0.343 A 
ATOM      2  N   UNL d   1      13.108  13.272  -3.494  0.00  0.00    -0.241 N 
ATOM      3  C   UNL d   1      13.278  12.479  -3.363  0.00  0.00     0.159 A 
ATOM      4  N   UNL d   1      13.251  13.072  -4.895  0.00  0.00    -0.224 N 
ATOM      5  C   UNL d   1      13.435  11.982  -4.002  0.00  0.00     0.099 A 
ATOM      6  C   UNL d   1      13.424  12.272  -4.779  0.00  0.00     0.271 A 
ATOM      7  O   UNL d   1      12.923  14.366  -4.386  0.00  0.00    -0.245 OA
ATOM      8  O   UNL d   1      13.579  11.780  -5.412  0.00  0.00    -0.266 OA
ATOM      9  C   UNL d   1      12.951  13.769  -2.855  0.00  0.00     0.105 C 
ATOM     10  C   UNL d   1      13.237  13.372  -5.665  0.00  0.00     0.107 C 
ENDROOT
BRANCH   3  11
ATOM     11  N   UNL d   1      13.292  12.177  -2.593  0.00  0.00    -0.190 NA
ATOM     12  C   UNL d   1      14.009  12.082  -2.200  0.00  0.00     0.281 C 
ATOM     13  O   UNL d   1      14.715  12.288  -2.574  0.00  0.00    -0.265 OA
BRANCH  12  14
ATOM     14  C   UNL d   1      14.021  11.782  -1.434  0.00  0.00     0.063 C 
BRANCH  14  15
ATOM     15  C   UNL d   1      14.590  12.050  -0.900  0.00  0.00     0.005 C 
ATOM     16  C   UNL d   1      14.518  11.912  -0.107  0.00  0.00     0.000 C 
ENDBRANCH  14  15
ENDBRANCH  12  14
ENDBRANCH   3  11
TORSDOF 3
ENDMDL
