MODEL 1
REMARK VINA RESULT:      -5.8      0.000      0.000
REMARK  4 active torsions:
REMARK  status: ('A' for Active; 'I' for Inactive)
REMARK    1  A    between atoms: N_14  and  C_2 
REMARK       I    between atoms: C_9  and  N_11 
REMARK    2  A    between atoms: C_13  and  C_9 
REMARK    3  A    between atoms: C_10  and  C_17 
REMARK       I    between atoms: N_12  and  C_10 
REMARK    4  A    between atoms: C_30  and  N_14 
ROOT
ATOM      1  C   UNL d   1     -46.542  11.951  23.175  0.00  0.00     0.057 A 
ATOM      2  C   UNL d   1     -46.839  12.624  23.578  0.00  0.00     0.006 A 
ATOM      3  C   UNL d   1     -47.062  11.371  22.904  0.00  0.00     0.006 A 
ATOM      4  C   UNL d   1     -48.170  12.114  23.427  0.00  0.00     0.084 A 
ATOM      5  C   UNL d   1     -47.651  12.694  23.698  0.00  0.00     0.019 A 
ATOM      6  C   UNL d   1     -47.878  11.449  23.029  0.00  0.00     0.019 A 
ENDROOT
BRANCH   1   7
ATOM      7  C   UNL d   1     -45.726  11.850  23.038  0.00  0.00     0.265 C 
ATOM      8  N   UNL d   1     -45.316  12.370  22.541  0.00  0.00    -0.270 N 
ATOM      9  C   UNL d   1     -44.959  13.010  21.968  0.00  0.00     0.096 A 
ATOM     10  C   UNL d   1     -44.690  12.708  22.124  0.00  0.00     0.096 A 
ATOM     11  C   UNL d   1     -44.160  12.835  21.890  0.00  0.00     0.077 A 
ATOM     12  N   UNL d   1     -43.427  13.021  21.559  0.00  0.00    -0.171 NA
ATOM     13  C   UNL d   1     -42.618  12.887  21.448  0.00  0.00     0.267 C 
ATOM     14  C   UNL d   1     -43.897  12.542  22.040  0.00  0.00     0.077 A 
ATOM     15  O   UNL d   1     -42.249  12.260  21.821  0.00  0.00    -0.271 OA
ATOM     16  O   UNL d   1     -45.324  11.223  23.402  0.00  0.00    -0.267 OA
BRANCH  13  17
ATOM     17  C   UNL d   1     -42.189  13.390  20.959  0.00  0.00     0.151 A 
ATOM     18  O   UNL d   1     -42.067  13.294  20.158  0.00  0.00    -0.301 OA
ATOM     19  C   UNL d   1     -41.611  13.917  19.885  0.00  0.00     0.123 A 
ATOM     20  C   UNL d   1     -41.450  14.406  20.528  0.00  0.00     0.029 A 
ATOM     21  C   UNL d   1     -41.805  14.083  21.189  0.00  0.00     0.031 A 
ENDBRANCH  13  17
ENDBRANCH   1   7
BRANCH   4  22
ATOM     22  N   UNL d   1     -48.987  12.196  23.554  0.00  0.00    -0.221 NA
BRANCH  22  23
ATOM     23  C   UNL d   1     -49.423  12.745  23.110  0.00  0.00     0.194 A 
ATOM     24  S   UNL d   1     -49.672  13.466  23.380  0.00  0.00    -0.046 SA
ATOM     25  C   UNL d   1     -50.090  13.842  22.759  0.00  0.00     0.062 A 
ATOM     26  C   UNL d   1     -50.503  14.522  22.546  0.00  0.00     0.107 A 
ATOM     27  C   UNL d   1     -50.088  13.335  22.111  0.00  0.00     0.102 A 
ATOM     28  S   UNL d   1     -50.752  14.435  21.773  0.00  0.00     0.213 S 
ATOM     29  C   UNL d   1     -50.500  13.706  21.499  0.00  0.00     0.118 A 
ATOM     30  O   UNL d   1     -51.060  15.189  21.934  0.00  0.00    -0.217 OA
ATOM     31  O   UNL d   1     -51.064  14.477  21.004  0.00  0.00    -0.217 OA
ATOM     32  N   UNL d   1     -49.672  12.649  22.325  0.00  0.00    -0.220 NA
ENDBRANCH  22  23
ENDBRANCH   4  22
TORSDOF 4
ENDMDL
MODEL 2
REMARK VINA RESULT:      -5.4      1.841      3.171
REMARK  4 active torsions:
REMARK  status: ('A' for Active; 'I' for Inactive)
REMARK    1  A    between atoms: N_14  and  C_2 
REMARK       I    between atoms: C_9  and  N_11 
REMARK    2  A    between atoms: C_13  and  C_9 
REMARK    3  A    between atoms: C_10  and  C_17 
REMARK       I    between atoms: N_12  and  C_10 
REMARK    4  A    between atoms: C_30  and  N_14 
ROOT
ATOM      1  C   UNL d   1     -44.023  12.890  21.663  0.00  0.00     0.057 A 
ATOM      2  C   UNL d   1     -44.101  12.234  22.178  0.00  0.00     0.006 A 
ATOM      3  C   UNL d   1     -44.561  13.515  21.707  0.00  0.00     0.006 A 
ATOM      4  C   UNL d   1     -45.256  12.847  22.768  0.00  0.00     0.084 A 
ATOM      5  C   UNL d   1     -44.719  12.223  22.724  0.00  0.00     0.019 A 
ATOM      6  C   UNL d   1     -45.179  13.497  22.258  0.00  0.00     0.019 A 
ENDROOT
BRANCH   1   7
ATOM      7  C   UNL d   1     -43.410  12.932  21.100  0.00  0.00     0.265 C 
ATOM      8  N   UNL d   1     -42.769  13.444  21.214  0.00  0.00    -0.270 N 
ATOM      9  C   UNL d   1     -42.102  14.051  21.444  0.00  0.00     0.096 A 
ATOM     10  C   UNL d   1     -42.057  13.834  21.071  0.00  0.00     0.096 A 
ATOM     11  C   UNL d   1     -41.546  14.027  20.839  0.00  0.00     0.077 A 
ATOM     12  N   UNL d   1     -40.833  14.303  20.526  0.00  0.00    -0.171 NA
ATOM     13  C   UNL d   1     -40.245  14.315  19.944  0.00  0.00     0.267 C 
ATOM     14  C   UNL d   1     -41.499  13.817  20.477  0.00  0.00     0.077 A 
ATOM     15  O   UNL d   1     -40.306  13.836  19.286  0.00  0.00    -0.271 OA
ATOM     16  O   UNL d   1     -43.444  12.457  20.420  0.00  0.00    -0.267 OA
BRANCH  13  17
ATOM     17  C   UNL d   1     -39.599  14.816  20.035  0.00  0.00     0.151 A 
ATOM     18  O   UNL d   1     -38.951  14.683  20.513  0.00  0.00    -0.301 OA
ATOM     19  C   UNL d   1     -38.437  15.317  20.441  0.00  0.00     0.123 A 
ATOM     20  C   UNL d   1     -38.773  15.849  19.910  0.00  0.00     0.029 A 
ATOM     21  C   UNL d   1     -39.488  15.543  19.659  0.00  0.00     0.031 A 
ENDBRANCH  13  17
ENDBRANCH   1   7
BRANCH   4  22
ATOM     22  N   UNL d   1     -45.874  12.825  23.322  0.00  0.00    -0.221 NA
BRANCH  22  23
ATOM     23  C   UNL d   1     -46.639  12.612  23.082  0.00  0.00     0.194 A 
ATOM     24  S   UNL d   1     -47.057  11.983  23.372  0.00  0.00    -0.046 SA
ATOM     25  C   UNL d   1     -47.799  11.967  22.983  0.00  0.00     0.062 A 
ATOM     26  C   UNL d   1     -48.515  11.565  22.924  0.00  0.00     0.107 A 
ATOM     27  C   UNL d   1     -47.820  12.597  22.455  0.00  0.00     0.102 A 
ATOM     28  S   UNL d   1     -48.974  11.944  22.365  0.00  0.00     0.213 S 
ATOM     29  C   UNL d   1     -48.551  12.581  22.071  0.00  0.00     0.118 A 
ATOM     30  O   UNL d   1     -49.495  11.336  22.582  0.00  0.00    -0.217 OA
ATOM     31  O   UNL d   1     -49.537  12.230  21.826  0.00  0.00    -0.217 OA
ATOM     32  N   UNL d   1     -47.097  13.003  22.513  0.00  0.00    -0.220 NA
ENDBRANCH  22  23
ENDBRANCH   4  22
TORSDOF 4
ENDMDL
MODEL 3
REMARK VINA RESULT:      -5.1      3.285      7.428
REMARK  4 active torsions:
REMARK  status: ('A' for Active; 'I' for Inactive)
REMARK    1  A    between atoms: N_14  and  C_2 
REMARK       I    between atoms: C_9  and  N_11 
REMARK    2  A    between atoms: C_13  and  C_9 
REMARK    3  A    between atoms: C_10  and  C_17 
REMARK       I    between atoms: N_12  and  C_10 
REMARK    4  A    between atoms: C_30  and  N_14 
ROOT
ATOM      1  C   UNL d   1     -42.741  13.311  21.433  0.00  0.00     0.057 A 
ATOM      2  C   UNL d   1     -42.755  14.145  21.350  0.00  0.00     0.006 A 
ATOM      3  C   UNL d   1     -42.060  12.888  21.238  0.00  0.00     0.006 A 
ATOM      4  C   UNL d   1     -41.401  14.109  20.878  0.00  0.00     0.084 A 
ATOM      5  C   UNL d   1     -42.082  14.531  21.072  0.00  0.00     0.019 A 
ATOM      6  C   UNL d   1     -41.387  13.284  20.960  0.00  0.00     0.019 A 
ENDROOT
BRANCH   1   7
ATOM      7  C   UNL d   1     -43.405  12.890  21.711  0.00  0.00     0.265 C 
ATOM      8  N   UNL d   1     -44.142  13.263  21.777  0.00  0.00    -0.270 N 
ATOM      9  C   UNL d   1     -44.915  13.780  21.811  0.00  0.00     0.096 A 
ATOM     10  C   UNL d   1     -44.944  13.366  21.937  0.00  0.00     0.096 A 
ATOM     11  C   UNL d   1     -45.511  13.290  22.093  0.00  0.00     0.077 A 
ATOM     12  N   UNL d   1     -46.303  13.195  22.307  0.00  0.00    -0.171 NA
ATOM     13  C   UNL d   1     -46.937  12.743  22.586  0.00  0.00     0.267 C 
ATOM     14  C   UNL d   1     -45.542  12.888  22.215  0.00  0.00     0.077 A 
ATOM     15  O   UNL d   1     -46.828  11.959  22.786  0.00  0.00    -0.271 OA
ATOM     16  O   UNL d   1     -43.326  12.092  21.922  0.00  0.00    -0.267 OA
BRANCH  13  17
ATOM     17  C   UNL d   1     -47.679  13.092  22.661  0.00  0.00     0.151 A 
ATOM     18  O   UNL d   1     -47.901  13.633  23.228  0.00  0.00    -0.301 OA
ATOM     19  C   UNL d   1     -48.685  13.839  23.104  0.00  0.00     0.123 A 
ATOM     20  C   UNL d   1     -48.949  13.416  22.449  0.00  0.00     0.029 A 
ATOM     21  C   UNL d   1     -48.332  12.956  22.174  0.00  0.00     0.031 A 
ENDBRANCH  13  17
ENDBRANCH   1   7
BRANCH   4  22
ATOM     22  N   UNL d   1     -40.729  14.509  20.599  0.00  0.00    -0.221 NA
BRANCH  22  23
ATOM     23  C   UNL d   1     -40.652  14.678  19.790  0.00  0.00     0.194 A 
ATOM     24  S   UNL d   1     -40.637  15.422  19.472  0.00  0.00    -0.046 SA
ATOM     25  C   UNL d   1     -40.552  15.345  18.643  0.00  0.00     0.062 A 
ATOM     26  C   UNL d   1     -40.491  15.760  17.934  0.00  0.00     0.107 A 
ATOM     27  C   UNL d   1     -40.518  14.542  18.467  0.00  0.00     0.102 A 
ATOM     28  S   UNL d   1     -40.419  15.218  17.328  0.00  0.00     0.213 S 
ATOM     29  C   UNL d   1     -40.434  14.465  17.649  0.00  0.00     0.118 A 
ATOM     30  O   UNL d   1     -40.390  15.922  16.889  0.00  0.00    -0.217 OA
ATOM     31  O   UNL d   1     -40.339  14.781  16.625  0.00  0.00    -0.217 OA
ATOM     32  N   UNL d   1     -40.579  14.122  19.181  0.00  0.00    -0.220 NA
ENDBRANCH  22  23
ENDBRANCH   4  22
TORSDOF 4
ENDMDL
MODEL 4
REMARK VINA RESULT:      -4.0      3.181      7.528
REMARK  4 active torsions:
REMARK  status: ('A' for Active; 'I' for Inactive)
REMARK    1  A    between atoms: N_14  and  C_2 
REMARK       I    between atoms: C_9  and  N_11 
REMARK    2  A    between atoms: C_13  and  C_9 
REMARK    3  A    between atoms: C_10  and  C_17 
REMARK       I    between atoms: N_12  and  C_10 
REMARK    4  A    between atoms: C_30  and  N_14 
ROOT
ATOM      1  C   UNL d   1     -43.470  12.958  21.696  0.00  0.00     0.057 A 
ATOM      2  C   UNL d   1     -43.501  13.777  21.523  0.00  0.00     0.006 A 
ATOM      3  C   UNL d   1     -42.822  12.509  21.451  0.00  0.00     0.006 A 
ATOM      4  C   UNL d   1     -42.232  13.676  20.864  0.00  0.00     0.084 A 
ATOM      5  C   UNL d   1     -42.879  14.124  21.108  0.00  0.00     0.019 A 
ATOM      6  C   UNL d   1     -42.201  12.865  21.035  0.00  0.00     0.019 A 
ENDROOT
BRANCH   1   7
ATOM      7  C   UNL d   1     -44.083  12.577  22.113  0.00  0.00     0.265 C 
ATOM      8  N   UNL d   1     -44.845  12.903  22.132  0.00  0.00    -0.270 N 
ATOM      9  C   UNL d   1     -45.656  13.356  22.084  0.00  0.00     0.096 A 
ATOM     10  C   UNL d   1     -45.644  12.987  22.312  0.00  0.00     0.096 A 
ATOM     11  C   UNL d   1     -46.196  12.914  22.519  0.00  0.00     0.077 A 
ATOM     12  N   UNL d   1     -46.967  12.823  22.801  0.00  0.00    -0.171 NA
ATOM     13  C   UNL d   1     -47.547  12.415  23.226  0.00  0.00     0.267 C 
ATOM     14  C   UNL d   1     -46.187  12.556  22.740  0.00  0.00     0.077 A 
ATOM     15  O   UNL d   1     -47.364  11.717  23.609  0.00  0.00    -0.271 OA
ATOM     16  O   UNL d   1     -43.928  11.867  22.512  0.00  0.00    -0.267 OA
BRANCH  13  17
ATOM     17  C   UNL d   1     -48.311  12.719  23.259  0.00  0.00     0.151 A 
ATOM     18  O   UNL d   1     -48.514  13.507  23.306  0.00  0.00    -0.301 OA
ATOM     19  C   UNL d   1     -49.331  13.568  23.327  0.00  0.00     0.123 A 
ATOM     20  C   UNL d   1     -49.636  12.804  23.292  0.00  0.00     0.029 A 
ATOM     21  C   UNL d   1     -49.011  12.280  23.250  0.00  0.00     0.031 A 
ENDBRANCH  13  17
ENDBRANCH   1   7
BRANCH   4  22
ATOM     22  N   UNL d   1     -41.611  14.036  20.447  0.00  0.00    -0.221 NA
BRANCH  22  23
ATOM     23  C   UNL d   1     -40.939  14.307  20.853  0.00  0.00     0.194 A 
ATOM     24  S   UNL d   1     -40.718  15.082  20.917  0.00  0.00    -0.046 SA
ATOM     25  C   UNL d   1     -40.014  15.112  21.369  0.00  0.00     0.062 A 
ATOM     26  C   UNL d   1     -39.443  15.613  21.687  0.00  0.00     0.107 A 
ATOM     27  C   UNL d   1     -39.816  14.341  21.577  0.00  0.00     0.102 A 
ATOM     28  S   UNL d   1     -38.898  15.155  22.087  0.00  0.00     0.213 S 
ATOM     29  C   UNL d   1     -39.122  14.370  22.024  0.00  0.00     0.118 A 
ATOM     30  O   UNL d   1     -38.572  15.907  22.221  0.00  0.00    -0.217 OA
ATOM     31  O   UNL d   1     -38.279  14.813  22.523  0.00  0.00    -0.217 OA
ATOM     32  N   UNL d   1     -40.391  13.834  21.257  0.00  0.00    -0.220 NA
ENDBRANCH  22  23
ENDBRANCH   4  22
TORSDOF 4
ENDMDL
MODEL 5
REMARK VINA RESULT:      -3.9      2.614      7.067
REMARK  4 active torsions:
REMARK  status: ('A' for Active; 'I' for Inactive)
REMARK    1  A    between atoms: N_14  and  C_2 
REMARK       I    between atoms: C_9  and  N_11 
REMARK    2  A    between atoms: C_13  and  C_9 
REMARK    3  A    between atoms: C_10  and  C_17 
REMARK       I    between atoms: N_12  and  C_10 
REMARK    4  A    between atoms: C_30  and  N_14 
ROOT
ATOM      1  C   UNL d   1     -44.880  12.845  22.337  0.00  0.00     0.057 A 
ATOM      2  C   UNL d   1     -44.382  12.193  22.505  0.00  0.00     0.006 A 
ATOM      3  C   UNL d   1     -44.664  13.390  21.756  0.00  0.00     0.006 A 
ATOM      4  C   UNL d   1     -43.463  12.649  21.504  0.00  0.00     0.084 A 
ATOM      5  C   UNL d   1     -43.680  12.105  22.084  0.00  0.00     0.019 A 
ATOM      6  C   UNL d   1     -43.956  13.296  21.337  0.00  0.00     0.019 A 
ENDROOT
BRANCH   1   7
ATOM      7  C   UNL d   1     -45.598  12.963  22.744  0.00  0.00     0.265 C 
ATOM      8  N   UNL d   1     -46.309  13.049  22.328  0.00  0.00    -0.270 N 
ATOM      9  C   UNL d   1     -47.042  13.132  21.761  0.00  0.00     0.096 A 
ATOM     10  C   UNL d   1     -47.114  13.158  22.188  0.00  0.00     0.096 A 
ATOM     11  C   UNL d   1     -47.698  13.244  22.243  0.00  0.00     0.077 A 
ATOM     12  N   UNL d   1     -48.513  13.362  22.307  0.00  0.00    -0.171 NA
ATOM     13  C   UNL d   1     -49.204  13.477  22.748  0.00  0.00     0.267 C 
ATOM     14  C   UNL d   1     -47.771  13.269  22.657  0.00  0.00     0.077 A 
ATOM     15  O   UNL d   1     -49.173  13.502  23.564  0.00  0.00    -0.271 OA
ATOM     16  O   UNL d   1     -45.599  12.993  23.573  0.00  0.00    -0.267 OA
BRANCH  13  17
ATOM     17  C   UNL d   1     -49.922  13.565  22.357  0.00  0.00     0.151 A 
ATOM     18  O   UNL d   1     -50.279  14.271  22.160  0.00  0.00    -0.301 OA
ATOM     19  C   UNL d   1     -50.985  14.111  21.776  0.00  0.00     0.123 A 
ATOM     20  C   UNL d   1     -51.064  13.292  21.736  0.00  0.00     0.029 A 
ATOM     21  C   UNL d   1     -50.411  12.954  22.093  0.00  0.00     0.031 A 
ENDBRANCH  13  17
ENDBRANCH   1   7
BRANCH   4  22
ATOM     22  N   UNL d   1     -42.752  12.551  21.086  0.00  0.00    -0.221 NA
BRANCH  22  23
ATOM     23  C   UNL d   1     -42.177  13.149  21.099  0.00  0.00     0.194 A 
ATOM     24  S   UNL d   1     -42.044  13.677  20.502  0.00  0.00    -0.046 SA
ATOM     25  C   UNL d   1     -41.419  14.181  20.739  0.00  0.00     0.062 A 
ATOM     26  C   UNL d   1     -40.951  14.821  20.513  0.00  0.00     0.107 A 
ATOM     27  C   UNL d   1     -41.178  13.946  21.490  0.00  0.00     0.102 A 
ATOM     28  S   UNL d   1     -40.427  14.978  21.119  0.00  0.00     0.213 S 
ATOM     29  C   UNL d   1     -40.561  14.443  21.724  0.00  0.00     0.118 A 
ATOM     30  O   UNL d   1     -40.199  15.568  20.581  0.00  0.00    -0.217 OA
ATOM     31  O   UNL d   1     -39.846  15.244  21.650  0.00  0.00    -0.217 OA
ATOM     32  N   UNL d   1     -41.648  13.302  21.719  0.00  0.00    -0.220 NA
ENDBRANCH  22  23
ENDBRANCH   4  22
TORSDOF 4
ENDMDL
MODEL 6
REMARK VINA RESULT:      -3.2      2.906      5.261
REMARK  4 active torsions:
REMARK  status: ('A' for Active; 'I' for Inactive)
REMARK    1  A    between atoms: N_14  and  C_2 
REMARK       I    between atoms: C_9  and  N_11 
REMARK    2  A    between atoms: C_13  and  C_9 
REMARK    3  A    between atoms: C_10  and  C_17 
REMARK       I    between atoms: N_12  and  C_10 
REMARK    4  A    between atoms: C_30  and  N_14 
ROOT
ATOM      1  C   UNL d   1     -41.852  13.687  20.994  0.00  0.00     0.057 A 
ATOM      2  C   UNL d   1     -41.794  13.219  21.687  0.00  0.00     0.006 A 
ATOM      3  C   UNL d   1     -42.538  13.661  20.537  0.00  0.00     0.006 A 
ATOM      4  C   UNL d   1     -43.112  12.712  21.444  0.00  0.00     0.084 A 
ATOM      5  C   UNL d   1     -42.427  12.738  21.901  0.00  0.00     0.019 A 
ATOM      6  C   UNL d   1     -43.171  13.175  20.758  0.00  0.00     0.019 A 
ENDROOT
BRANCH   1   7
ATOM      7  C   UNL d   1     -41.230  14.185  20.750  0.00  0.00     0.265 C 
ATOM      8  N   UNL d   1     -40.968  14.175  19.964  0.00  0.00    -0.270 N 
ATOM      9  C   UNL d   1     -40.757  14.082  19.063  0.00  0.00     0.096 A 
ATOM     10  C   UNL d   1     -40.528  14.368  19.295  0.00  0.00     0.096 A 
ATOM     11  C   UNL d   1     -40.140  14.604  18.912  0.00  0.00     0.077 A 
ATOM     12  N   UNL d   1     -39.606  14.925  18.370  0.00  0.00    -0.171 NA
ATOM     13  C   UNL d   1     -38.986  15.433  18.168  0.00  0.00     0.267 C 
ATOM     14  C   UNL d   1     -39.916  14.882  19.134  0.00  0.00     0.077 A 
ATOM     15  O   UNL d   1     -38.652  15.922  18.731  0.00  0.00    -0.271 OA
ATOM     16  O   UNL d   1     -40.871  14.692  21.299  0.00  0.00    -0.267 OA
BRANCH  13  17
ATOM     17  C   UNL d   1     -38.708  15.442  17.393  0.00  0.00     0.151 A 
ATOM     18  O   UNL d   1     -39.095  15.144  16.740  0.00  0.00    -0.301 OA
ATOM     19  C   UNL d   1     -38.627  15.265  16.079  0.00  0.00     0.123 A 
ATOM     20  C   UNL d   1     -37.940  15.644  16.329  0.00  0.00     0.029 A 
ATOM     21  C   UNL d   1     -37.988  15.753  17.137  0.00  0.00     0.031 A 
ENDBRANCH  13  17
ENDBRANCH   1   7
BRANCH   4  22
ATOM     22  N   UNL d   1     -43.744  12.223  21.670  0.00  0.00    -0.221 NA
BRANCH  22  23
ATOM     23  C   UNL d   1     -44.429  12.555  22.002  0.00  0.00     0.194 A 
ATOM     24  S   UNL d   1     -44.891  12.200  22.562  0.00  0.00    -0.046 SA
ATOM     25  C   UNL d   1     -45.521  12.720  22.743  0.00  0.00     0.062 A 
ATOM     26  C   UNL d   1     -46.197  12.820  23.204  0.00  0.00     0.107 A 
ATOM     27  C   UNL d   1     -45.430  13.395  22.282  0.00  0.00     0.102 A 
ATOM     28  S   UNL d   1     -46.519  13.549  23.028  0.00  0.00     0.213 S 
ATOM     29  C   UNL d   1     -46.052  13.910  22.460  0.00  0.00     0.118 A 
ATOM     30  O   UNL d   1     -47.065  13.290  23.596  0.00  0.00    -0.217 OA
ATOM     31  O   UNL d   1     -46.947  14.256  22.945  0.00  0.00    -0.217 OA
ATOM     32  N   UNL d   1     -44.749  13.297  21.817  0.00  0.00    -0.220 NA
ENDBRANCH  22  23
ENDBRANCH   4  22
TORSDOF 4
ENDMDL
MODEL 7
REMARK VINA RESULT:      -3.2      4.304      8.739
REMARK  4 active torsions:
REMARK  status: ('A' for Active; 'I' for Inactive)
REMARK    1  A    between atoms: N_14  and  C_2 
REMARK       I    between atoms: C_9  and  N_11 
REMARK    2  A    between atoms: C_13  and  C_9 
REMARK    3  A    between atoms: C_10  and  C_17 
REMARK       I    between atoms: N_12  and  C_10 
REMARK    4  A    between atoms: C_30  and  N_14 
ROOT
ATOM      1  C   UNL d   1     -41.165  14.270  20.368  0.00  0.00     0.057 A 
ATOM      2  C   UNL d   1     -41.109  13.905  19.616  0.00  0.00     0.006 A 
ATOM      3  C   UNL d   1     -40.481  14.506  20.764  0.00  0.00     0.006 A 
ATOM      4  C   UNL d   1     -39.681  14.022  19.678  0.00  0.00     0.084 A 
ATOM      5  C   UNL d   1     -40.365  13.787  19.282  0.00  0.00     0.019 A 
ATOM      6  C   UNL d   1     -39.737  14.383  20.423  0.00  0.00     0.019 A 
ENDROOT
BRANCH   1   7
ATOM      7  C   UNL d   1     -41.902  14.405  20.733  0.00  0.00     0.265 C 
ATOM      8  N   UNL d   1     -42.359  13.769  21.004  0.00  0.00    -0.270 N 
ATOM      9  C   UNL d   1     -42.784  12.985  21.269  0.00  0.00     0.096 A 
ATOM     10  C   UNL d   1     -42.987  13.360  21.348  0.00  0.00     0.096 A 
ATOM     11  C   UNL d   1     -43.495  13.210  21.615  0.00  0.00     0.077 A 
ATOM     12  N   UNL d   1     -44.199  12.989  21.986  0.00  0.00    -0.171 NA
ATOM     13  C   UNL d   1     -44.925  13.163  22.342  0.00  0.00     0.267 C 
ATOM     14  C   UNL d   1     -43.694  13.573  21.693  0.00  0.00     0.077 A 
ATOM     15  O   UNL d   1     -45.171  13.939  22.418  0.00  0.00    -0.271 OA
ATOM     16  O   UNL d   1     -42.180  15.181  20.825  0.00  0.00    -0.267 OA
BRANCH  13  17
ATOM     17  C   UNL d   1     -45.396  12.549  22.620  0.00  0.00     0.151 A 
ATOM     18  O   UNL d   1     -45.160  11.949  23.118  0.00  0.00    -0.301 OA
ATOM     19  C   UNL d   1     -45.798  11.454  23.257  0.00  0.00     0.123 A 
ATOM     20  C   UNL d   1     -46.439  11.755  22.837  0.00  0.00     0.029 A 
ATOM     21  C   UNL d   1     -46.194  12.429  22.444  0.00  0.00     0.031 A 
ENDBRANCH  13  17
ENDBRANCH   1   7
BRANCH   4  22
ATOM     22  N   UNL d   1     -38.937  13.897  19.332  0.00  0.00    -0.221 NA
BRANCH  22  23
ATOM     23  C   UNL d   1     -38.769  14.212  18.583  0.00  0.00     0.194 A 
ATOM     24  S   UNL d   1     -38.694  13.778  17.904  0.00  0.00    -0.046 SA
ATOM     25  C   UNL d   1     -38.526  14.308  17.278  0.00  0.00     0.062 A 
ATOM     26  C   UNL d   1     -38.375  14.364  16.470  0.00  0.00     0.107 A 
ATOM     27  C   UNL d   1     -38.501  15.068  17.592  0.00  0.00     0.102 A 
ATOM     28  S   UNL d   1     -38.259  15.151  16.288  0.00  0.00     0.213 S 
ATOM     29  C   UNL d   1     -38.335  15.592  16.974  0.00  0.00     0.118 A 
ATOM     30  O   UNL d   1     -38.160  14.819  15.534  0.00  0.00    -0.217 OA
ATOM     31  O   UNL d   1     -38.122  15.906  15.968  0.00  0.00    -0.217 OA
ATOM     32  N   UNL d   1     -38.653  15.013  18.406  0.00  0.00    -0.220 NA
ENDBRANCH  22  23
ENDBRANCH   4  22
TORSDOF 4
ENDMDL
MODEL 8
REMARK VINA RESULT:      -3.1      3.519      7.876
REMARK  4 active torsions:
REMARK  status: ('A' for Active; 'I' for Inactive)
REMARK    1  A    between atoms: N_14  and  C_2 
REMARK       I    between atoms: C_9  and  N_11 
REMARK    2  A    between atoms: C_13  and  C_9 
REMARK    3  A    between atoms: C_10  and  C_17 
REMARK       I    between atoms: N_12  and  C_10 
REMARK    4  A    between atoms: C_30  and  N_14 
ROOT
ATOM      1  C   UNL d   1     -42.373  13.385  21.277  0.00  0.00     0.057 A 
ATOM      2  C   UNL d   1     -41.584  13.236  21.517  0.00  0.00     0.006 A 
ATOM      3  C   UNL d   1     -42.533  13.991  20.740  0.00  0.00     0.006 A 
ATOM      4  C   UNL d   1     -41.137  14.305  20.673  0.00  0.00     0.084 A 
ATOM      5  C   UNL d   1     -40.977  13.700  21.210  0.00  0.00     0.019 A 
ATOM      6  C   UNL d   1     -41.917  14.453  20.436  0.00  0.00     0.019 A 
ENDROOT
BRANCH   1   7
ATOM      7  C   UNL d   1     -43.010  12.934  21.569  0.00  0.00     0.265 C 
ATOM      8  N   UNL d   1     -43.747  13.286  21.706  0.00  0.00    -0.270 N 
ATOM      9  C   UNL d   1     -44.525  13.784  21.822  0.00  0.00     0.096 A 
ATOM     10  C   UNL d   1     -44.539  13.362  21.923  0.00  0.00     0.096 A 
ATOM     11  C   UNL d   1     -45.094  13.265  22.110  0.00  0.00     0.077 A 
ATOM     12  N   UNL d   1     -45.869  13.141  22.367  0.00  0.00    -0.171 NA
ATOM     13  C   UNL d   1     -46.476  12.659  22.657  0.00  0.00     0.267 C 
ATOM     14  C   UNL d   1     -45.110  12.856  22.208  0.00  0.00     0.077 A 
ATOM     15  O   UNL d   1     -46.340  11.866  22.799  0.00  0.00    -0.271 OA
ATOM     16  O   UNL d   1     -42.905  12.126  21.723  0.00  0.00    -0.267 OA
BRANCH  13  17
ATOM     17  C   UNL d   1     -47.216  12.987  22.801  0.00  0.00     0.151 A 
ATOM     18  O   UNL d   1     -47.369  13.765  22.992  0.00  0.00    -0.301 OA
ATOM     19  C   UNL d   1     -48.178  13.857  23.089  0.00  0.00     0.123 A 
ATOM     20  C   UNL d   1     -48.528  13.124  22.956  0.00  0.00     0.029 A 
ATOM     21  C   UNL d   1     -47.939  12.587  22.778  0.00  0.00     0.031 A 
ENDBRANCH  13  17
ENDBRANCH   1   7
BRANCH   4  22
ATOM     22  N   UNL d   1     -40.516  14.767  20.370  0.00  0.00    -0.221 NA
BRANCH  22  23
ATOM     23  C   UNL d   1     -40.164  14.565  19.646  0.00  0.00     0.194 A 
ATOM     24  S   UNL d   1     -39.820  15.091  19.137  0.00  0.00    -0.046 SA
ATOM     25  C   UNL d   1     -39.535  14.660  18.478  0.00  0.00     0.062 A 
ATOM     26  C   UNL d   1     -39.146  14.722  17.754  0.00  0.00     0.107 A 
ATOM     27  C   UNL d   1     -39.714  13.866  18.600  0.00  0.00     0.102 A 
ATOM     28  S   UNL d   1     -39.085  13.974  17.434  0.00  0.00     0.213 S 
ATOM     29  C   UNL d   1     -39.432  13.441  17.950  0.00  0.00     0.118 A 
ATOM     30  O   UNL d   1     -38.708  14.411  16.838  0.00  0.00    -0.217 OA
ATOM     31  O   UNL d   1     -38.956  13.277  17.000  0.00  0.00    -0.217 OA
ATOM     32  N   UNL d   1     -40.106  13.802  19.329  0.00  0.00    -0.220 NA
ENDBRANCH  22  23
ENDBRANCH   4  22
TORSDOF 4
ENDMDL
