MODEL 1
REMARK VINA RESULT:      50.6      0.000      0.000
REMARK  3 active torsions:
REMARK  status: ('A' for Active; 'I' for Inactive)
REMARK    1  A    between atoms: S_8  and  C_1 
REMARK       I    between atoms: N_4  and  C_5 
REMARK    2  A    between atoms: C_5  and  C_9 
REMARK    3  A    between atoms: C_9  and  S_8 
ROOT
ATOM      1  S   UNL d   1      60.182  49.463  51.113  0.00  0.00    -0.056 SA
ENDROOT
BRANCH   1   2
ATOM      2  C   UNL d   1      60.610  48.835  50.818  0.00  0.00     0.141 A 
ATOM      3  N   UNL d   1      61.141  48.858  50.191  0.00  0.00    -0.232 NA
ATOM      4  C   UNL d   1      61.447  48.105  50.080  0.00  0.00     0.088 A 
ATOM      5  C   UNL d   1      61.992  47.809  49.540  0.00  0.00     0.020 A 
ATOM      6  C   UNL d   1      61.099  47.599  50.650  0.00  0.00     0.049 A 
ATOM      7  C   UNL d   1      62.193  46.993  49.572  0.00  0.00     0.002 A 
ATOM      8  C   UNL d   1      61.860  46.508  50.119  0.00  0.00     0.001 A 
ATOM      9  C   UNL d   1      61.303  46.806  50.671  0.00  0.00     0.008 A 
ATOM     10  S   UNL d   1      60.591  48.056  51.094  0.00  0.00    -0.060 SA
ENDBRANCH   1   2
BRANCH   1  11
ATOM     11  C   UNL d   1      59.487  49.702  50.743  0.00  0.00     0.098 C 
BRANCH  11  12
ATOM     12  C   UNL d   1      58.754  49.704  51.151  0.00  0.00     0.271 C 
ATOM     13  N   UNL d   1      58.025  49.705  50.730  0.00  0.00    -0.272 N 
ATOM     14  C   UNL d   1      57.318  49.707  51.140  0.00  0.00     0.083 A 
ATOM     15  C   UNL d   1      58.037  49.703  49.916  0.00  0.00     0.083 A 
ATOM     16  C   UNL d   1      56.615  49.708  50.741  0.00  0.00     0.019 A 
ATOM     17  C   UNL d   1      56.623  49.706  49.897  0.00  0.00     0.003 A 
ATOM     18  C   UNL d   1      57.311  49.703  49.498  0.00  0.00     0.019 A 
ATOM     19  O   UNL d   1      58.773  49.706  51.978  0.00  0.00    -0.266 OA
ENDBRANCH  11  12
ENDBRANCH   1  11
TORSDOF 3
ENDMDL
