MODEL 1
REMARK VINA RESULT:      33.9      0.000      0.000
REMARK  7 active torsions:
REMARK  status: ('A' for Active; 'I' for Inactive)
REMARK    1  A    between atoms: N_8  and  C_1 
REMARK    2  A    between atoms: C_14  and  C_2 
REMARK    3  A    between atoms: S_3  and  C_16 
REMARK    4  A    between atoms: N_7  and  S_3 
REMARK       I    between atoms: C_12  and  N_8 
REMARK       I    between atoms: C_13  and  N_11 
REMARK    5  A    between atoms: C_22  and  C_12 
REMARK    6  A    between atoms: O_33  and  C_13 
REMARK    7  A    between atoms: C_38  and  O_33 
ROOT
ATOM      1  C   UNL d   1      32.288  20.891 -19.847  0.00  0.00     0.104 A 
ATOM      2  C   UNL d   1      32.216  19.910 -21.162  0.00  0.00     0.056 A 
ATOM      3  C   UNL d   1      31.622  20.907 -20.336  0.00  0.00     0.013 A 
ATOM      4  C   UNL d   1      32.918  20.386 -20.011  0.00  0.00     0.013 A 
ATOM      5  C   UNL d   1      31.585  20.415 -20.996  0.00  0.00     0.005 A 
ATOM      6  C   UNL d   1      32.879  19.893 -20.676  0.00  0.00     0.005 A 
ENDROOT
BRANCH   2   7
ATOM      7  C   UNL d   1      32.184  19.416 -21.822  0.00  0.00     0.258 C 
ATOM      8  N   UNL d   1      32.234  18.590 -21.728  0.00  0.00    -0.316 N 
ATOM      9  H   UNL d   1      32.279  18.774 -21.107  0.00  0.00     0.169 HD
ATOM     10  O   UNL d   1      32.103  19.729 -22.584  0.00  0.00    -0.267 OA
BRANCH   8  11
ATOM     11  C   UNL d   1      32.202  18.094 -22.389  0.00  0.00     0.094 A 
ATOM     12  C   UNL d   1      31.700  17.453 -22.483  0.00  0.00     0.081 A 
ATOM     13  C   UNL d   1      31.846  17.107 -23.221  0.00  0.00     0.008 A 
ATOM     14  C   UNL d   1      31.513  16.460 -23.603  0.00  0.00    -0.004 A 
ATOM     15  C   UNL d   1      32.443  17.537 -23.585  0.00  0.00     0.028 A 
ATOM     16  C   UNL d   1      31.779  16.245 -24.350  0.00  0.00     0.099 A 
ATOM     17  C   UNL d   1      31.250  15.605 -24.399  0.00  0.00     0.029 C 
ATOM     18  C   UNL d   1      31.917  15.891 -25.086  0.00  0.00     0.029 C 
ATOM     19  N   UNL d   1      32.375  16.667 -24.724  0.00  0.00    -0.294 NA
ATOM     20  C   UNL d   1      32.710  17.321 -24.336  0.00  0.00     0.104 A 
ATOM     21  C   UNL d   1      33.240  17.959 -24.290  0.00  0.00     0.029 C 
ATOM     22  C   UNL d   1      33.004  17.128 -25.097  0.00  0.00     0.029 C 
ATOM     23  S   UNL d   1      32.670  18.153 -23.074  0.00  0.00    -0.072 SA
BRANCH  12  24
ATOM     24  C   UNL d   1      31.140  17.189 -21.942  0.00  0.00     0.299 C 
ATOM     25  O   UNL d   1      30.348  17.252 -22.117  0.00  0.00    -0.264 OA
ATOM     26  N   UNL d   1      31.382  16.869 -21.238  0.00  0.00    -0.102 N 
ENDBRANCH  12  24
ENDBRANCH   8  11
ENDBRANCH   2   7
BRANCH   1  27
ATOM     27  S   UNL d   1      32.322  21.391 -19.177  0.00  0.00     0.271 S 
ATOM     28  O   UNL d   1      31.624  21.749 -19.452  0.00  0.00    -0.200 OA
ATOM     29  O   UNL d   1      33.014  21.028 -18.914  0.00  0.00    -0.200 OA
BRANCH  27  30
ATOM     30  N   UNL d   1      32.356  21.880 -18.523  0.00  0.00    -0.226 N 
ATOM     31  C   UNL d   1      31.674  22.233 -18.228  0.00  0.00     0.111 A 
ATOM     32  C   UNL d   1      31.724  22.723 -17.567  0.00  0.00     0.105 A 
ATOM     33  N   UNL d   1      32.451  22.862 -17.200  0.00  0.00    -0.248 N 
ATOM     34  C   UNL d   1      33.130  22.505 -17.500  0.00  0.00     0.105 A 
ATOM     35  C   UNL d   1      32.494  23.349 -16.546  0.00  0.00     0.378 C 
ATOM     36  C   UNL d   1      33.079  22.018 -18.157  0.00  0.00     0.111 A 
ATOM     37  O   UNL d   1      31.813  23.702 -16.251  0.00  0.00    -0.237 OA
BRANCH  35  38
ATOM     38  O   UNL d   1      33.214  23.484 -16.186  0.00  0.00    -0.257 OA
BRANCH  38  39
ATOM     39  C   UNL d   1      33.240  23.651 -15.386  0.00  0.00     0.128 C 
ATOM     40  C   UNL d   1      33.240  23.031 -14.837  0.00  0.00     0.029 C 
ENDBRANCH  38  39
ENDBRANCH  35  38
ENDBRANCH  27  30
ENDBRANCH   1  27
TORSDOF 7
ENDMDL
