MODEL 1
REMARK VINA RESULT:      -8.4      0.000      0.000
REMARK  6 active torsions:
REMARK  status: ('A' for Active; 'I' for Inactive)
REMARK    1  A    between atoms: C_7  and  C_1 
REMARK       I    between atoms: C_2  and  N_4 
REMARK    2  A    between atoms: C_10  and  C_2 
REMARK    3  A    between atoms: N_4  and  C_3 
REMARK    4  A    between atoms: O_20  and  C_5 
REMARK    5  A    between atoms: O_21  and  C_7 
REMARK    6  A    between atoms: C_11  and  C_12 
ROOT
ATOM      1  C   UNL d   1      53.104  34.441  54.378  0.00  0.00     0.086 A 
ATOM      2  C   UNL d   1      53.009  32.972  53.613  0.00  0.00     0.148 A 
ATOM      3  C   UNL d   1      53.697  33.864  54.472  0.00  0.00     0.102 A 
ATOM      4  C   UNL d   1      52.450  34.271  53.887  0.00  0.00     0.021 A 
ATOM      5  C   UNL d   1      53.649  33.138  54.093  0.00  0.00     0.057 A 
ATOM      6  C   UNL d   1      52.401  33.532  53.501  0.00  0.00     0.088 A 
ATOM      7 CL   UNL d   1      51.757  33.371  53.021  0.00  0.00    -0.080 Cl
ENDROOT
BRANCH   2   8
ATOM      8  N   UNL d   1      52.942  32.242  53.219  0.00  0.00    -0.364 NA
ATOM      9  C   UNL d   1      52.883  31.499  52.857  0.00  0.00     0.328 C 
ATOM     10  O   UNL d   1      52.701  31.470  52.061  0.00  0.00    -0.251 OA
BRANCH   9  11
ATOM     11  C   UNL d   1      53.003  30.830  53.288  0.00  0.00     0.070 A 
ATOM     12  C   UNL d   1      53.773  30.572  53.432  0.00  0.00     0.006 A 
ATOM     13  C   UNL d   1      53.914  29.888  53.872  0.00  0.00    -0.004 A 
ATOM     14  C   UNL d   1      53.272  29.451  54.175  0.00  0.00    -0.023 A 
ATOM     15  C   UNL d   1      52.503  29.703  54.035  0.00  0.00    -0.004 A 
ATOM     16  C   UNL d   1      52.377  30.395  53.589  0.00  0.00     0.006 A 
BRANCH  14  17
ATOM     17  C   UNL d   1      53.426  28.763  54.618  0.00  0.00     0.019 C 
ATOM     18  C   UNL d   1      53.297  28.751  55.422  0.00  0.00     0.004 C 
ATOM     19  C   UNL d   1      53.714  28.095  54.218  0.00  0.00     0.004 C 
ATOM     20  C   UNL d   1      53.154  29.307  55.174  0.00  0.00     0.004 C 
ENDBRANCH  14  17
ENDBRANCH   9  11
ENDBRANCH   2   8
BRANCH   3  21
ATOM     21  O   UNL d   1      54.340  34.021  54.950  0.00  0.00    -0.328 OA
ATOM     22  C   UNL d   1      54.951  33.447  55.027  0.00  0.00     0.181 C 
ENDBRANCH   3  21
BRANCH   1  23
ATOM     23  C   UNL d   1      53.160  35.159  54.759  0.00  0.00     0.298 C 
ATOM     24  O   UNL d   1      53.047  35.201  55.583  0.00  0.00    -0.259 OA
BRANCH  23  25
ATOM     25  O   UNL d   1      53.329  35.838  54.332  0.00  0.00    -0.296 OA
ATOM     26  C   UNL d   1      53.249  36.589  54.674  0.00  0.00     0.185 C 
ENDBRANCH  23  25
ENDBRANCH   1  23
TORSDOF 6
ENDMDL
MODEL 2
REMARK VINA RESULT:      -6.7      2.031      5.094
REMARK  6 active torsions:
REMARK  status: ('A' for Active; 'I' for Inactive)
REMARK    1  A    between atoms: C_7  and  C_1 
REMARK       I    between atoms: C_2  and  N_4 
REMARK    2  A    between atoms: C_10  and  C_2 
REMARK    3  A    between atoms: N_4  and  C_3 
REMARK    4  A    between atoms: O_20  and  C_5 
REMARK    5  A    between atoms: O_21  and  C_7 
REMARK    6  A    between atoms: C_11  and  C_12 
ROOT
ATOM      1  C   UNL d   1      53.342  30.665  53.667  0.00  0.00     0.086 A 
ATOM      2  C   UNL d   1      52.980  32.263  53.409  0.00  0.00     0.148 A 
ATOM      3  C   UNL d   1      52.596  30.900  53.380  0.00  0.00     0.102 A 
ATOM      4  C   UNL d   1      53.915  31.251  53.826  0.00  0.00     0.021 A 
ATOM      5  C   UNL d   1      52.418  31.691  53.253  0.00  0.00     0.057 A 
ATOM      6  C   UNL d   1      53.734  32.056  53.697  0.00  0.00     0.088 A 
ATOM      7 CL   UNL d   1      54.302  32.625  53.855  0.00  0.00    -0.080 Cl
ENDROOT
BRANCH   2   8
ATOM      8  N   UNL d   1      52.819  33.070  53.287  0.00  0.00    -0.364 NA
ATOM      9  C   UNL d   1      52.627  33.867  53.156  0.00  0.00     0.328 C 
ATOM     10  O   UNL d   1      53.209  34.428  53.271  0.00  0.00    -0.251 OA
BRANCH   9  11
ATOM     11  C   UNL d   1      51.884  34.068  52.923  0.00  0.00     0.070 A 
ATOM     12  C   UNL d   1      51.294  34.173  53.491  0.00  0.00     0.006 A 
ATOM     13  C   UNL d   1      50.526  34.380  53.269  0.00  0.00    -0.004 A 
ATOM     14  C   UNL d   1      50.342  34.485  52.463  0.00  0.00    -0.023 A 
ATOM     15  C   UNL d   1      50.925  34.382  51.893  0.00  0.00    -0.004 A 
ATOM     16  C   UNL d   1      51.695  34.173  52.132  0.00  0.00     0.006 A 
BRANCH  14  17
ATOM     17  C   UNL d   1      49.564  34.694  52.251  0.00  0.00     0.019 C 
ATOM     18  C   UNL d   1      49.252  34.454  51.538  0.00  0.00     0.004 C 
ATOM     19  C   UNL d   1      49.122  35.150  52.784  0.00  0.00     0.004 C 
ATOM     20  C   UNL d   1      49.839  34.251  51.612  0.00  0.00     0.004 C 
ENDBRANCH  14  17
ENDBRANCH   9  11
ENDBRANCH   2   8
BRANCH   3  21
ATOM     21  O   UNL d   1      52.028  30.335  53.221  0.00  0.00    -0.328 OA
ATOM     22  C   UNL d   1      51.213  30.540  53.264  0.00  0.00     0.181 C 
ENDBRANCH   3  21
BRANCH   1  23
ATOM     23  C   UNL d   1      53.508  29.877  53.790  0.00  0.00     0.298 C 
ATOM     24  O   UNL d   1      53.832  29.421  53.174  0.00  0.00    -0.259 OA
BRANCH  23  25
ATOM     25  O   UNL d   1      53.357  29.535  54.520  0.00  0.00    -0.296 OA
ATOM     26  C   UNL d   1      53.624  28.769  54.696  0.00  0.00     0.185 C 
ENDBRANCH  23  25
ENDBRANCH   1  23
TORSDOF 6
ENDMDL
MODEL 3
REMARK VINA RESULT:      -6.6      3.868      5.352
REMARK  6 active torsions:
REMARK  status: ('A' for Active; 'I' for Inactive)
REMARK    1  A    between atoms: C_7  and  C_1 
REMARK       I    between atoms: C_2  and  N_4 
REMARK    2  A    between atoms: C_10  and  C_2 
REMARK    3  A    between atoms: N_4  and  C_3 
REMARK    4  A    between atoms: O_20  and  C_5 
REMARK    5  A    between atoms: O_21  and  C_7 
REMARK    6  A    between atoms: C_11  and  C_12 
ROOT
ATOM      1  C   UNL d   1      47.871  35.528  52.144  0.00  0.00     0.086 A 
ATOM      2  C   UNL d   1      49.364  34.815  52.040  0.00  0.00     0.148 A 
ATOM      3  C   UNL d   1      48.403  35.542  52.784  0.00  0.00     0.102 A 
ATOM      4  C   UNL d   1      48.099  35.146  51.437  0.00  0.00     0.021 A 
ATOM      5  C   UNL d   1      49.141  35.189  52.731  0.00  0.00     0.057 A 
ATOM      6  C   UNL d   1      48.851  34.786  51.384  0.00  0.00     0.088 A 
ATOM      7 CL   UNL d   1      49.069  34.412  50.687  0.00  0.00    -0.080 Cl
ENDROOT
BRANCH   2   8
ATOM      8  N   UNL d   1      50.109  34.451  51.967  0.00  0.00    -0.364 NA
ATOM      9  C   UNL d   1      50.859  34.099  51.926  0.00  0.00     0.328 C 
ATOM     10  O   UNL d   1      51.062  33.702  51.241  0.00  0.00    -0.251 OA
BRANCH   9  11
ATOM     11  C   UNL d   1      51.364  34.153  52.549  0.00  0.00     0.070 A 
ATOM     12  C   UNL d   1      51.938  34.747  52.558  0.00  0.00     0.006 A 
ATOM     13  C   UNL d   1      52.464  34.817  53.190  0.00  0.00    -0.004 A 
ATOM     14  C   UNL d   1      52.417  34.283  53.828  0.00  0.00    -0.023 A 
ATOM     15  C   UNL d   1      51.849  33.690  53.826  0.00  0.00    -0.004 A 
ATOM     16  C   UNL d   1      51.325  33.632  53.181  0.00  0.00     0.006 A 
BRANCH  14  17
ATOM     17  C   UNL d   1      52.954  34.363  54.461  0.00  0.00     0.019 C 
ATOM     18  C   UNL d   1      53.464  33.756  54.649  0.00  0.00     0.004 C 
ATOM     19  C   UNL d   1      52.952  35.073  54.889  0.00  0.00     0.004 C 
ATOM     20  C   UNL d   1      53.100  33.608  54.163  0.00  0.00     0.004 C 
ENDBRANCH  14  17
ENDBRANCH   9  11
ENDBRANCH   2   8
BRANCH   3  21
ATOM     21  O   UNL d   1      48.189  35.914  53.479  0.00  0.00    -0.328 OA
ATOM     22  C   UNL d   1      48.774  36.077  54.061  0.00  0.00     0.181 C 
ENDBRANCH   3  21
BRANCH   1  23
ATOM     23  C   UNL d   1      47.139  35.882  52.206  0.00  0.00     0.298 C 
ATOM     24  O   UNL d   1      47.084  36.709  52.273  0.00  0.00    -0.259 OA
BRANCH  23  25
ATOM     25  O   UNL d   1      46.460  35.423  52.202  0.00  0.00    -0.296 OA
ATOM     26  C   UNL d   1      45.713  35.766  52.090  0.00  0.00     0.185 C 
ENDBRANCH  23  25
ENDBRANCH   1  23
TORSDOF 6
ENDMDL
MODEL 4
REMARK VINA RESULT:      -6.0      1.905      2.644
REMARK  6 active torsions:
REMARK  status: ('A' for Active; 'I' for Inactive)
REMARK    1  A    between atoms: C_7  and  C_1 
REMARK       I    between atoms: C_2  and  N_4 
REMARK    2  A    between atoms: C_10  and  C_2 
REMARK    3  A    between atoms: N_4  and  C_3 
REMARK    4  A    between atoms: O_20  and  C_5 
REMARK    5  A    between atoms: O_21  and  C_7 
REMARK    6  A    between atoms: C_11  and  C_12 
ROOT
ATOM      1  C   UNL d   1      50.850  34.372  52.935  0.00  0.00     0.086 A 
ATOM      2  C   UNL d   1      52.237  33.523  53.259  0.00  0.00     0.148 A 
ATOM      3  C   UNL d   1      50.838  33.546  53.041  0.00  0.00     0.102 A 
ATOM      4  C   UNL d   1      51.578  34.776  52.993  0.00  0.00     0.021 A 
ATOM      5  C   UNL d   1      51.525  33.127  53.202  0.00  0.00     0.057 A 
ATOM      6  C   UNL d   1      52.278  34.350  53.157  0.00  0.00     0.088 A 
ATOM      7 CL   UNL d   1      52.989  34.753  53.213  0.00  0.00    -0.080 Cl
ENDROOT
BRANCH   2   8
ATOM      8  N   UNL d   1      52.945  33.117  53.421  0.00  0.00    -0.364 NA
ATOM      9  C   UNL d   1      53.633  32.683  53.584  0.00  0.00     0.328 C 
ATOM     10  O   UNL d   1      54.341  33.086  53.635  0.00  0.00    -0.251 OA
BRANCH   9  11
ATOM     11  C   UNL d   1      53.591  31.886  53.688  0.00  0.00     0.070 A 
ATOM     12  C   UNL d   1      53.464  31.580  54.444  0.00  0.00     0.006 A 
ATOM     13  C   UNL d   1      53.419  30.765  54.568  0.00  0.00    -0.004 A 
ATOM     14  C   UNL d   1      53.501  30.243  53.923  0.00  0.00    -0.023 A 
ATOM     15  C   UNL d   1      53.626  30.542  53.168  0.00  0.00    -0.004 A 
ATOM     16  C   UNL d   1      53.670  31.366  53.059  0.00  0.00     0.006 A 
BRANCH  14  17
ATOM     17  C   UNL d   1      53.453  29.423  54.059  0.00  0.00     0.019 C 
ATOM     18  C   UNL d   1      52.846  28.985  53.736  0.00  0.00     0.004 C 
ATOM     19  C   UNL d   1      54.036  29.069  54.531  0.00  0.00     0.004 C 
ATOM     20  C   UNL d   1      52.802  29.589  53.581  0.00  0.00     0.004 C 
ENDBRANCH  14  17
ENDBRANCH   9  11
ENDBRANCH   2   8
BRANCH   3  21
ATOM     21  O   UNL d   1      50.130  33.142  52.986  0.00  0.00    -0.328 OA
ATOM     22  C   UNL d   1      50.119  32.307  53.087  0.00  0.00     0.181 C 
ENDBRANCH   3  21
BRANCH   1  23
ATOM     23  C   UNL d   1      50.162  34.778  52.776  0.00  0.00     0.298 C 
ATOM     24  O   UNL d   1      49.834  34.755  52.011  0.00  0.00    -0.259 OA
BRANCH  23  25
ATOM     25  O   UNL d   1      49.793  35.210  53.368  0.00  0.00    -0.296 OA
ATOM     26  C   UNL d   1      49.073  35.597  53.230  0.00  0.00     0.185 C 
ENDBRANCH  23  25
ENDBRANCH   1  23
TORSDOF 6
ENDMDL
MODEL 5
REMARK VINA RESULT:      -5.9      2.269      4.205
REMARK  6 active torsions:
REMARK  status: ('A' for Active; 'I' for Inactive)
REMARK    1  A    between atoms: C_7  and  C_1 
REMARK       I    between atoms: C_2  and  N_4 
REMARK    2  A    between atoms: C_10  and  C_2 
REMARK    3  A    between atoms: N_4  and  C_3 
REMARK    4  A    between atoms: O_20  and  C_5 
REMARK    5  A    between atoms: O_21  and  C_7 
REMARK    6  A    between atoms: C_11  and  C_12 
ROOT
ATOM      1  C   UNL d   1      54.459  33.675  54.760  0.00  0.00     0.086 A 
ATOM      2  C   UNL d   1      53.237  33.261  53.718  0.00  0.00     0.148 A 
ATOM      3  C   UNL d   1      53.851  34.211  54.571  0.00  0.00     0.102 A 
ATOM      4  C   UNL d   1      54.449  32.915  54.416  0.00  0.00     0.021 A 
ATOM      5  C   UNL d   1      53.247  34.005  54.056  0.00  0.00     0.057 A 
ATOM      6  C   UNL d   1      53.834  32.705  53.891  0.00  0.00     0.088 A 
ATOM      7 CL   UNL d   1      53.829  31.957  53.556  0.00  0.00    -0.080 Cl
ENDROOT
BRANCH   2   8
ATOM      8  N   UNL d   1      52.633  33.033  53.193  0.00  0.00    -0.364 NA
ATOM      9  C   UNL d   1      52.014  32.834  52.679  0.00  0.00     0.328 C 
ATOM     10  O   UNL d   1      52.080  32.146  52.243  0.00  0.00    -0.251 OA
BRANCH   9  11
ATOM     11  C   UNL d   1      51.370  33.313  52.619  0.00  0.00     0.070 A 
ATOM     12  C   UNL d   1      51.370  33.927  52.068  0.00  0.00     0.006 A 
ATOM     13  C   UNL d   1      50.717  34.427  51.994  0.00  0.00    -0.004 A 
ATOM     14  C   UNL d   1      50.050  34.313  52.481  0.00  0.00    -0.023 A 
ATOM     15  C   UNL d   1      50.045  33.703  53.031  0.00  0.00    -0.004 A 
ATOM     16  C   UNL d   1      50.710  33.207  53.094  0.00  0.00     0.006 A 
BRANCH  14  17
ATOM     17  C   UNL d   1      49.398  34.824  52.397  0.00  0.00     0.019 C 
ATOM     18  C   UNL d   1      48.924  34.783  51.736  0.00  0.00     0.004 C 
ATOM     19  C   UNL d   1      49.248  35.370  53.002  0.00  0.00     0.004 C 
ATOM     20  C   UNL d   1      49.387  34.363  51.713  0.00  0.00     0.004 C 
ENDBRANCH  14  17
ENDBRANCH   9  11
ENDBRANCH   2   8
BRANCH   3  21
ATOM     21  O   UNL d   1      53.853  34.957  54.903  0.00  0.00    -0.328 OA
ATOM     22  C   UNL d   1      53.242  35.502  54.707  0.00  0.00     0.181 C 
ENDBRANCH   3  21
BRANCH   1  23
ATOM     23  C   UNL d   1      55.055  33.889  55.274  0.00  0.00     0.298 C 
ATOM     24  O   UNL d   1      55.740  34.261  54.982  0.00  0.00    -0.259 OA
BRANCH  23  25
ATOM     25  O   UNL d   1      54.979  33.739  56.076  0.00  0.00    -0.296 OA
ATOM     26  C   UNL d   1      55.637  33.765  56.581  0.00  0.00     0.185 C 
ENDBRANCH  23  25
ENDBRANCH   1  23
TORSDOF 6
ENDMDL
MODEL 6
REMARK VINA RESULT:      -5.4      2.559      3.834
REMARK  6 active torsions:
REMARK  status: ('A' for Active; 'I' for Inactive)
REMARK    1  A    between atoms: C_7  and  C_1 
REMARK       I    between atoms: C_2  and  N_4 
REMARK    2  A    between atoms: C_10  and  C_2 
REMARK    3  A    between atoms: N_4  and  C_3 
REMARK    4  A    between atoms: O_20  and  C_5 
REMARK    5  A    between atoms: O_21  and  C_7 
REMARK    6  A    between atoms: C_11  and  C_12 
ROOT
ATOM      1  C   UNL d   1      50.063  34.234  52.569  0.00  0.00     0.086 A 
ATOM      2  C   UNL d   1      51.425  33.306  52.758  0.00  0.00     0.148 A 
ATOM      3  C   UNL d   1      50.672  34.237  52.001  0.00  0.00     0.102 A 
ATOM      4  C   UNL d   1      50.145  33.751  53.246  0.00  0.00     0.021 A 
ATOM      5  C   UNL d   1      51.345  33.777  52.095  0.00  0.00     0.057 A 
ATOM      6  C   UNL d   1      50.831  33.283  53.342  0.00  0.00     0.088 A 
ATOM      7 CL   UNL d   1      50.905  32.812  54.009  0.00  0.00    -0.080 Cl
ENDROOT
BRANCH   2   8
ATOM      8  N   UNL d   1      52.100  32.832  52.872  0.00  0.00    -0.364 NA
ATOM      9  C   UNL d   1      52.785  32.385  53.006  0.00  0.00     0.328 C 
ATOM     10  O   UNL d   1      52.850  31.658  52.640  0.00  0.00    -0.251 OA
BRANCH   9  11
ATOM     11  C   UNL d   1      53.364  32.670  53.487  0.00  0.00     0.070 A 
ATOM     12  C   UNL d   1      53.803  33.327  53.250  0.00  0.00     0.006 A 
ATOM     13  C   UNL d   1      54.401  33.632  53.730  0.00  0.00    -0.004 A 
ATOM     14  C   UNL d   1      54.564  33.273  54.465  0.00  0.00    -0.023 A 
ATOM     15  C   UNL d   1      54.131  32.619  54.707  0.00  0.00    -0.004 A 
ATOM     16  C   UNL d   1      53.531  32.323  54.211  0.00  0.00     0.006 A 
BRANCH  14  17
ATOM     17  C   UNL d   1      55.169  33.590  54.942  0.00  0.00     0.019 C 
ATOM     18  C   UNL d   1      55.040  33.731  55.734  0.00  0.00     0.004 C 
ATOM     19  C   UNL d   1      55.901  33.756  54.589  0.00  0.00     0.004 C 
ATOM     20  C   UNL d   1      54.532  33.494  55.457  0.00  0.00     0.004 C 
ENDBRANCH  14  17
ENDBRANCH   9  11
ENDBRANCH   2   8
BRANCH   3  21
ATOM     21  O   UNL d   1      50.601  34.705  51.336  0.00  0.00    -0.328 OA
ATOM     22  C   UNL d   1      51.149  34.616  50.704  0.00  0.00     0.181 C 
ENDBRANCH   3  21
BRANCH   1  23
ATOM     23  C   UNL d   1      49.399  34.694  52.466  0.00  0.00     0.298 C 
ATOM     24  O   UNL d   1      48.882  34.539  51.833  0.00  0.00    -0.259 OA
BRANCH  23  25
ATOM     25  O   UNL d   1      49.240  35.308  52.986  0.00  0.00    -0.296 OA
ATOM     26  C   UNL d   1      48.492  35.665  53.010  0.00  0.00     0.185 C 
ENDBRANCH  23  25
ENDBRANCH   1  23
TORSDOF 6
ENDMDL
