MODEL 1
REMARK VINA RESULT:     -10.3      0.000      0.000
REMARK  1 active torsions:
REMARK  status: ('A' for Active; 'I' for Inactive)
REMARK    1  A    between atoms: C_6  and  C_1 
ROOT
ATOM      1  C   UNL d   1      53.303  32.145  53.417  0.00  0.00     0.148 A 
ATOM      2  N   UNL d   1      53.293  31.321  53.479  0.00  0.00    -0.289 N 
ATOM      3  N   UNL d   1      52.752  32.380  52.861  0.00  0.00    -0.225 NA
ATOM      4  C   UNL d   1      52.735  31.046  52.961  0.00  0.00     0.085 A 
ATOM      5  C   UNL d   1      52.400  31.698  52.578  0.00  0.00     0.118 A 
ATOM      6  C   UNL d   1      53.733  30.810  53.952  0.00  0.00     0.082 A 
ATOM      7  C   UNL d   1      52.578  30.238  52.878  0.00  0.00     0.019 A 
ATOM      8  C   UNL d   1      53.585  29.976  53.880  0.00  0.00     0.019 A 
ATOM      9  C   UNL d   1      53.028  29.700  53.362  0.00  0.00     0.003 A 
ENDROOT
BRANCH   1  10
ATOM     10  C   UNL d   1      53.826  32.579  53.888  0.00  0.00     0.035 A 
ATOM     11  C   UNL d   1      53.638  32.807  54.683  0.00  0.00     0.004 A 
ATOM     12  C   UNL d   1      54.159  33.235  55.143  0.00  0.00     0.011 A 
ATOM     13  C   UNL d   1      54.873  33.443  54.822  0.00  0.00     0.058 A 
ATOM     14  C   UNL d   1      55.081  33.235  54.055  0.00  0.00     0.011 A 
ATOM     15 CL   UNL d   1      55.412  33.894  55.318  0.00  0.00    -0.082 Cl
ATOM     16  C   UNL d   1      54.561  32.805  53.589  0.00  0.00     0.004 A 
ENDBRANCH   1  10
TORSDOF 1
ENDMDL
MODEL 2
REMARK VINA RESULT:      -9.8      2.224      3.480
REMARK  1 active torsions:
REMARK  status: ('A' for Active; 'I' for Inactive)
REMARK    1  A    between atoms: C_6  and  C_1 
ROOT
ATOM      1  C   UNL d   1      52.831  32.937  53.331  0.00  0.00     0.148 A 
ATOM      2  N   UNL d   1      53.309  33.251  53.929  0.00  0.00    -0.289 N 
ATOM      3  N   UNL d   1      53.177  32.254  53.044  0.00  0.00    -0.225 NA
ATOM      4  C   UNL d   1      53.949  32.763  54.011  0.00  0.00     0.085 A 
ATOM      5  C   UNL d   1      53.869  32.146  53.465  0.00  0.00     0.118 A 
ATOM      6  C   UNL d   1      53.217  33.925  54.394  0.00  0.00     0.082 A 
ATOM      7  C   UNL d   1      54.544  32.913  54.564  0.00  0.00     0.019 A 
ATOM      8  C   UNL d   1      53.819  34.095  54.969  0.00  0.00     0.019 A 
ATOM      9  C   UNL d   1      54.459  33.607  55.051  0.00  0.00     0.003 A 
ENDROOT
BRANCH   1  10
ATOM     10  C   UNL d   1      52.132  33.327  53.127  0.00  0.00     0.035 A 
ATOM     11  C   UNL d   1      52.112  33.957  52.560  0.00  0.00     0.004 A 
ATOM     12  C   UNL d   1      51.417  34.338  52.363  0.00  0.00     0.011 A 
ATOM     13  C   UNL d   1      50.733  34.099  52.724  0.00  0.00     0.058 A 
ATOM     14  C   UNL d   1      50.723  33.492  53.277  0.00  0.00     0.011 A 
ATOM     15 CL   UNL d   1      50.009  34.509  52.507  0.00  0.00    -0.082 Cl
ATOM     16  C   UNL d   1      51.419  33.106  53.479  0.00  0.00     0.004 A 
ENDBRANCH   1  10
TORSDOF 1
ENDMDL
MODEL 3
REMARK VINA RESULT:      -9.3      1.312      2.262
REMARK  1 active torsions:
REMARK  status: ('A' for Active; 'I' for Inactive)
REMARK    1  A    between atoms: C_6  and  C_1 
ROOT
ATOM      1  C   UNL d   1      53.109  32.758  53.550  0.00  0.00     0.148 A 
ATOM      2  N   UNL d   1      52.565  33.312  53.266  0.00  0.00    -0.289 N 
ATOM      3  N   UNL d   1      52.897  32.014  53.285  0.00  0.00    -0.225 NA
ATOM      4  C   UNL d   1      52.017  32.912  52.826  0.00  0.00     0.085 A 
ATOM      5  C   UNL d   1      52.220  32.109  52.836  0.00  0.00     0.118 A 
ATOM      6  C   UNL d   1      52.524  34.129  53.369  0.00  0.00     0.082 A 
ATOM      7  C   UNL d   1      51.387  33.299  52.456  0.00  0.00     0.019 A 
ATOM      8  C   UNL d   1      51.883  34.544  52.996  0.00  0.00     0.019 A 
ATOM      9  C   UNL d   1      51.334  34.144  52.556  0.00  0.00     0.003 A 
ENDROOT
BRANCH   1  10
ATOM     10  C   UNL d   1      53.737  33.014  54.022  0.00  0.00     0.035 A 
ATOM     11  C   UNL d   1      53.655  33.141  54.857  0.00  0.00     0.004 A 
ATOM     12  C   UNL d   1      54.280  33.394  55.317  0.00  0.00     0.011 A 
ATOM     13  C   UNL d   1      54.993  33.524  54.958  0.00  0.00     0.058 A 
ATOM     14  C   UNL d   1      55.100  33.410  54.152  0.00  0.00     0.011 A 
ATOM     15 CL   UNL d   1      55.642  33.791  55.456  0.00  0.00    -0.082 Cl
ATOM     16  C   UNL d   1      54.476  33.156  53.684  0.00  0.00     0.004 A 
ENDBRANCH   1  10
TORSDOF 1
ENDMDL
MODEL 4
REMARK VINA RESULT:      -8.5      1.680      3.228
REMARK  1 active torsions:
REMARK  status: ('A' for Active; 'I' for Inactive)
REMARK    1  A    between atoms: C_6  and  C_1 
ROOT
ATOM      1  C   UNL d   1      53.183  32.623  53.436  0.00  0.00     0.148 A 
ATOM      2  N   UNL d   1      53.584  32.921  54.094  0.00  0.00    -0.289 N 
ATOM      3  N   UNL d   1      52.929  33.246  52.972  0.00  0.00    -0.225 NA
ATOM      4  C   UNL d   1      53.579  33.728  54.037  0.00  0.00     0.085 A 
ATOM      5  C   UNL d   1      53.175  33.932  53.344  0.00  0.00     0.118 A 
ATOM      6  C   UNL d   1      53.946  32.535  54.726  0.00  0.00     0.082 A 
ATOM      7  C   UNL d   1      53.935  34.209  54.608  0.00  0.00     0.019 A 
ATOM      8  C   UNL d   1      54.318  33.012  55.323  0.00  0.00     0.019 A 
ATOM      9  C   UNL d   1      54.312  33.819  55.266  0.00  0.00     0.003 A 
ENDROOT
BRANCH   1  10
ATOM     10  C   UNL d   1      53.102  31.805  53.349  0.00  0.00     0.035 A 
ATOM     11  C   UNL d   1      53.768  31.294  53.223  0.00  0.00     0.004 A 
ATOM     12  C   UNL d   1      53.681  30.487  53.137  0.00  0.00     0.011 A 
ATOM     13  C   UNL d   1      52.935  30.175  53.175  0.00  0.00     0.058 A 
ATOM     14  C   UNL d   1      52.273  30.646  53.297  0.00  0.00     0.011 A 
ATOM     15 CL   UNL d   1      52.859  29.323  53.084  0.00  0.00    -0.082 Cl
ATOM     16  C   UNL d   1      52.355  31.458  53.383  0.00  0.00     0.004 A 
ENDBRANCH   1  10
TORSDOF 1
ENDMDL
MODEL 5
REMARK VINA RESULT:      -8.5      1.973      3.260
REMARK  1 active torsions:
REMARK  status: ('A' for Active; 'I' for Inactive)
REMARK    1  A    between atoms: C_6  and  C_1 
ROOT
ATOM      1  C   UNL d   1      53.315  32.747  53.422  0.00  0.00     0.148 A 
ATOM      2  N   UNL d   1      52.625  33.193  53.328  0.00  0.00    -0.289 N 
ATOM      3  N   UNL d   1      53.955  33.253  53.473  0.00  0.00    -0.225 NA
ATOM      4  C   UNL d   1      52.838  33.973  53.321  0.00  0.00     0.085 A 
ATOM      5  C   UNL d   1      53.660  34.013  53.410  0.00  0.00     0.118 A 
ATOM      6  C   UNL d   1      51.839  32.959  53.250  0.00  0.00     0.082 A 
ATOM      7  C   UNL d   1      52.281  34.578  53.235  0.00  0.00     0.019 A 
ATOM      8  C   UNL d   1      51.251  33.567  53.161  0.00  0.00     0.019 A 
ATOM      9  C   UNL d   1      51.464  34.347  53.154  0.00  0.00     0.003 A 
ENDROOT
BRANCH   1  10
ATOM     10  C   UNL d   1      53.263  31.923  53.449  0.00  0.00     0.035 A 
ATOM     11  C   UNL d   1      53.039  31.461  52.773  0.00  0.00     0.004 A 
ATOM     12  C   UNL d   1      52.990  30.646  52.806  0.00  0.00     0.011 A 
ATOM     13  C   UNL d   1      53.160  30.280  53.508  0.00  0.00     0.058 A 
ATOM     14  C   UNL d   1      53.379  30.703  54.177  0.00  0.00     0.011 A 
ATOM     15 CL   UNL d   1      53.104  29.421  53.528  0.00  0.00    -0.082 Cl
ATOM     16  C   UNL d   1      53.430  31.521  54.149  0.00  0.00     0.004 A 
ENDBRANCH   1  10
TORSDOF 1
ENDMDL
MODEL 6
REMARK VINA RESULT:      -7.9      1.634      1.836
REMARK  1 active torsions:
REMARK  status: ('A' for Active; 'I' for Inactive)
REMARK    1  A    between atoms: C_6  and  C_1 
ROOT
ATOM      1  C   UNL d   1      52.391  33.026  53.380  0.00  0.00     0.148 A 
ATOM      2  N   UNL d   1      52.940  32.408  53.384  0.00  0.00    -0.289 N 
ATOM      3  N   UNL d   1      51.683  32.753  53.077  0.00  0.00    -0.225 NA
ATOM      4  C   UNL d   1      52.572  31.753  53.085  0.00  0.00     0.085 A 
ATOM      5  C   UNL d   1      51.795  31.964  52.894  0.00  0.00     0.118 A 
ATOM      6  C   UNL d   1      53.726  32.387  53.631  0.00  0.00     0.082 A 
ATOM      7  C   UNL d   1      52.963  31.028  53.009  0.00  0.00     0.019 A 
ATOM      8  C   UNL d   1      54.145  31.651  53.561  0.00  0.00     0.019 A 
ATOM      9  C   UNL d   1      53.777  30.996  53.261  0.00  0.00     0.003 A 
ENDROOT
BRANCH   1  10
ATOM     10  C   UNL d   1      52.618  33.770  53.659  0.00  0.00     0.035 A 
ATOM     11  C   UNL d   1      52.739  33.928  54.484  0.00  0.00     0.004 A 
ATOM     12  C   UNL d   1      52.963  34.665  54.753  0.00  0.00     0.011 A 
ATOM     13  C   UNL d   1      53.071  35.256  54.209  0.00  0.00     0.058 A 
ATOM     14  C   UNL d   1      52.961  35.130  53.405  0.00  0.00     0.011 A 
ATOM     15 CL   UNL d   1      53.307  36.027  54.507  0.00  0.00    -0.082 Cl
ATOM     16  C   UNL d   1      52.735  34.391  53.129  0.00  0.00     0.004 A 
ENDBRANCH   1  10
TORSDOF 1
ENDMDL
