MODEL 1
REMARK VINA RESULT:      -3.8      0.000      0.000
REMARK  4 active torsions:
REMARK  status: ('A' for Active; 'I' for Inactive)
REMARK    1  A    between atoms: C_5  and  C_1 
REMARK       I    between atoms: N_8  and  C_5 
REMARK    2  A    between atoms: C_10  and  N_8 
REMARK    3  A    between atoms: C_13  and  C_10 
REMARK    4  A    between atoms: C_11  and  C_13 
ROOT
ATOM      1  C   UNL d   1      32.848  18.568 -23.278  0.00  0.00     0.299 C 
ATOM      2  O   UNL d   1      32.960  19.027 -23.946  0.00  0.00    -0.263 OA
ATOM      3  N   UNL d   1      32.864  18.915 -22.529  0.00  0.00    -0.205 NA
ENDROOT
BRANCH   1   4
ATOM      4  C   UNL d   1      32.718  17.755 -23.351  0.00  0.00     0.162 A 
ATOM      5  N   UNL d   1      33.240  17.167 -23.124  0.00  0.00    -0.143 NA
ATOM      6  N   UNL d   1      32.894  16.430 -23.295  0.00  0.00    -0.148 NA
ATOM      7  C   UNL d   1      32.148  16.583 -23.632  0.00  0.00     0.105 A 
ATOM      8  C   UNL d   1      32.043  17.402 -23.665  0.00  0.00     0.044 A 
ATOM      9  C   UNL d   1      31.567  16.082 -23.905  0.00  0.00     0.021 A 
ATOM     10  C   UNL d   1      31.346  17.706 -23.976  0.00  0.00     0.003 A 
ATOM     11  C   UNL d   1      30.768  17.207 -24.248  0.00  0.00     0.000 A 
ATOM     12  C   UNL d   1      30.875  16.397 -24.214  0.00  0.00     0.002 A 
ENDBRANCH   1   4
BRANCH   3  13
ATOM     13  C   UNL d   1      32.994  19.728 -22.455  0.00  0.00     0.102 C 
BRANCH  13  14
ATOM     14  C   UNL d   1      33.109  20.055 -21.702  0.00  0.00     0.021 C 
BRANCH  14  15
ATOM     15  C   UNL d   1      32.903  20.849 -21.573  0.00  0.00     0.002 A 
ATOM     16  C   UNL d   1      32.349  21.029 -20.982  0.00  0.00     0.000 A 
ATOM     17  C   UNL d   1      32.143  21.823 -20.854  0.00  0.00     0.000 A 
ATOM     18  C   UNL d   1      32.480  22.419 -21.303  0.00  0.00     0.000 A 
ATOM     19  C   UNL d   1      33.028  22.226 -21.885  0.00  0.00     0.000 A 
ATOM     20  C   UNL d   1      33.240  21.456 -22.023  0.00  0.00     0.000 A 
ENDBRANCH  14  15
ENDBRANCH  13  14
ENDBRANCH   3  13
TORSDOF 4
ENDMDL
MODEL 2
REMARK VINA RESULT:      -3.2      1.181      4.879
REMARK  4 active torsions:
REMARK  status: ('A' for Active; 'I' for Inactive)
REMARK    1  A    between atoms: C_5  and  C_1 
REMARK       I    between atoms: N_8  and  C_5 
REMARK    2  A    between atoms: C_10  and  N_8 
REMARK    3  A    between atoms: C_13  and  C_10 
REMARK    4  A    between atoms: C_11  and  C_13 
ROOT
ATOM      1  C   UNL d   1      33.009  20.009 -22.197  0.00  0.00     0.299 C 
ATOM      2  O   UNL d   1      33.212  19.608 -21.512  0.00  0.00    -0.263 OA
ATOM      3  N   UNL d   1      32.836  19.588 -22.887  0.00  0.00    -0.205 NA
ENDROOT
BRANCH   1   4
ATOM      4  C   UNL d   1      32.977  20.835 -22.200  0.00  0.00     0.162 A 
ATOM      5  N   UNL d   1      33.241  21.320 -22.804  0.00  0.00    -0.143 NA
ATOM      6  N   UNL d   1      33.105  22.110 -22.583  0.00  0.00    -0.148 NA
ATOM      7  C   UNL d   1      32.752  22.095 -21.829  0.00  0.00     0.105 A 
ATOM      8  C   UNL d   1      32.674  21.306 -21.596  0.00  0.00     0.044 A 
ATOM      9  C   UNL d   1      32.498  22.696 -21.341  0.00  0.00     0.021 A 
ATOM     10  C   UNL d   1      32.339  21.133 -20.866  0.00  0.00     0.003 A 
ATOM     11  C   UNL d   1      32.087  21.731 -20.380  0.00  0.00     0.000 A 
ATOM     12  C   UNL d   1      32.165  22.510 -20.614  0.00  0.00     0.002 A 
ENDBRANCH   1   4
BRANCH   3  13
ATOM     13  C   UNL d   1      32.869  18.763 -22.884  0.00  0.00     0.102 C 
BRANCH  13  14
ATOM     14  C   UNL d   1      32.797  18.351 -23.601  0.00  0.00     0.021 C 
BRANCH  14  15
ATOM     15  C   UNL d   1      32.553  17.558 -23.584  0.00  0.00     0.002 A 
ATOM     16  C   UNL d   1      31.773  17.373 -23.802  0.00  0.00     0.000 A 
ATOM     17  C   UNL d   1      31.529  16.580 -23.785  0.00  0.00     0.000 A 
ATOM     18  C   UNL d   1      32.049  15.989 -23.559  0.00  0.00     0.000 A 
ATOM     19  C   UNL d   1      32.818  16.186 -23.346  0.00  0.00     0.000 A 
ATOM     20  C   UNL d   1      33.072  16.955 -23.357  0.00  0.00     0.000 A 
ENDBRANCH  14  15
ENDBRANCH  13  14
ENDBRANCH   3  13
TORSDOF 4
ENDMDL
MODEL 3
REMARK VINA RESULT:      -3.0      1.392      4.875
REMARK  4 active torsions:
REMARK  status: ('A' for Active; 'I' for Inactive)
REMARK    1  A    between atoms: C_5  and  C_1 
REMARK       I    between atoms: N_8  and  C_5 
REMARK    2  A    between atoms: C_10  and  N_8 
REMARK    3  A    between atoms: C_13  and  C_10 
REMARK    4  A    between atoms: C_11  and  C_13 
ROOT
ATOM      1  C   UNL d   1      33.042  20.514 -22.065  0.00  0.00     0.299 C 
ATOM      2  O   UNL d   1      33.238  20.924 -22.746  0.00  0.00    -0.263 OA
ATOM      3  N   UNL d   1      32.887  19.703 -22.100  0.00  0.00    -0.205 NA
ENDROOT
BRANCH   1   4
ATOM      4  C   UNL d   1      32.997  20.910 -21.342  0.00  0.00     0.162 A 
ATOM      5  N   UNL d   1      33.240  20.612 -20.619  0.00  0.00    -0.143 NA
ATOM      6  N   UNL d   1      33.098  21.189 -20.037  0.00  0.00    -0.148 NA
ATOM      7  C   UNL d   1      32.762  21.846 -20.423  0.00  0.00     0.105 A 
ATOM      8  C   UNL d   1      32.701  21.671 -21.227  0.00  0.00     0.044 A 
ATOM      9  C   UNL d   1      32.511  22.567 -20.138  0.00  0.00     0.021 A 
ATOM     10  C   UNL d   1      32.385  22.231 -21.739  0.00  0.00     0.003 A 
ATOM     11  C   UNL d   1      32.136  22.948 -21.456  0.00  0.00     0.000 A 
ATOM     12  C   UNL d   1      32.197  23.119 -20.659  0.00  0.00     0.002 A 
ENDBRANCH   1   4
BRANCH   3  13
ATOM     13  C   UNL d   1      32.932  19.307 -22.824  0.00  0.00     0.102 C 
BRANCH  13  14
ATOM     14  C   UNL d   1      32.727  18.504 -22.860  0.00  0.00     0.021 C 
BRANCH  14  15
ATOM     15  C   UNL d   1      32.588  18.159 -23.603  0.00  0.00     0.002 A 
ATOM     16  C   UNL d   1      31.805  18.007 -23.834  0.00  0.00     0.000 A 
ATOM     17  C   UNL d   1      31.666  17.663 -24.577  0.00  0.00     0.000 A 
ATOM     18  C   UNL d   1      32.290  17.476 -25.073  0.00  0.00     0.000 A 
ATOM     19  C   UNL d   1      33.060  17.632 -24.831  0.00  0.00     0.000 A 
ATOM     20  C   UNL d   1      33.213  17.968 -24.109  0.00  0.00     0.000 A 
ENDBRANCH  14  15
ENDBRANCH  13  14
ENDBRANCH   3  13
TORSDOF 4
ENDMDL
MODEL 4
REMARK VINA RESULT:      -3.0      1.986      5.402
REMARK  4 active torsions:
REMARK  status: ('A' for Active; 'I' for Inactive)
REMARK    1  A    between atoms: C_5  and  C_1 
REMARK       I    between atoms: N_8  and  C_5 
REMARK    2  A    between atoms: C_10  and  N_8 
REMARK    3  A    between atoms: C_13  and  C_10 
REMARK    4  A    between atoms: C_11  and  C_13 
ROOT
ATOM      1  C   UNL d   1      32.581  21.174 -21.161  0.00  0.00     0.299 C 
ATOM      2  O   UNL d   1      32.632  20.629 -20.551  0.00  0.00    -0.263 OA
ATOM      3  N   UNL d   1      32.717  20.936 -21.941  0.00  0.00    -0.205 NA
ENDROOT
BRANCH   1   4
ATOM      4  C   UNL d   1      32.393  21.961 -20.998  0.00  0.00     0.162 A 
ATOM      5  N   UNL d   1      31.935  22.450 -21.470  0.00  0.00    -0.143 NA
ATOM      6  N   UNL d   1      31.884  23.194 -21.103  0.00  0.00    -0.148 NA
ATOM      7  C   UNL d   1      32.323  23.149 -20.397  0.00  0.00     0.105 A 
ATOM      8  C   UNL d   1      32.635  22.387 -20.335  0.00  0.00     0.044 A 
ATOM      9  C   UNL d   1      32.469  23.702 -19.817  0.00  0.00     0.021 A 
ATOM     10  C   UNL d   1      33.095  22.192 -19.683  0.00  0.00     0.003 A 
ATOM     11  C   UNL d   1      33.241  22.742 -19.106  0.00  0.00     0.000 A 
ATOM     12  C   UNL d   1      32.930  23.495 -19.170  0.00  0.00     0.002 A 
ENDBRANCH   1   4
BRANCH   3  13
ATOM     13  C   UNL d   1      32.904  20.148 -22.104  0.00  0.00     0.102 C 
BRANCH  13  14
ATOM     14  C   UNL d   1      33.225  19.951 -22.843  0.00  0.00     0.021 C 
BRANCH  14  15
ATOM     15  C   UNL d   1      33.055  19.206 -23.168  0.00  0.00     0.002 A 
ATOM     16  C   UNL d   1      33.046  18.543 -22.668  0.00  0.00     0.000 A 
ATOM     17  C   UNL d   1      32.876  17.798 -22.994  0.00  0.00     0.000 A 
ATOM     18  C   UNL d   1      32.720  17.719 -23.794  0.00  0.00     0.000 A 
ATOM     19  C   UNL d   1      32.733  18.384 -24.276  0.00  0.00     0.000 A 
ATOM     20  C   UNL d   1      32.897  19.118 -23.975  0.00  0.00     0.000 A 
ENDBRANCH  14  15
ENDBRANCH  13  14
ENDBRANCH   3  13
TORSDOF 4
ENDMDL
MODEL 5
REMARK VINA RESULT:      -2.9      0.900      1.515
REMARK  4 active torsions:
REMARK  status: ('A' for Active; 'I' for Inactive)
REMARK    1  A    between atoms: C_5  and  C_1 
REMARK       I    between atoms: N_8  and  C_5 
REMARK    2  A    between atoms: C_10  and  N_8 
REMARK    3  A    between atoms: C_13  and  C_10 
REMARK    4  A    between atoms: C_11  and  C_13 
ROOT
ATOM      1  C   UNL d   1      32.091  17.886 -24.003  0.00  0.00     0.299 C 
ATOM      2  O   UNL d   1      32.250  18.355 -24.655  0.00  0.00    -0.263 OA
ATOM      3  N   UNL d   1      32.345  18.121 -23.253  0.00  0.00    -0.205 NA
ENDROOT
BRANCH   1   4
ATOM      4  C   UNL d   1      31.677  17.177 -24.093  0.00  0.00     0.162 A 
ATOM      5  N   UNL d   1      31.986  16.427 -23.980  0.00  0.00    -0.143 NA
ATOM      6  N   UNL d   1      31.385  15.871 -24.128  0.00  0.00    -0.148 NA
ATOM      7  C   UNL d   1      30.702  16.301 -24.335  0.00  0.00     0.105 A 
ATOM      8  C   UNL d   1      30.886  17.106 -24.312  0.00  0.00     0.044 A 
ATOM      9  C   UNL d   1      29.952  16.055 -24.536  0.00  0.00     0.021 A 
ATOM     10  C   UNL d   1      30.305  17.657 -24.495  0.00  0.00     0.003 A 
ATOM     11  C   UNL d   1      29.558  17.413 -24.695  0.00  0.00     0.000 A 
ATOM     12  C   UNL d   1      29.379  16.616 -24.716  0.00  0.00     0.002 A 
ENDBRANCH   1   4
BRANCH   3  13
ATOM     13  C   UNL d   1      32.759  18.831 -23.162  0.00  0.00     0.102 C 
BRANCH  13  14
ATOM     14  C   UNL d   1      33.134  18.994 -22.441  0.00  0.00     0.021 C 
BRANCH  14  15
ATOM     15  C   UNL d   1      33.132  19.773 -22.155  0.00  0.00     0.002 A 
ATOM     16  C   UNL d   1      33.239  20.397 -22.692  0.00  0.00     0.000 A 
ATOM     17  C   UNL d   1      33.238  21.177 -22.407  0.00  0.00     0.000 A 
ATOM     18  C   UNL d   1      33.132  21.328 -21.609  0.00  0.00     0.000 A 
ATOM     19  C   UNL d   1      33.027  20.701 -21.088  0.00  0.00     0.000 A 
ATOM     20  C   UNL d   1      33.026  19.933 -21.351  0.00  0.00     0.000 A 
ENDBRANCH  14  15
ENDBRANCH  13  14
ENDBRANCH   3  13
TORSDOF 4
ENDMDL
MODEL 6
REMARK VINA RESULT:      -2.5      2.153      3.415
REMARK  4 active torsions:
REMARK  status: ('A' for Active; 'I' for Inactive)
REMARK    1  A    between atoms: C_5  and  C_1 
REMARK       I    between atoms: N_8  and  C_5 
REMARK    2  A    between atoms: C_10  and  N_8 
REMARK    3  A    between atoms: C_13  and  C_10 
REMARK    4  A    between atoms: C_11  and  C_13 
ROOT
ATOM      1  C   UNL d   1      30.275  17.267 -24.697  0.00  0.00     0.299 C 
ATOM      2  O   UNL d   1      30.032  17.981 -25.016  0.00  0.00    -0.263 OA
ATOM      3  N   UNL d   1      31.050  17.178 -24.423  0.00  0.00    -0.205 NA
ENDROOT
BRANCH   1   4
ATOM      4  C   UNL d   1      29.747  16.633 -24.648  0.00  0.00     0.162 A 
ATOM      5  N   UNL d   1      29.794  15.939 -25.079  0.00  0.00    -0.143 NA
ATOM      6  N   UNL d   1      29.155  15.453 -24.863  0.00  0.00    -0.148 NA
ATOM      7  C   UNL d   1      28.716  15.868 -24.289  0.00  0.00     0.105 A 
ATOM      8  C   UNL d   1      29.084  16.596 -24.159  0.00  0.00     0.044 A 
ATOM      9  C   UNL d   1      28.040  15.669 -23.881  0.00  0.00     0.021 A 
ATOM     10  C   UNL d   1      28.762  17.118 -23.614  0.00  0.00     0.003 A 
ATOM     11  C   UNL d   1      28.089  16.921 -23.207  0.00  0.00     0.000 A 
ATOM     12  C   UNL d   1      27.727  16.200 -23.338  0.00  0.00     0.002 A 
ENDBRANCH   1   4
BRANCH   3  13
ATOM     13  C   UNL d   1      31.578  17.811 -24.471  0.00  0.00     0.102 C 
BRANCH  13  14
ATOM     14  C   UNL d   1      32.351  17.717 -24.185  0.00  0.00     0.021 C 
BRANCH  14  15
ATOM     15  C   UNL d   1      32.650  18.274 -23.647  0.00  0.00     0.002 A 
ATOM     16  C   UNL d   1      32.763  19.057 -23.900  0.00  0.00     0.000 A 
ATOM     17  C   UNL d   1      33.061  19.614 -23.361  0.00  0.00     0.000 A 
ATOM     18  C   UNL d   1      33.241  19.394 -22.593  0.00  0.00     0.000 A 
ATOM     19  C   UNL d   1      33.124  18.616 -22.355  0.00  0.00     0.000 A 
ATOM     20  C   UNL d   1      32.833  18.060 -22.869  0.00  0.00     0.000 A 
ENDBRANCH  14  15
ENDBRANCH  13  14
ENDBRANCH   3  13
TORSDOF 4
ENDMDL
MODEL 7
REMARK VINA RESULT:      -2.1      1.522      2.200
REMARK  4 active torsions:
REMARK  status: ('A' for Active; 'I' for Inactive)
REMARK    1  A    between atoms: C_5  and  C_1 
REMARK       I    between atoms: N_8  and  C_5 
REMARK    2  A    between atoms: C_10  and  N_8 
REMARK    3  A    between atoms: C_13  and  C_10 
REMARK    4  A    between atoms: C_11  and  C_13 
ROOT
ATOM      1  C   UNL d   1      33.083  19.940 -22.278  0.00  0.00     0.299 C 
ATOM      2  O   UNL d   1      33.180  19.489 -21.602  0.00  0.00    -0.263 OA
ATOM      3  N   UNL d   1      32.950  20.753 -22.218  0.00  0.00    -0.205 NA
ENDROOT
BRANCH   1   4
ATOM      4  C   UNL d   1      33.119  19.584 -23.023  0.00  0.00     0.162 A 
ATOM      5  N   UNL d   1      33.241  19.973 -23.733  0.00  0.00    -0.143 NA
ATOM      6  N   UNL d   1      33.237  19.410 -24.344  0.00  0.00    -0.148 NA
ATOM      7  C   UNL d   1      33.109  18.666 -23.990  0.00  0.00     0.105 A 
ATOM      8  C   UNL d   1      33.036  18.778 -23.175  0.00  0.00     0.044 A 
ATOM      9  C   UNL d   1      33.052  17.920 -24.311  0.00  0.00     0.021 A 
ATOM     10  C   UNL d   1      32.906  18.128 -22.690  0.00  0.00     0.003 A 
ATOM     11  C   UNL d   1      32.849  17.385 -23.009  0.00  0.00     0.000 A 
ATOM     12  C   UNL d   1      32.922  17.278 -23.816  0.00  0.00     0.002 A 
ENDBRANCH   1   4
BRANCH   3  13
ATOM     13  C   UNL d   1      32.915  21.110 -21.473  0.00  0.00     0.102 C 
BRANCH  13  14
ATOM     14  C   UNL d   1      32.484  21.812 -21.379  0.00  0.00     0.021 C 
BRANCH  14  15
ATOM     15  C   UNL d   1      32.683  22.324 -20.757  0.00  0.00     0.002 A 
ATOM     16  C   UNL d   1      32.647  23.144 -20.885  0.00  0.00     0.000 A 
ATOM     17  C   UNL d   1      32.846  23.656 -20.263  0.00  0.00     0.000 A 
ATOM     18  C   UNL d   1      33.074  23.358 -19.535  0.00  0.00     0.000 A 
ATOM     19  C   UNL d   1      33.105  22.545 -19.422  0.00  0.00     0.000 A 
ATOM     20  C   UNL d   1      32.914  22.031 -20.019  0.00  0.00     0.000 A 
ENDBRANCH  14  15
ENDBRANCH  13  14
ENDBRANCH   3  13
TORSDOF 4
ENDMDL
