MODEL 1
REMARK VINA RESULT:      -1.8      0.000      0.000
REMARK  5 active torsions:
REMARK  status: ('A' for Active; 'I' for Inactive)
REMARK    1  A    between atoms: C_8  and  C_1 
REMARK    2  A    between atoms: C_9  and  C_2 
REMARK    3  A    between atoms: S_6  and  C_4 
REMARK    4  A    between atoms: C_11  and  S_6 
REMARK    5  A    between atoms: C_7  and  C_11 
ROOT
ATOM      1  C   UNL d   1      31.071  17.586 -24.246  0.00  0.00     0.107 A 
ATOM      2  C   UNL d   1      31.152  16.766 -24.230  0.00  0.00     0.120 A 
ATOM      3  N   UNL d   1      30.268  17.755 -24.191  0.00  0.00    -0.214 NA
ATOM      4  C   UNL d   1      29.865  17.040 -24.142  0.00  0.00     0.215 A 
ATOM      5  O   UNL d   1      30.420  16.432 -24.167  0.00  0.00    -0.283 OA
ENDROOT
BRANCH   1   6
ATOM      6  C   UNL d   1      31.657  18.169 -24.305  0.00  0.00     0.020 A 
ATOM      7  C   UNL d   1      32.050  18.428 -23.608  0.00  0.00     0.002 A 
ATOM      8  C   UNL d   1      32.646  19.022 -23.676  0.00  0.00     0.000 A 
ATOM      9  C   UNL d   1      32.829  19.333 -24.408  0.00  0.00     0.000 A 
ATOM     10  C   UNL d   1      32.436  19.071 -25.091  0.00  0.00     0.000 A 
ATOM     11  C   UNL d   1      31.850  18.490 -25.042  0.00  0.00     0.002 A 
ENDBRANCH   1   6
BRANCH   2  12
ATOM     12  C   UNL d   1      31.847  16.330 -24.270  0.00  0.00     0.024 A 
ATOM     13  C   UNL d   1      32.119  16.033 -24.991  0.00  0.00     0.002 A 
ATOM     14  C   UNL d   1      32.817  15.593 -25.040  0.00  0.00     0.000 A 
ATOM     15  C   UNL d   1      33.240  15.453 -24.358  0.00  0.00     0.000 A 
ATOM     16  C   UNL d   1      32.977  15.745 -23.634  0.00  0.00     0.000 A 
ATOM     17  C   UNL d   1      32.281  16.182 -23.594  0.00  0.00     0.002 A 
ENDBRANCH   2  12
BRANCH   4  18
ATOM     18  S   UNL d   1      29.040  16.972 -24.079  0.00  0.00    -0.037 SA
BRANCH  18  19
ATOM     19  C   UNL d   1      28.715  16.394 -23.564  0.00  0.00     0.103 C 
BRANCH  19  20
ATOM     20  C   UNL d   1      27.914  16.262 -23.566  0.00  0.00     0.303 C 
ATOM     21  O   UNL d   1      27.393  16.811 -23.201  0.00  0.00    -0.263 OA
ATOM     22  N   UNL d   1      27.606  15.584 -23.928  0.00  0.00    -0.102 N 
ENDBRANCH  19  20
ENDBRANCH  18  19
ENDBRANCH   4  18
TORSDOF 5
ENDMDL
MODEL 2
REMARK VINA RESULT:      -1.0      0.510      2.332
REMARK  5 active torsions:
REMARK  status: ('A' for Active; 'I' for Inactive)
REMARK    1  A    between atoms: C_8  and  C_1 
REMARK    2  A    between atoms: C_9  and  C_2 
REMARK    3  A    between atoms: S_6  and  C_4 
REMARK    4  A    between atoms: C_11  and  S_6 
REMARK    5  A    between atoms: C_7  and  C_11 
ROOT
ATOM      1  C   UNL d   1      31.192  16.768 -24.055  0.00  0.00     0.107 A 
ATOM      2  C   UNL d   1      31.116  17.568 -24.234  0.00  0.00     0.120 A 
ATOM      3  N   UNL d   1      30.436  16.443 -24.056  0.00  0.00    -0.214 NA
ATOM      4  C   UNL d   1      29.905  17.045 -24.235  0.00  0.00     0.215 A 
ATOM      5  O   UNL d   1      30.335  17.740 -24.344  0.00  0.00    -0.283 OA
ENDROOT
BRANCH   1   6
ATOM      6  C   UNL d   1      31.876  16.330 -23.896  0.00  0.00     0.020 A 
ATOM      7  C   UNL d   1      32.019  16.061 -23.113  0.00  0.00     0.002 A 
ATOM      8  C   UNL d   1      32.719  15.614 -22.959  0.00  0.00     0.000 A 
ATOM      9  C   UNL d   1      33.241  15.453 -23.566  0.00  0.00     0.000 A 
ATOM     10  C   UNL d   1      33.092  15.722 -24.337  0.00  0.00     0.000 A 
ATOM     11  C   UNL d   1      32.411  16.161 -24.504  0.00  0.00     0.002 A 
ENDBRANCH   1   6
BRANCH   2  12
ATOM     12  C   UNL d   1      31.715  18.127 -24.298  0.00  0.00     0.024 A 
ATOM     13  C   UNL d   1      32.044  18.474 -23.624  0.00  0.00     0.002 A 
ATOM     14  C   UNL d   1      32.646  19.036 -23.679  0.00  0.00     0.000 A 
ATOM     15  C   UNL d   1      32.916  19.249 -24.418  0.00  0.00     0.000 A 
ATOM     16  C   UNL d   1      32.595  18.910 -25.096  0.00  0.00     0.000 A 
ATOM     17  C   UNL d   1      31.995  18.350 -25.032  0.00  0.00     0.002 A 
ENDBRANCH   2  12
BRANCH   4  18
ATOM     18  S   UNL d   1      29.083  16.942 -24.290  0.00  0.00    -0.037 SA
BRANCH  18  19
ATOM     19  C   UNL d   1      28.715  16.341 -23.835  0.00  0.00     0.103 C 
BRANCH  19  20
ATOM     20  C   UNL d   1      27.937  16.423 -23.618  0.00  0.00     0.303 C 
ATOM     21  O   UNL d   1      27.691  17.089 -23.168  0.00  0.00    -0.263 OA
ATOM     22  N   UNL d   1      27.381  15.850 -23.839  0.00  0.00    -0.102 N 
ENDBRANCH  19  20
ENDBRANCH  18  19
ENDBRANCH   4  18
TORSDOF 5
ENDMDL
