MODEL 1
REMARK VINA RESULT:       8.4      0.000      0.000
REMARK  5 active torsions:
REMARK  status: ('A' for Active; 'I' for Inactive)
REMARK    1  A    between atoms: N_2  and  S_1 
REMARK    2  A    between atoms: C_10  and  S_1 
REMARK    3  A    between atoms: C_4  and  C_3 
REMARK       I    between atoms: N_5  and  C_4 
REMARK    4  A    between atoms: C_6  and  N_5 
REMARK    5  A    between atoms: O_24  and  C_21 
ROOT
ATOM      1  N   UNL d   1     -41.821-122.766 -52.679  0.00  0.00    -0.226 N 
ATOM      2  C   UNL d   1     -41.632-121.997 -52.946  0.00  0.00     0.133 A 
ATOM      3  C   UNL d   1     -41.999-123.357 -53.222  0.00  0.00     0.092 A 
ATOM      4  C   UNL d   1     -41.622-121.827 -53.753  0.00  0.00     0.023 A 
ATOM      5  C   UNL d   1     -41.991-123.194 -54.032  0.00  0.00     0.018 A 
ATOM      6  C   UNL d   1     -41.801-122.424 -54.295  0.00  0.00     0.003 A 
ATOM      7  C   UNL d   1     -42.168-123.781 -54.577  0.00  0.00     0.002 A 
ATOM      8  C   UNL d   1     -41.794-122.260 -55.105  0.00  0.00     0.000 A 
ATOM      9  C   UNL d   1     -42.159-123.615 -55.379  0.00  0.00     0.000 A 
ATOM     10  C   UNL d   1     -41.973-122.859 -55.641  0.00  0.00     0.000 A 
ENDROOT
BRANCH   1  11
ATOM     11  S   UNL d   1     -41.827-122.926 -51.860  0.00  0.00     0.271 S 
ATOM     12  O   UNL d   1     -42.440-122.391 -51.769  0.00  0.00    -0.200 OA
ATOM     13  O   UNL d   1     -41.217-123.457 -51.964  0.00  0.00    -0.200 OA
BRANCH  11  14
ATOM     14  C   UNL d   1     -41.836-123.082 -51.055  0.00  0.00     0.104 A 
ATOM     15  C   UNL d   1     -42.399-122.716 -50.571  0.00  0.00     0.015 A 
ATOM     16  C   UNL d   1     -42.407-122.872 -49.766  0.00  0.00     0.025 A 
ATOM     17  C   UNL d   1     -41.857-123.392 -49.435  0.00  0.00     0.094 A 
ATOM     18  C   UNL d   1     -41.299-123.752 -49.922  0.00  0.00     0.025 A 
ATOM     19  C   UNL d   1     -41.285-123.600 -50.734  0.00  0.00     0.015 A 
BRANCH  17  20
ATOM     20  O   UNL d   1     -41.865-123.548 -48.630  0.00  0.00    -0.328 OA
ATOM     21  C   UNL d   1     -42.509-123.305 -48.171  0.00  0.00     0.181 C 
ENDBRANCH  17  20
ENDBRANCH  11  14
ENDBRANCH   1  11
BRANCH   2  22
ATOM     22  C   UNL d   1     -41.453-121.402 -52.394  0.00  0.00     0.298 C 
ATOM     23  N   UNL d   1     -41.600-120.615 -52.582  0.00  0.00    -0.181 NA
ATOM     24  O   UNL d   1     -41.128-121.606 -51.661  0.00  0.00    -0.264 OA
BRANCH  23  25
ATOM     25  C   UNL d   1     -41.424-120.023 -52.038  0.00  0.00     0.197 A 
ATOM     26  N   UNL d   1     -41.309-120.011 -51.132  0.00  0.00    -0.219 NA
ATOM     27  C   UNL d   1     -41.127-119.176 -50.891  0.00  0.00     0.108 A 
ATOM     28  C   UNL d   1     -41.125-118.658 -51.632  0.00  0.00     0.059 A 
ATOM     29  S   UNL d   1     -41.309-119.178 -52.341  0.00  0.00    -0.046 SA
ENDBRANCH  23  25
ENDBRANCH   2  22
TORSDOF 5
ENDMDL
MODEL 2
REMARK VINA RESULT:       9.3      1.098      3.841
REMARK  5 active torsions:
REMARK  status: ('A' for Active; 'I' for Inactive)
REMARK    1  A    between atoms: N_2  and  S_1 
REMARK    2  A    between atoms: C_10  and  S_1 
REMARK    3  A    between atoms: C_4  and  C_3 
REMARK       I    between atoms: N_5  and  C_4 
REMARK    4  A    between atoms: C_6  and  N_5 
REMARK    5  A    between atoms: O_24  and  C_21 
ROOT
ATOM      1  N   UNL d   1     -41.984-122.410 -51.498  0.00  0.00    -0.226 N 
ATOM      2  C   UNL d   1     -41.762-121.712 -51.096  0.00  0.00     0.133 A 
ATOM      3  C   UNL d   1     -42.209-123.076 -51.072  0.00  0.00     0.092 A 
ATOM      4  C   UNL d   1     -41.767-121.687 -50.272  0.00  0.00     0.023 A 
ATOM      5  C   UNL d   1     -42.216-123.058 -50.245  0.00  0.00     0.018 A 
ATOM      6  C   UNL d   1     -41.993-122.357 -49.847  0.00  0.00     0.003 A 
ATOM      7  C   UNL d   1     -42.439-123.720 -49.816  0.00  0.00     0.002 A 
ATOM      8  C   UNL d   1     -41.999-122.339 -49.021  0.00  0.00     0.000 A 
ATOM      9  C   UNL d   1     -42.444-123.697 -48.997  0.00  0.00     0.000 A 
ATOM     10  C   UNL d   1     -42.226-123.010 -48.602  0.00  0.00     0.000 A 
ENDROOT
BRANCH   1  11
ATOM     11  S   UNL d   1     -41.976-122.424 -52.333  0.00  0.00     0.271 S 
ATOM     12  O   UNL d   1     -42.783-122.288 -52.334  0.00  0.00    -0.200 OA
ATOM     13  O   UNL d   1     -41.172-122.560 -52.318  0.00  0.00    -0.200 OA
BRANCH  11  14
ATOM     14  C   UNL d   1     -41.971-122.438 -53.153  0.00  0.00     0.104 A 
ATOM     15  C   UNL d   1     -42.480-121.940 -53.575  0.00  0.00     0.015 A 
ATOM     16  C   UNL d   1     -42.474-121.954 -54.395  0.00  0.00     0.025 A 
ATOM     17  C   UNL d   1     -41.964-122.461 -54.802  0.00  0.00     0.094 A 
ATOM     18  C   UNL d   1     -41.460-122.954 -54.375  0.00  0.00     0.025 A 
ATOM     19  C   UNL d   1     -41.460-122.946 -53.548  0.00  0.00     0.015 A 
BRANCH  17  20
ATOM     20  O   UNL d   1     -41.958-122.475 -55.622  0.00  0.00    -0.328 OA
ATOM     21  C   UNL d   1     -42.622-122.214 -56.042  0.00  0.00     0.181 C 
ENDBRANCH  17  20
ENDBRANCH  11  14
ENDBRANCH   1  11
BRANCH   2  22
ATOM     22  C   UNL d   1     -41.536-121.041 -51.532  0.00  0.00     0.298 C 
ATOM     23  N   UNL d   1     -41.726-120.291 -51.251  0.00  0.00    -0.181 NA
ATOM     24  O   UNL d   1     -41.123-121.132 -52.243  0.00  0.00    -0.264 OA
BRANCH  23  25
ATOM     25  C   UNL d   1     -41.504-119.624 -51.680  0.00  0.00     0.197 A 
ATOM     26  N   UNL d   1     -41.361-119.462 -52.567  0.00  0.00    -0.219 NA
ATOM     27  C   UNL d   1     -41.129-118.609 -52.654  0.00  0.00     0.108 A 
ATOM     28  C   UNL d   1     -41.124-118.229 -51.834  0.00  0.00     0.059 A 
ATOM     29  S   UNL d   1     -41.354-118.853 -51.231  0.00  0.00    -0.046 SA
ENDBRANCH  23  25
ENDBRANCH   2  22
TORSDOF 5
ENDMDL
