MODEL 1
REMARK VINA RESULT:      -7.3      0.000      0.000
REMARK  5 active torsions:
REMARK  status: ('A' for Active; 'I' for Inactive)
REMARK    1  A    between atoms: C_2  and  N_1 
REMARK    2  A    between atoms: C_5  and  C_18 
REMARK       I    between atoms: N_9  and  C_5 
REMARK    3  A    between atoms: O_15  and  C_7 
REMARK    4  A    between atoms: C_13  and  N_9 
REMARK    5  A    between atoms: C_18  and  O_15 
ROOT
ATOM      1  C   UNL d   1     -47.693  13.962  22.622  0.00  0.00     0.304 C 
ATOM      2  N   UNL d   1     -47.005  13.978  23.079  0.00  0.00    -0.206 NA
ATOM      3  O   UNL d   1     -47.752  13.440  21.986  0.00  0.00    -0.263 OA
ENDROOT
BRANCH   1   4
ATOM      4  C   UNL d   1     -48.320  14.468  22.801  0.00  0.00     0.185 C 
BRANCH   4   5
ATOM      5  O   UNL d   1     -49.089  14.173  22.838  0.00  0.00    -0.298 OA
BRANCH   5   6
ATOM      6  C   UNL d   1     -49.699  14.649  23.124  0.00  0.00     0.122 A 
ATOM      7  C   UNL d   1     -50.454  14.318  23.253  0.00  0.00     0.149 A 
ATOM      8  C   UNL d   1     -51.064  14.794  23.540  0.00  0.00     0.026 A 
ATOM      9  C   UNL d   1     -50.919  15.600  23.698  0.00  0.00     0.002 A 
ATOM     10  C   UNL d   1     -50.172  15.922  23.569  0.00  0.00     0.002 A 
ATOM     11  C   UNL d   1     -49.561  15.446  23.283  0.00  0.00     0.026 A 
BRANCH   7  12
ATOM     12  N   UNL d   1     -50.587  13.527  23.095  0.00  0.00    -0.112 N 
ATOM     13  O   UNL d   1     -50.811  13.295  22.336  0.00  0.00    -0.532 OA
ATOM     14  O   UNL d   1     -50.497  12.963  23.690  0.00  0.00    -0.532 OA
ENDBRANCH   7  12
ENDBRANCH   5   6
ENDBRANCH   4   5
ENDBRANCH   1   4
BRANCH   2  15
ATOM     15  C   UNL d   1     -46.378  13.473  22.900  0.00  0.00     0.087 A 
ATOM     16  C   UNL d   1     -45.760  13.737  22.421  0.00  0.00     0.045 A 
ATOM     17  C   UNL d   1     -45.134  13.231  22.241  0.00  0.00     0.121 A 
ATOM     18  O   UNL d   1     -44.454  13.337  21.787  0.00  0.00    -0.299 OA
ATOM     19  C   UNL d   1     -45.125  12.462  22.541  0.00  0.00     0.119 A 
ATOM     20  C   UNL d   1     -44.020  12.636  21.803  0.00  0.00     0.304 A 
ATOM     21  O   UNL d   1     -44.438  12.093  22.271  0.00  0.00    -0.300 OA
ATOM     22  C   UNL d   1     -45.740  12.205  23.016  0.00  0.00     0.028 A 
ATOM     23  C   UNL d   1     -46.366  12.711  23.195  0.00  0.00     0.021 A 
ENDBRANCH   2  15
TORSDOF 5
ENDMDL
MODEL 2
REMARK VINA RESULT:      -7.3      0.648      1.180
REMARK  5 active torsions:
REMARK  status: ('A' for Active; 'I' for Inactive)
REMARK    1  A    between atoms: C_2  and  N_1 
REMARK    2  A    between atoms: C_5  and  C_18 
REMARK       I    between atoms: N_9  and  C_5 
REMARK    3  A    between atoms: O_15  and  C_7 
REMARK    4  A    between atoms: C_13  and  N_9 
REMARK    5  A    between atoms: C_18  and  O_15 
ROOT
ATOM      1  C   UNL d   1     -47.773  13.760  22.547  0.00  0.00     0.304 C 
ATOM      2  N   UNL d   1     -47.140  13.777  23.078  0.00  0.00    -0.206 NA
ATOM      3  O   UNL d   1     -47.799  13.187  21.955  0.00  0.00    -0.263 OA
ENDROOT
BRANCH   1   4
ATOM      4  C   UNL d   1     -48.378  14.318  22.610  0.00  0.00     0.185 C 
BRANCH   4   5
ATOM      5  O   UNL d   1     -49.156  14.070  22.719  0.00  0.00    -0.298 OA
BRANCH   5   6
ATOM      6  C   UNL d   1     -49.721  14.599  23.006  0.00  0.00     0.122 A 
ATOM      7  C   UNL d   1     -50.500  14.335  23.147  0.00  0.00     0.149 A 
ATOM      8  C   UNL d   1     -51.064  14.865  23.433  0.00  0.00     0.026 A 
ATOM      9  C   UNL d   1     -50.850  15.657  23.578  0.00  0.00     0.002 A 
ATOM     10  C   UNL d   1     -50.080  15.914  23.436  0.00  0.00     0.002 A 
ATOM     11  C   UNL d   1     -49.515  15.385  23.150  0.00  0.00     0.026 A 
BRANCH   7  12
ATOM     12  N   UNL d   1     -50.700  13.556  23.002  0.00  0.00    -0.112 N 
ATOM     13  O   UNL d   1     -50.577  12.988  23.587  0.00  0.00    -0.532 OA
ATOM     14  O   UNL d   1     -51.025  13.337  22.276  0.00  0.00    -0.532 OA
ENDBRANCH   7  12
ENDBRANCH   5   6
ENDBRANCH   4   5
ENDBRANCH   1   4
BRANCH   2  15
ATOM     15  C   UNL d   1     -46.535  13.219  23.015  0.00  0.00     0.087 A 
ATOM     16  C   UNL d   1     -46.590  12.504  23.424  0.00  0.00     0.045 A 
ATOM     17  C   UNL d   1     -45.985  11.947  23.362  0.00  0.00     0.121 A 
ATOM     18  O   UNL d   1     -45.888  11.201  23.698  0.00  0.00    -0.299 OA
ATOM     19  C   UNL d   1     -45.325  12.105  22.891  0.00  0.00     0.119 A 
ATOM     20  C   UNL d   1     -45.169  10.891  23.438  0.00  0.00     0.304 A 
ATOM     21  O   UNL d   1     -44.821  11.454  22.937  0.00  0.00    -0.300 OA
ATOM     22  C   UNL d   1     -45.276  12.815  22.488  0.00  0.00     0.028 A 
ATOM     23  C   UNL d   1     -45.881  13.372  22.550  0.00  0.00     0.021 A 
ENDBRANCH   2  15
TORSDOF 5
ENDMDL
MODEL 3
REMARK VINA RESULT:      -5.8      2.143      5.443
REMARK  5 active torsions:
REMARK  status: ('A' for Active; 'I' for Inactive)
REMARK    1  A    between atoms: C_2  and  N_1 
REMARK    2  A    between atoms: C_5  and  C_18 
REMARK       I    between atoms: N_9  and  C_5 
REMARK    3  A    between atoms: O_15  and  C_7 
REMARK    4  A    between atoms: C_13  and  N_9 
REMARK    5  A    between atoms: C_18  and  O_15 
ROOT
ATOM      1  C   UNL d   1     -47.594  11.828  23.430  0.00  0.00     0.304 C 
ATOM      2  N   UNL d   1     -48.219  11.413  23.084  0.00  0.00    -0.206 NA
ATOM      3  O   UNL d   1     -47.697  12.615  23.654  0.00  0.00    -0.263 OA
ENDROOT
BRANCH   1   4
ATOM      4  C   UNL d   1     -46.868  11.455  23.551  0.00  0.00     0.185 C 
BRANCH   4   5
ATOM      5  O   UNL d   1     -46.178  11.790  23.249  0.00  0.00    -0.298 OA
BRANCH   5   6
ATOM      6  C   UNL d   1     -45.470  11.367  23.274  0.00  0.00     0.122 A 
ATOM      7  C   UNL d   1     -44.793  11.673  22.894  0.00  0.00     0.149 A 
ATOM      8  C   UNL d   1     -44.084  11.251  22.919  0.00  0.00     0.026 A 
ATOM      9  C   UNL d   1     -44.053  10.523  23.324  0.00  0.00     0.002 A 
ATOM     10  C   UNL d   1     -44.724  10.224  23.698  0.00  0.00     0.002 A 
ATOM     11  C   UNL d   1     -45.433  10.646  23.673  0.00  0.00     0.026 A 
BRANCH   7  12
ATOM     12  N   UNL d   1     -44.833  12.389  22.500  0.00  0.00    -0.112 N 
ATOM     13  O   UNL d   1     -44.680  12.417  21.690  0.00  0.00    -0.532 OA
ATOM     14  O   UNL d   1     -45.026  13.079  22.908  0.00  0.00    -0.532 OA
ENDBRANCH   7  12
ENDBRANCH   5   6
ENDBRANCH   4   5
ENDBRANCH   1   4
BRANCH   2  15
ATOM     15  C   UNL d   1     -48.945  11.785  22.963  0.00  0.00     0.087 A 
ATOM     16  C   UNL d   1     -49.104  12.153  22.242  0.00  0.00     0.045 A 
ATOM     17  C   UNL d   1     -49.830  12.525  22.121  0.00  0.00     0.121 A 
ATOM     18  O   UNL d   1     -50.140  12.929  21.473  0.00  0.00    -0.299 OA
ATOM     19  C   UNL d   1     -50.397  12.530  22.722  0.00  0.00     0.119 A 
ATOM     20  C   UNL d   1     -50.899  13.187  21.667  0.00  0.00     0.304 A 
ATOM     21  O   UNL d   1     -51.057  12.938  22.443  0.00  0.00    -0.300 OA
ATOM     22  C   UNL d   1     -50.234  12.165  23.435  0.00  0.00     0.028 A 
ATOM     23  C   UNL d   1     -49.508  11.792  23.556  0.00  0.00     0.021 A 
ENDBRANCH   2  15
TORSDOF 5
ENDMDL
MODEL 4
REMARK VINA RESULT:      -5.4      1.349      5.157
REMARK  5 active torsions:
REMARK  status: ('A' for Active; 'I' for Inactive)
REMARK    1  A    between atoms: C_2  and  N_1 
REMARK    2  A    between atoms: C_5  and  C_18 
REMARK       I    between atoms: N_9  and  C_5 
REMARK    3  A    between atoms: O_15  and  C_7 
REMARK    4  A    between atoms: C_13  and  N_9 
REMARK    5  A    between atoms: C_18  and  O_15 
ROOT
ATOM      1  C   UNL d   1     -48.265  12.683  22.873  0.00  0.00     0.304 C 
ATOM      2  N   UNL d   1     -48.720  13.018  23.476  0.00  0.00    -0.206 NA
ATOM      3  O   UNL d   1     -48.426  12.867  22.086  0.00  0.00    -0.263 OA
ENDROOT
BRANCH   1   4
ATOM      4  C   UNL d   1     -47.651  12.165  23.059  0.00  0.00     0.185 C 
BRANCH   4   5
ATOM      5  O   UNL d   1     -46.868  12.396  22.945  0.00  0.00    -0.298 OA
BRANCH   5   6
ATOM      6  C   UNL d   1     -46.254  11.873  23.118  0.00  0.00     0.122 A 
ATOM      7  C   UNL d   1     -45.476  12.057  22.880  0.00  0.00     0.149 A 
ATOM      8  C   UNL d   1     -44.862  11.533  23.053  0.00  0.00     0.026 A 
ATOM      9  C   UNL d   1     -45.026  10.827  23.464  0.00  0.00     0.002 A 
ATOM     10  C   UNL d   1     -45.797  10.650  23.698  0.00  0.00     0.002 A 
ATOM     11  C   UNL d   1     -46.411  11.173  23.525  0.00  0.00     0.026 A 
BRANCH   7  12
ATOM     12  N   UNL d   1     -45.325  12.752  22.476  0.00  0.00    -0.112 N 
ATOM     13  O   UNL d   1     -45.127  12.725  21.676  0.00  0.00    -0.532 OA
ATOM     14  O   UNL d   1     -45.369  13.478  22.867  0.00  0.00    -0.532 OA
ENDBRANCH   7  12
ENDBRANCH   5   6
ENDBRANCH   4   5
ENDBRANCH   1   4
BRANCH   2  15
ATOM     15  C   UNL d   1     -49.334  13.536  23.290  0.00  0.00     0.087 A 
ATOM     16  C   UNL d   1     -49.232  14.349  23.392  0.00  0.00     0.045 A 
ATOM     17  C   UNL d   1     -49.847  14.867  23.206  0.00  0.00     0.121 A 
ATOM     18  O   UNL d   1     -49.906  15.689  23.249  0.00  0.00    -0.299 OA
ATOM     19  C   UNL d   1     -50.563  14.573  22.919  0.00  0.00     0.119 A 
ATOM     20  C   UNL d   1     -50.657  15.908  22.989  0.00  0.00     0.304 A 
ATOM     21  O   UNL d   1     -51.064  15.214  22.785  0.00  0.00    -0.300 OA
ATOM     22  C   UNL d   1     -50.659  13.767  22.820  0.00  0.00     0.028 A 
ATOM     23  C   UNL d   1     -50.044  13.249  23.006  0.00  0.00     0.021 A 
ENDBRANCH   2  15
TORSDOF 5
ENDMDL
