MODEL 1
REMARK VINA RESULT:      53.7      0.000      0.000
REMARK  5 active torsions:
REMARK  status: ('A' for Active; 'I' for Inactive)
REMARK    1  A    between atoms: N_2  and  C_1 
REMARK    2  A    between atoms: C_4  and  C_8 
REMARK    3  A    between atoms: N_15  and  C_5 
REMARK    4  A    between atoms: C_19  and  N_15 
REMARK    5  A    between atoms: C_20  and  N_15 
ROOT
ATOM      1  C   UNL d   1      60.214  48.685  50.897  0.00  0.00     0.143 A 
ATOM      2  C   UNL d   1      60.290  49.106  51.600  0.00  0.00     0.086 A 
ATOM      3  C   UNL d   1      59.534  48.771  50.431  0.00  0.00     0.027 A 
ATOM      4  C   UNL d   1      58.926  49.285  50.677  0.00  0.00     0.021 A 
ATOM      5  C   UNL d   1      59.688  49.615  51.843  0.00  0.00     0.019 A 
ATOM      6  C   UNL d   1      59.005  49.708  51.386  0.00  0.00     0.003 A 
ENDROOT
BRANCH   4   7
ATOM      7  C   UNL d   1      58.250  49.372  50.218  0.00  0.00     0.103 A 
ATOM      8  N   UNL d   1      58.317  49.493  49.403  0.00  0.00    -0.145 NA
ATOM      9  N   UNL d   1      57.640  49.581  48.943  0.00  0.00    -0.106 NA
ATOM     10  C   UNL d   1      56.895  49.548  49.294  0.00  0.00     0.297 A 
ATOM     11  C   UNL d   1      56.829  49.426  50.109  0.00  0.00     0.066 A 
ATOM     12  O   UNL d   1      56.219  49.635  48.835  0.00  0.00    -0.264 OA
ATOM     13  C   UNL d   1      57.508  49.337  50.576  0.00  0.00     0.024 A 
ATOM     14  C   UNL d   1      57.440  49.217  51.386  0.00  0.00     0.002 C 
ENDBRANCH   4   7
BRANCH   1  15
ATOM     15  N   UNL d   1      60.815  48.173  50.647  0.00  0.00    -0.112 N 
ATOM     16  O   UNL d   1      61.317  48.408  50.030  0.00  0.00    -0.532 OA
ATOM     17  O   UNL d   1      60.914  47.438  51.004  0.00  0.00    -0.532 OA
ENDBRANCH   1  15
BRANCH   2  18
ATOM     18  N   UNL d   1      60.966  49.019  52.060  0.00  0.00    -0.302 N 
BRANCH  18  19
ATOM     19  C   UNL d   1      60.955  48.521  52.713  0.00  0.00     0.080 C 
ATOM     20  C   UNL d   1      61.196  48.802  53.451  0.00  0.00     0.021 C 
ENDBRANCH  18  19
BRANCH  18  21
ATOM     21  C   UNL d   1      61.653  49.431  51.866  0.00  0.00     0.080 C 
ATOM     22  C   UNL d   1      62.182  49.652  52.455  0.00  0.00     0.021 C 
ENDBRANCH  18  21
ENDBRANCH   2  18
TORSDOF 5
ENDMDL
MODEL 2
REMARK VINA RESULT:      55.1      1.205      4.065
REMARK  5 active torsions:
REMARK  status: ('A' for Active; 'I' for Inactive)
REMARK    1  A    between atoms: N_2  and  C_1 
REMARK    2  A    between atoms: C_4  and  C_8 
REMARK    3  A    between atoms: N_15  and  C_5 
REMARK    4  A    between atoms: C_19  and  N_15 
REMARK    5  A    between atoms: C_20  and  N_15 
ROOT
ATOM      1  C   UNL d   1      57.807  49.092  50.065  0.00  0.00     0.143 A 
ATOM      2  C   UNL d   1      57.330  49.398  50.662  0.00  0.00     0.086 A 
ATOM      3  C   UNL d   1      58.632  49.089  50.151  0.00  0.00     0.027 A 
ATOM      4  C   UNL d   1      58.977  49.399  50.843  0.00  0.00     0.021 A 
ATOM      5  C   UNL d   1      57.672  49.704  51.347  0.00  0.00     0.019 A 
ATOM      6  C   UNL d   1      58.493  49.707  51.442  0.00  0.00     0.003 A 
ENDROOT
BRANCH   4   7
ATOM      7  C   UNL d   1      59.794  49.398  50.931  0.00  0.00     0.103 A 
ATOM      8  N   UNL d   1      60.129  49.244  51.670  0.00  0.00    -0.145 NA
ATOM      9  N   UNL d   1      60.947  49.244  51.759  0.00  0.00    -0.106 NA
ATOM     10  C   UNL d   1      61.433  49.397  51.111  0.00  0.00     0.297 A 
ATOM     11  C   UNL d   1      61.098  49.551  50.372  0.00  0.00     0.066 A 
ATOM     12  O   UNL d   1      62.250  49.397  51.200  0.00  0.00    -0.264 OA
ATOM     13  C   UNL d   1      60.273  49.552  50.279  0.00  0.00     0.024 A 
ATOM     14  C   UNL d   1      59.941  49.706  49.542  0.00  0.00     0.002 C 
ENDBRANCH   4   7
BRANCH   1  15
ATOM     15  N   UNL d   1      57.471  48.782  49.375  0.00  0.00    -0.112 N 
ATOM     16  O   UNL d   1      57.685  48.021  49.126  0.00  0.00    -0.532 OA
ATOM     17  O   UNL d   1      56.930  49.223  48.938  0.00  0.00    -0.532 OA
ENDBRANCH   1  15
BRANCH   2  18
ATOM     18  N   UNL d   1      56.512  49.399  50.574  0.00  0.00    -0.302 N 
BRANCH  18  19
ATOM     19  C   UNL d   1      56.033  49.176  51.203  0.00  0.00     0.080 C 
ATOM     20  C   UNL d   1      56.138  49.524  51.945  0.00  0.00     0.021 C 
ENDBRANCH  18  19
BRANCH  18  21
ATOM     21  C   UNL d   1      56.175  49.621  49.856  0.00  0.00     0.080 C 
ATOM     22  C   UNL d   1      56.148  49.089  49.230  0.00  0.00     0.021 C 
ENDBRANCH  18  21
ENDBRANCH   2  18
TORSDOF 5
ENDMDL
