MODEL 1
REMARK VINA RESULT:      -8.3      0.000      0.000
REMARK  0 active torsions:
REMARK  status: ('A' for Active; 'I' for Inactive)
ROOT
ATOM      1  C   UNL d   1      53.408  33.703  54.301  0.00  0.00     0.061 A 
ATOM      2  C   UNL d   1      53.250  34.475  54.546  0.00  0.00     0.279 A 
ATOM      3  C   UNL d   1      53.074  33.416  53.606  0.00  0.00     0.045 A 
ATOM      4  N   UNL d   1      52.760  34.955  54.096  0.00  0.00    -0.206 NA
ATOM      5  C   UNL d   1      53.235  32.640  53.363  0.00  0.00     0.196 A 
ATOM      6  O   UNL d   1      53.585  34.762  55.241  0.00  0.00    -0.265 OA
ATOM      7  C   UNL d   1      52.426  34.663  53.398  0.00  0.00     0.102 A 
ATOM      8  O   UNL d   1      52.900  32.353  52.668  0.00  0.00    -0.287 OA
ATOM      9  C   UNL d   1      52.588  33.890  53.158  0.00  0.00     0.024 A 
ATOM     10  C   UNL d   1      53.906  33.217  54.760  0.00  0.00     0.005 A 
ATOM     11  C   UNL d   1      54.062  32.450  54.515  0.00  0.00     0.003 A 
ATOM     12  C   UNL d   1      53.728  32.162  53.819  0.00  0.00     0.042 A 
ENDROOT
TORSDOF 0
ENDMDL
MODEL 2
REMARK VINA RESULT:      -8.3      0.752      1.959
REMARK  0 active torsions:
REMARK  status: ('A' for Active; 'I' for Inactive)
ROOT
ATOM      1  C   UNL d   1      53.223  33.022  53.699  0.00  0.00     0.061 A 
ATOM      2  C   UNL d   1      52.748  32.820  53.056  0.00  0.00     0.279 A 
ATOM      3  C   UNL d   1      53.127  33.751  54.069  0.00  0.00     0.045 A 
ATOM      4  N   UNL d   1      52.179  33.347  52.787  0.00  0.00    -0.206 NA
ATOM      5  C   UNL d   1      53.606  33.951  54.715  0.00  0.00     0.196 A 
ATOM      6  O   UNL d   1      52.844  32.091  52.686  0.00  0.00    -0.265 OA
ATOM      7  C   UNL d   1      52.084  34.078  53.161  0.00  0.00     0.102 A 
ATOM      8  O   UNL d   1      53.510  34.680  55.085  0.00  0.00    -0.287 OA
ATOM      9  C   UNL d   1      52.564  34.275  53.804  0.00  0.00     0.024 A 
ATOM     10  C   UNL d   1      53.801  32.486  53.972  0.00  0.00     0.005 A 
ATOM     11  C   UNL d   1      54.273  32.688  54.612  0.00  0.00     0.003 A 
ATOM     12  C   UNL d   1      54.176  33.418  54.982  0.00  0.00     0.042 A 
ENDROOT
TORSDOF 0
ENDMDL
MODEL 3
REMARK VINA RESULT:      -8.1      0.922      1.671
REMARK  0 active torsions:
REMARK  status: ('A' for Active; 'I' for Inactive)
ROOT
ATOM      1  C   UNL d   1      53.367  33.747  54.286  0.00  0.00     0.061 A 
ATOM      2  C   UNL d   1      53.641  34.341  54.788  0.00  0.00     0.279 A 
ATOM      3  C   UNL d   1      53.803  33.055  54.192  0.00  0.00     0.045 A 
ATOM      4  N   UNL d   1      54.348  34.242  55.194  0.00  0.00    -0.206 NA
ATOM      5  C   UNL d   1      53.525  32.459  53.687  0.00  0.00     0.196 A 
ATOM      6  O   UNL d   1      53.205  35.033  54.882  0.00  0.00    -0.265 OA
ATOM      7  C   UNL d   1      54.783  33.545  55.097  0.00  0.00     0.102 A 
ATOM      8  O   UNL d   1      53.961  31.767  53.593  0.00  0.00    -0.287 OA
ATOM      9  C   UNL d   1      54.504  32.953  54.593  0.00  0.00     0.024 A 
ATOM     10  C   UNL d   1      52.649  33.849  53.875  0.00  0.00     0.005 A 
ATOM     11  C   UNL d   1      52.378  33.257  53.376  0.00  0.00     0.003 A 
ATOM     12  C   UNL d   1      52.814  32.565  53.283  0.00  0.00     0.042 A 
ENDROOT
TORSDOF 0
ENDMDL
MODEL 4
REMARK VINA RESULT:      -7.8      1.321      2.126
REMARK  0 active torsions:
REMARK  status: ('A' for Active; 'I' for Inactive)
ROOT
ATOM      1  C   UNL d   1      53.544  32.651  54.076  0.00  0.00     0.061 A 
ATOM      2  C   UNL d   1      53.400  31.914  53.734  0.00  0.00     0.279 A 
ATOM      3  C   UNL d   1      53.215  33.329  53.745  0.00  0.00     0.045 A 
ATOM      4  N   UNL d   1      52.929  31.859  53.064  0.00  0.00    -0.206 NA
ATOM      5  C   UNL d   1      53.362  34.068  54.091  0.00  0.00     0.196 A 
ATOM      6  O   UNL d   1      53.728  31.236  54.066  0.00  0.00    -0.265 OA
ATOM      7  C   UNL d   1      52.601  32.542  52.734  0.00  0.00     0.102 A 
ATOM      8  O   UNL d   1      53.034  34.746  53.760  0.00  0.00    -0.287 OA
ATOM      9  C   UNL d   1      52.749  33.277  53.081  0.00  0.00     0.024 A 
ATOM     10  C   UNL d   1      54.022  32.705  54.757  0.00  0.00     0.005 A 
ATOM     11  C   UNL d   1      54.164  33.439  55.096  0.00  0.00     0.003 A 
ATOM     12  C   UNL d   1      53.835  34.117  54.764  0.00  0.00     0.042 A 
ENDROOT
TORSDOF 0
ENDMDL
