MODEL 1
REMARK VINA RESULT:      30.6      0.000      0.000
REMARK  3 active torsions:
REMARK  status: ('A' for Active; 'I' for Inactive)
REMARK    1  A    between atoms: S_12  and  C_7 
REMARK    2  A    between atoms: C_10  and  C_13 
REMARK    3  A    between atoms: C_13  and  S_12 
ROOT
ATOM      1  N   UNL d   1      46.264 -18.072  41.385  0.00  0.00    -0.224 N 
ATOM      2  N   UNL d   1      46.491 -19.324  42.049  0.00  0.00    -0.241 N 
ATOM      3  C   UNL d   1      46.419 -18.890  41.353  0.00  0.00     0.343 A 
ATOM      4  C   UNL d   1      46.408 -18.941  42.785  0.00  0.00     0.160 A 
ATOM      5  C   UNL d   1      46.183 -17.697  42.114  0.00  0.00     0.273 A 
ATOM      6  C   UNL d   1      46.254 -18.131  42.817  0.00  0.00     0.115 A 
ATOM      7  C   UNL d   1      46.173 -17.755  43.537  0.00  0.00     0.120 A 
ATOM      8  N   UNL d   1      46.480 -19.376  43.485  0.00  0.00    -0.209 NA
ATOM      9  N   UNL d   1      46.244 -18.185  44.241  0.00  0.00    -0.220 NA
ATOM     10  C   UNL d   1      46.398 -18.999  44.212  0.00  0.00     0.165 A 
ATOM     11  O   UNL d   1      46.501 -19.266  40.625  0.00  0.00    -0.245 OA
ATOM     12  O   UNL d   1      46.029 -16.887  42.146  0.00  0.00    -0.266 OA
ATOM     13  C   UNL d   1      46.194 -17.646  40.690  0.00  0.00     0.107 C 
ATOM     14  C   UNL d   1      46.644 -20.135  42.025  0.00  0.00     0.105 C 
ATOM     15  C   UNL d   1      46.469 -19.429  44.909  0.00  0.00     0.042 C 
ENDROOT
BRANCH   7  16
ATOM     16  S   UNL d   1      46.019 -16.945  43.570  0.00  0.00    -0.067 SA
BRANCH  16  17
ATOM     17  C   UNL d   1      45.431 -16.652  44.069  0.00  0.00     0.040 C 
BRANCH  17  18
ATOM     18  C   UNL d   1      45.406 -15.849  44.256  0.00  0.00     0.045 A 
ATOM     19  C   UNL d   1      44.766 -15.551  44.689  0.00  0.00     0.060 A 
ATOM     20 CL   UNL d   1      44.158 -16.058  44.929  0.00  0.00    -0.082 Cl
ATOM     21  C   UNL d   1      44.727 -14.750  44.884  0.00  0.00     0.012 A 
ATOM     22  C   UNL d   1      45.334 -14.247  44.643  0.00  0.00     0.003 A 
ATOM     23  C   UNL d   1      45.978 -14.528  44.212  0.00  0.00     0.030 A 
ATOM     24  C   UNL d   1      46.013 -15.330  44.019  0.00  0.00     0.141 A 
ATOM     25  F   UNL d   1      46.647 -15.621  43.592  0.00  0.00    -0.204 F 
ENDBRANCH  17  18
ENDBRANCH  16  17
ENDBRANCH   7  16
TORSDOF 3
ENDMDL
