MODEL 1
REMARK VINA RESULT:      -3.0      0.000      0.000
REMARK  2 active torsions:
REMARK  status: ('A' for Active; 'I' for Inactive)
REMARK    1  A    between atoms: C_6  and  C_1 
REMARK    2  A    between atoms: C_8  and  C_5 
ROOT
ATOM      1  C   UNL d   1      32.598  21.130 -21.368  0.00  0.00     0.169 A 
ATOM      2  C   UNL d   1      32.835  21.925 -21.325  0.00  0.00     0.048 A 
ATOM      3  N   UNL d   1      31.644  21.816 -20.746  0.00  0.00    -0.148 NA
ATOM      4  N   UNL d   1      31.856  21.063 -21.007  0.00  0.00    -0.142 NA
ATOM      5  C   UNL d   1      32.254  22.341 -20.947  0.00  0.00     0.105 A 
ENDROOT
BRANCH   1   6
ATOM      6  C   UNL d   1      33.024  20.512 -21.710  0.00  0.00     0.231 C 
ATOM      7  O   UNL d   1      33.241  19.856 -21.258  0.00  0.00    -0.643 OA
ATOM      8  O   UNL d   1      33.233  20.551 -22.509  0.00  0.00    -0.643 OA
ENDBRANCH   1   6
BRANCH   5   9
ATOM      9  C   UNL d   1      32.268  23.152 -20.788  0.00  0.00     0.019 C 
ATOM     10  C   UNL d   1      32.626  23.432 -20.108  0.00  0.00     0.002 C 
ATOM     11  C   UNL d   1      31.921  23.677 -21.316  0.00  0.00     0.002 C 
ENDBRANCH   5   9
TORSDOF 2
ENDMDL
MODEL 2
REMARK VINA RESULT:      -2.4      6.396      7.217
REMARK  2 active torsions:
REMARK  status: ('A' for Active; 'I' for Inactive)
REMARK    1  A    between atoms: C_6  and  C_1 
REMARK    2  A    between atoms: C_8  and  C_5 
ROOT
ATOM      1  C   UNL d   1      29.093  15.901 -23.361  0.00  0.00     0.169 A 
ATOM      2  C   UNL d   1      29.725  16.154 -23.837  0.00  0.00     0.048 A 
ATOM      3  N   UNL d   1      30.225  15.458 -22.821  0.00  0.00    -0.148 NA
ATOM      4  N   UNL d   1      29.405  15.467 -22.728  0.00  0.00    -0.142 NA
ATOM      5  C   UNL d   1      30.413  15.884 -23.507  0.00  0.00     0.105 A 
ENDROOT
BRANCH   1   6
ATOM      6  C   UNL d   1      28.293  16.052 -23.491  0.00  0.00     0.231 C 
ATOM      7  O   UNL d   1      27.976  16.793 -23.317  0.00  0.00    -0.643 OA
ATOM      8  O   UNL d   1      27.808  15.456 -23.798  0.00  0.00    -0.643 OA
ENDBRANCH   1   6
BRANCH   5   9
ATOM      9  C   UNL d   1      31.173  16.013 -23.806  0.00  0.00     0.019 C 
ATOM     10  C   UNL d   1      31.526  15.454 -24.287  0.00  0.00     0.002 C 
ATOM     11  C   UNL d   1      31.573  16.706 -23.618  0.00  0.00     0.002 C 
ENDBRANCH   5   9
TORSDOF 2
ENDMDL
MODEL 3
REMARK VINA RESULT:      -2.2      6.270      7.067
REMARK  2 active torsions:
REMARK  status: ('A' for Active; 'I' for Inactive)
REMARK    1  A    between atoms: C_6  and  C_1 
REMARK    2  A    between atoms: C_8  and  C_5 
ROOT
ATOM      1  C   UNL d   1      29.138  16.316 -23.894  0.00  0.00     0.169 A 
ATOM      2  C   UNL d   1      29.847  16.105 -23.517  0.00  0.00     0.048 A 
ATOM      3  N   UNL d   1      30.150  16.652 -24.690  0.00  0.00    -0.148 NA
ATOM      4  N   UNL d   1      29.328  16.657 -24.625  0.00  0.00    -0.142 NA
ATOM      5  C   UNL d   1      30.462  16.309 -24.002  0.00  0.00     0.105 A 
ENDROOT
BRANCH   1   6
ATOM      6  C   UNL d   1      28.377  16.208 -23.598  0.00  0.00     0.231 C 
ATOM      7  O   UNL d   1      28.000  15.478 -23.675  0.00  0.00    -0.643 OA
ATOM      8  O   UNL d   1      27.990  16.835 -23.222  0.00  0.00    -0.643 OA
ENDBRANCH   1   6
BRANCH   5   9
ATOM      9  C   UNL d   1      31.264  16.195 -23.837  0.00  0.00     0.019 C 
ATOM     10  C   UNL d   1      31.597  15.453 -23.910  0.00  0.00     0.002 C 
ATOM     11  C   UNL d   1      31.726  16.832 -23.598  0.00  0.00     0.002 C 
ENDBRANCH   5   9
TORSDOF 2
ENDMDL
MODEL 4
REMARK VINA RESULT:      -2.2      6.197      6.828
REMARK  2 active torsions:
REMARK  status: ('A' for Active; 'I' for Inactive)
REMARK    1  A    between atoms: C_6  and  C_1 
REMARK    2  A    between atoms: C_8  and  C_5 
ROOT
ATOM      1  C   UNL d   1      30.845  16.202 -23.722  0.00  0.00     0.169 A 
ATOM      2  C   UNL d   1      30.099  16.462 -23.979  0.00  0.00     0.048 A 
ATOM      3  N   UNL d   1      29.916  15.482 -23.099  0.00  0.00    -0.148 NA
ATOM      4  N   UNL d   1      30.730  15.592 -23.174  0.00  0.00    -0.142 NA
ATOM      5  C   UNL d   1      29.535  16.023 -23.599  0.00  0.00     0.105 A 
ENDROOT
BRANCH   1   6
ATOM      6  C   UNL d   1      31.575  16.496 -23.967  0.00  0.00     0.231 C 
ATOM      7  O   UNL d   1      31.982  16.136 -24.587  0.00  0.00    -0.643 OA
ATOM      8  O   UNL d   1      31.898  17.157 -23.589  0.00  0.00    -0.643 OA
ENDBRANCH   1   6
BRANCH   5   9
ATOM      9  C   UNL d   1      28.717  16.103 -23.695  0.00  0.00     0.019 C 
ATOM     10  C   UNL d   1      28.260  15.453 -23.887  0.00  0.00     0.002 C 
ATOM     11  C   UNL d   1      28.365  16.839 -23.597  0.00  0.00     0.002 C 
ENDBRANCH   5   9
TORSDOF 2
ENDMDL
MODEL 5
REMARK VINA RESULT:      -2.1      4.582      5.386
REMARK  2 active torsions:
REMARK  status: ('A' for Active; 'I' for Inactive)
REMARK    1  A    between atoms: C_6  and  C_1 
REMARK    2  A    between atoms: C_8  and  C_5 
ROOT
ATOM      1  C   UNL d   1      31.735  16.612 -23.603  0.00  0.00     0.169 A 
ATOM      2  C   UNL d   1      31.801  17.440 -23.623  0.00  0.00     0.048 A 
ATOM      3  N   UNL d   1      32.979  16.939 -23.263  0.00  0.00    -0.148 NA
ATOM      4  N   UNL d   1      32.469  16.300 -23.379  0.00  0.00    -0.142 NA
ATOM      5  C   UNL d   1      32.558  17.637 -23.416  0.00  0.00     0.105 A 
ENDROOT
BRANCH   1   6
ATOM      6  C   UNL d   1      31.059  16.172 -23.775  0.00  0.00     0.231 C 
ATOM      7  O   UNL d   1      30.562  15.917 -23.168  0.00  0.00    -0.643 OA
ATOM      8  O   UNL d   1      30.880  15.986 -24.562  0.00  0.00    -0.643 OA
ENDBRANCH   1   6
BRANCH   5   9
ATOM      9  C   UNL d   1      32.859  18.406 -23.366  0.00  0.00     0.019 C 
ATOM     10  C   UNL d   1      32.963  18.851 -24.043  0.00  0.00     0.002 C 
ATOM     11  C   UNL d   1      33.052  18.720 -22.632  0.00  0.00     0.002 C 
ENDBRANCH   5   9
TORSDOF 2
ENDMDL
MODEL 6
REMARK VINA RESULT:      -1.8      2.420      3.143
REMARK  2 active torsions:
REMARK  status: ('A' for Active; 'I' for Inactive)
REMARK    1  A    between atoms: C_6  and  C_1 
REMARK    2  A    between atoms: C_8  and  C_5 
ROOT
ATOM      1  C   UNL d   1      32.767  23.034 -18.977  0.00  0.00     0.169 A 
ATOM      2  C   UNL d   1      32.852  22.386 -19.489  0.00  0.00     0.048 A 
ATOM      3  N   UNL d   1      32.540  23.452 -20.219  0.00  0.00    -0.148 NA
ATOM      4  N   UNL d   1      32.573  23.698 -19.432  0.00  0.00    -0.142 NA
ATOM      5  C   UNL d   1      32.713  22.641 -20.244  0.00  0.00     0.105 A 
ENDROOT
BRANCH   1   6
ATOM      6  C   UNL d   1      32.860  23.025 -18.158  0.00  0.00     0.231 C 
ATOM      7  O   UNL d   1      32.579  23.650 -17.699  0.00  0.00    -0.643 OA
ATOM      8  O   UNL d   1      33.237  22.383 -17.795  0.00  0.00    -0.643 OA
ENDBRANCH   1   6
BRANCH   5   9
ATOM      9  C   UNL d   1      32.740  22.171 -20.924  0.00  0.00     0.019 C 
ATOM     10  C   UNL d   1      32.309  21.478 -20.961  0.00  0.00     0.002 C 
ATOM     11  C   UNL d   1      33.203  22.403 -21.562  0.00  0.00     0.002 C 
ENDBRANCH   5   9
TORSDOF 2
ENDMDL
MODEL 7
REMARK VINA RESULT:      -1.2      1.754      2.776
REMARK  2 active torsions:
REMARK  status: ('A' for Active; 'I' for Inactive)
REMARK    1  A    between atoms: C_6  and  C_1 
REMARK    2  A    between atoms: C_8  and  C_5 
ROOT
ATOM      1  C   UNL d   1      32.500  22.279 -20.410  0.00  0.00     0.169 A 
ATOM      2  C   UNL d   1      33.074  21.792 -20.761  0.00  0.00     0.048 A 
ATOM      3  N   UNL d   1      31.875  21.293 -21.047  0.00  0.00    -0.148 NA
ATOM      4  N   UNL d   1      31.753  21.968 -20.588  0.00  0.00    -0.142 NA
ATOM      5  C   UNL d   1      32.692  21.192 -21.148  0.00  0.00     0.105 A 
ENDROOT
BRANCH   1   6
ATOM      6  C   UNL d   1      32.643  22.956 -19.961  0.00  0.00     0.231 C 
ATOM      7  O   UNL d   1      32.607  23.702 -20.310  0.00  0.00    -0.643 OA
ATOM      8  O   UNL d   1      32.824  22.884 -19.157  0.00  0.00    -0.643 OA
ENDBRANCH   1   6
BRANCH   5   9
ATOM      9  C   UNL d   1      33.058  20.583 -21.572  0.00  0.00     0.019 C 
ATOM     10  C   UNL d   1      33.241  20.685 -22.362  0.00  0.00     0.002 C 
ATOM     11  C   UNL d   1      33.236  19.875 -21.195  0.00  0.00     0.002 C 
ENDBRANCH   5   9
TORSDOF 2
ENDMDL
MODEL 8
REMARK VINA RESULT:      -1.0      2.450      3.078
REMARK  2 active torsions:
REMARK  status: ('A' for Active; 'I' for Inactive)
REMARK    1  A    between atoms: C_6  and  C_1 
REMARK    2  A    between atoms: C_8  and  C_5 
ROOT
ATOM      1  C   UNL d   1      32.826  22.939 -21.917  0.00  0.00     0.169 A 
ATOM      2  C   UNL d   1      32.844  22.258 -22.393  0.00  0.00     0.048 A 
ATOM      3  N   UNL d   1      33.240  23.289 -23.132  0.00  0.00    -0.148 NA
ATOM      4  N   UNL d   1      33.072  23.581 -22.378  0.00  0.00    -0.142 NA
ATOM      5  C   UNL d   1      33.096  22.473 -23.131  0.00  0.00     0.105 A 
ENDROOT
BRANCH   1   6
ATOM      6  C   UNL d   1      32.602  22.974 -21.125  0.00  0.00     0.231 C 
ATOM      7  O   UNL d   1      33.167  23.102 -20.538  0.00  0.00    -0.643 OA
ATOM      8  O   UNL d   1      31.806  22.880 -20.919  0.00  0.00    -0.643 OA
ENDBRANCH   1   6
BRANCH   5   9
ATOM      9  C   UNL d   1      33.193  21.962 -23.774  0.00  0.00     0.019 C 
ATOM     10  C   UNL d   1      33.241  22.262 -24.533  0.00  0.00     0.002 C 
ATOM     11  C   UNL d   1      33.241  21.151 -23.647  0.00  0.00     0.002 C 
ENDBRANCH   5   9
TORSDOF 2
ENDMDL
