MODEL 1
REMARK VINA RESULT:      -0.3      0.000      0.000
REMARK  5 active torsions:
REMARK  status: ('A' for Active; 'I' for Inactive)
REMARK    1  A    between atoms: C_2  and  C_1 
REMARK    2  A    between atoms: O_16  and  C_12 
REMARK    3  A    between atoms: C_21  and  C_14 
REMARK    4  A    between atoms: C_17  and  O_16 
REMARK    5  A    between atoms: C_24  and  C_21 
ROOT
ATOM      1  C   UNL d   1     -42.158-122.754 -50.238  0.00  0.00     0.086 A 
ATOM      2  C   UNL d   1     -41.759-123.130 -50.848  0.00  0.00     0.201 A 
ATOM      3  C   UNL d   1     -41.835-122.831 -51.634  0.00  0.00     0.062 A 
ATOM      4  C   UNL d   1     -42.627-122.097 -50.383  0.00  0.00     0.105 A 
ATOM      5  C   UNL d   1     -42.317-122.155 -51.783  0.00  0.00     0.105 A 
ATOM      6  O   UNL d   1     -42.710-121.797 -51.141  0.00  0.00    -0.307 OA
ATOM      7  C   UNL d   1     -41.436-123.206 -52.243  0.00  0.00     0.007 A 
ATOM      8  C   UNL d   1     -42.387-121.874 -52.536  0.00  0.00     0.050 A 
ATOM      9  C   UNL d   1     -41.988-122.249 -53.146  0.00  0.00     0.105 A 
ATOM     10  C   UNL d   1     -41.519-122.906 -53.001  0.00  0.00     0.023 A 
ATOM     11  O   UNL d   1     -41.299-123.780 -50.681  0.00  0.00    -0.286 OA
ATOM     12  C   UNL d   1     -43.031-121.721 -49.751  0.00  0.00     0.027 C 
ENDROOT
BRANCH   1  13
ATOM     13  C   UNL d   1     -42.098-123.029 -49.463  0.00  0.00     0.116 A 
ATOM     14  N   UNL d   1     -41.528-122.911 -48.865  0.00  0.00    -0.238 NA
ATOM     15  C   UNL d   1     -41.757-123.325 -48.199  0.00  0.00     0.088 A 
ATOM     16  C   UNL d   1     -41.355-123.367 -47.468  0.00  0.00     0.021 C 
ATOM     17  C   UNL d   1     -42.443-123.695 -48.356  0.00  0.00     0.056 A 
ATOM     18  S   UNL d   1     -42.672-123.520 -49.147  0.00  0.00    -0.066 SA
ENDBRANCH   1  13
BRANCH  10  19
ATOM     19  C   UNL d   1     -41.124-123.260 -53.668  0.00  0.00     0.002 C 
BRANCH  19  20
ATOM     20  C   UNL d   1     -41.538-123.804 -54.151  0.00  0.00     0.000 C 
ATOM     21  C   UNL d   1     -41.413-123.817 -54.967  0.00  0.00     0.000 C 
ENDBRANCH  19  20
ENDBRANCH  10  19
BRANCH   9  22
ATOM     22  O   UNL d   1     -42.065-121.950 -53.926  0.00  0.00    -0.273 OA
BRANCH  22  23
ATOM     23  C   UNL d   1     -42.620-121.330 -54.068  0.00  0.00     0.300 C 
ATOM     24  O   UNL d   1     -43.401-121.524 -54.077  0.00  0.00    -0.259 OA
ATOM     25  C   UNL d   1     -42.332-120.539 -54.193  0.00  0.00     0.074 C 
ENDBRANCH  22  23
ENDBRANCH   9  22
TORSDOF 5
ENDMDL
