MODEL 1
REMARK VINA RESULT:     100.9      0.000      0.000
REMARK  3 active torsions:
REMARK  status: ('A' for Active; 'I' for Inactive)
REMARK    1  A    between atoms: C_13  and  N_6 
REMARK    2  A    between atoms: C_16  and  C_10 
REMARK    3  A    between atoms: O_19  and  C_17 
ROOT
ATOM      1  C   UNL d   1     -55.092-100.481 -42.690  0.00  0.00     0.722 A 
ATOM      2  C   UNL d   1     -54.960-100.294 -41.384  0.00  0.00     0.191 A 
ATOM      3  N   UNL d   1     -55.079 -99.911 -42.089  0.00  0.00    -0.042 NA
ATOM      4  N   UNL d   1     -54.981-101.202 -42.341  0.00  0.00    -0.131 N 
ATOM      5  C   UNL d   1     -54.899-101.098 -41.541  0.00  0.00     0.174 A 
ATOM      6  N   UNL d   1     -55.176-100.583 -43.503  0.00  0.00    -0.138 N 
ATOM      7  N   UNL d   1     -54.898-100.020 -40.614  0.00  0.00    -0.239 N 
ATOM      8  C   UNL d   1     -54.773-100.553 -39.989  0.00  0.00     0.358 A 
ATOM      9  N   UNL d   1     -54.712-101.356 -40.146  0.00  0.00    -0.152 NA
ATOM     10  C   UNL d   1     -55.119-101.361 -43.667  0.00  0.00     0.100 A 
ATOM     11  C   UNL d   1     -54.775-101.640 -40.931  0.00  0.00     0.303 A 
ATOM     12  C   UNL d   1     -54.997-101.770 -42.955  0.00  0.00     0.116 A 
ATOM     13  O   UNL d   1     -54.711-100.279 -39.218  0.00  0.00    -0.244 OA
ATOM     14  O   UNL d   1     -54.715-102.433 -41.086  0.00  0.00    -0.263 OA
ATOM     15  C   UNL d   1     -54.958 -99.228 -40.459  0.00  0.00     0.105 C 
ENDROOT
BRANCH   6  16
ATOM     16  C   UNL d   1     -55.299 -99.976 -44.051  0.00  0.00     0.103 A 
ATOM     17  C   UNL d   1     -56.016 -99.561 -44.057  0.00  0.00     0.111 A 
ATOM     18  C   UNL d   1     -56.134 -98.968 -44.594  0.00  0.00     0.026 A 
ATOM     19  C   UNL d   1     -55.551 -98.769 -45.138  0.00  0.00     0.002 A 
ATOM     20  C   UNL d   1     -54.835 -99.185 -45.131  0.00  0.00     0.002 A 
ATOM     21  C   UNL d   1     -54.712 -99.791 -44.584  0.00  0.00     0.020 A 
BRANCH  17  22
ATOM     22  O   UNL d   1     -56.736 -99.525 -43.672  0.00  0.00    -0.327 OA
ATOM     23  C   UNL d   1     -57.413 -99.264 -44.064  0.00  0.00     0.181 C 
ENDBRANCH  17  22
ENDBRANCH   6  16
BRANCH  10  24
ATOM     24  C   UNL d   1     -55.171-101.714 -44.416  0.00  0.00     0.018 A 
ATOM     25  C   UNL d   1     -55.674-102.355 -44.544  0.00  0.00     0.002 A 
ATOM     26  C   UNL d   1     -55.724-102.699 -45.278  0.00  0.00     0.000 A 
ATOM     27  C   UNL d   1     -55.269-102.411 -45.909  0.00  0.00     0.000 A 
ATOM     28  C   UNL d   1     -54.765-101.770 -45.782  0.00  0.00     0.000 A 
ATOM     29  C   UNL d   1     -54.713-101.417 -45.033  0.00  0.00     0.002 A 
ENDBRANCH  10  24
TORSDOF 3
ENDMDL
