MODEL 1
REMARK VINA RESULT:      -7.8      0.000      0.000
REMARK  3 active torsions:
REMARK  status: ('A' for Active; 'I' for Inactive)
REMARK    1  A    between atoms: C_3  and  C_9 
REMARK    2  A    between atoms: C_6  and  C_4 
REMARK    3  A    between atoms: C_9  and  C_6 
ROOT
ATOM      1  C   UNL d   1      54.814  32.941  53.796  0.00  0.00     0.199 A 
ATOM      2  C   UNL d   1      55.128  33.464  54.336  0.00  0.00     0.084 A 
ATOM      3  C   UNL d   1      54.178  32.458  54.004  0.00  0.00     0.039 A 
ATOM      4  C   UNL d   1      53.866  32.505  54.750  0.00  0.00     0.006 A 
ATOM      5  C   UNL d   1      54.808  33.507  55.090  0.00  0.00     0.199 A 
ATOM      6  O   UNL d   1      55.139  32.899  53.036  0.00  0.00    -0.286 OA
ATOM      7  C   UNL d   1      54.172  33.024  55.298  0.00  0.00     0.042 A 
ATOM      8  O   UNL d   1      55.122  34.029  55.630  0.00  0.00    -0.286 OA
ENDROOT
BRANCH   3   9
ATOM      9  C   UNL d   1      53.863  31.930  53.454  0.00  0.00     0.009 C 
BRANCH   9  10
ATOM     10  C   UNL d   1      53.336  31.345  53.699  0.00  0.00     0.070 C 
BRANCH  10  11
ATOM     11  C   UNL d   1      53.046  30.796  53.154  0.00  0.00     0.211 C 
ATOM     12  O   UNL d   1      53.216  29.999  53.249  0.00  0.00    -0.644 OA
ATOM     13  O   UNL d   1      52.598  31.045  52.531  0.00  0.00    -0.644 OA
ENDBRANCH  10  11
ENDBRANCH   9  10
ENDBRANCH   3   9
TORSDOF 3
ENDMDL
MODEL 2
REMARK VINA RESULT:      -7.6      0.928      3.256
REMARK  3 active torsions:
REMARK  status: ('A' for Active; 'I' for Inactive)
REMARK    1  A    between atoms: C_3  and  C_9 
REMARK    2  A    between atoms: C_6  and  C_4 
REMARK    3  A    between atoms: C_9  and  C_6 
ROOT
ATOM      1  C   UNL d   1      52.998  32.477  53.173  0.00  0.00     0.199 A 
ATOM      2  C   UNL d   1      52.714  31.792  52.835  0.00  0.00     0.084 A 
ATOM      3  C   UNL d   1      53.575  32.444  53.762  0.00  0.00     0.039 A 
ATOM      4  C   UNL d   1      53.859  31.726  54.004  0.00  0.00     0.006 A 
ATOM      5  C   UNL d   1      53.006  31.068  53.085  0.00  0.00     0.199 A 
ATOM      6  O   UNL d   1      52.701  33.208  52.920  0.00  0.00    -0.286 OA
ATOM      7  C   UNL d   1      53.583  31.034  53.673  0.00  0.00     0.042 A 
ATOM      8  O   UNL d   1      52.722  30.383  52.747  0.00  0.00    -0.286 OA
ENDROOT
BRANCH   3   9
ATOM      9  C   UNL d   1      53.859  33.141  54.101  0.00  0.00     0.009 C 
BRANCH   9  10
ATOM     10  C   UNL d   1      54.320  33.107  54.785  0.00  0.00     0.070 C 
BRANCH  10  11
ATOM     11  C   UNL d   1      54.618  33.803  55.115  0.00  0.00     0.211 C 
ATOM     12  O   UNL d   1      55.429  33.905  55.184  0.00  0.00    -0.644 OA
ATOM     13  O   UNL d   1      54.113  34.379  55.367  0.00  0.00    -0.644 OA
ENDBRANCH  10  11
ENDBRANCH   9  10
ENDBRANCH   3   9
TORSDOF 3
ENDMDL
MODEL 3
REMARK VINA RESULT:      -7.2      1.724      3.445
REMARK  3 active torsions:
REMARK  status: ('A' for Active; 'I' for Inactive)
REMARK    1  A    between atoms: C_3  and  C_9 
REMARK    2  A    between atoms: C_6  and  C_4 
REMARK    3  A    between atoms: C_9  and  C_6 
ROOT
ATOM      1  C   UNL d   1      53.757  32.574  53.844  0.00  0.00     0.199 A 
ATOM      2  C   UNL d   1      53.572  31.894  53.436  0.00  0.00     0.084 A 
ATOM      3  C   UNL d   1      53.254  33.227  53.817  0.00  0.00     0.039 A 
ATOM      4  C   UNL d   1      52.573  33.191  53.382  0.00  0.00     0.006 A 
ATOM      5  C   UNL d   1      52.879  31.863  52.997  0.00  0.00     0.199 A 
ATOM      6  O   UNL d   1      54.457  32.603  54.286  0.00  0.00    -0.286 OA
ATOM      7  C   UNL d   1      52.376  32.516  52.970  0.00  0.00     0.042 A 
ATOM      8  O   UNL d   1      52.694  31.183  52.589  0.00  0.00    -0.286 OA
ENDROOT
BRANCH   3   9
ATOM      9  C   UNL d   1      53.447  33.915  54.232  0.00  0.00     0.009 C 
BRANCH   9  10
ATOM     10  C   UNL d   1      52.921  34.549  54.245  0.00  0.00     0.070 C 
BRANCH  10  11
ATOM     11  C   UNL d   1      53.112  35.236  54.662  0.00  0.00     0.211 C 
ATOM     12  O   UNL d   1      53.205  35.205  55.477  0.00  0.00    -0.644 OA
ATOM     13  O   UNL d   1      53.209  35.934  54.268  0.00  0.00    -0.644 OA
ENDBRANCH  10  11
ENDBRANCH   9  10
ENDBRANCH   3   9
TORSDOF 3
ENDMDL
MODEL 4
REMARK VINA RESULT:      -7.2      1.983      2.230
REMARK  3 active torsions:
REMARK  status: ('A' for Active; 'I' for Inactive)
REMARK    1  A    between atoms: C_3  and  C_9 
REMARK    2  A    between atoms: C_6  and  C_4 
REMARK    3  A    between atoms: C_9  and  C_6 
ROOT
ATOM      1  C   UNL d   1      53.783  32.832  54.129  0.00  0.00     0.199 A 
ATOM      2  C   UNL d   1      54.439  32.948  54.597  0.00  0.00     0.084 A 
ATOM      3  C   UNL d   1      53.213  33.424  54.055  0.00  0.00     0.039 A 
ATOM      4  C   UNL d   1      53.308  34.123  54.452  0.00  0.00     0.006 A 
ATOM      5  C   UNL d   1      54.530  33.658  54.997  0.00  0.00     0.199 A 
ATOM      6  O   UNL d   1      53.693  32.114  53.726  0.00  0.00    -0.286 OA
ATOM      7  C   UNL d   1      53.960  34.250  54.923  0.00  0.00     0.042 A 
ATOM      8  O   UNL d   1      55.186  33.774  55.465  0.00  0.00    -0.286 OA
ENDROOT
BRANCH   3   9
ATOM      9  C   UNL d   1      52.549  33.302  53.579  0.00  0.00     0.009 C 
BRANCH   9  10
ATOM     10  C   UNL d   1      52.002  33.910  53.473  0.00  0.00     0.070 C 
BRANCH  10  11
ATOM     11  C   UNL d   1      51.343  33.791  52.990  0.00  0.00     0.211 C 
ATOM     12  O   UNL d   1      50.678  33.416  53.292  0.00  0.00    -0.644 OA
ATOM     13  O   UNL d   1      51.354  34.043  52.223  0.00  0.00    -0.644 OA
ENDBRANCH  10  11
ENDBRANCH   9  10
ENDBRANCH   3   9
TORSDOF 3
ENDMDL
MODEL 5
REMARK VINA RESULT:      -7.1      2.169      3.345
REMARK  3 active torsions:
REMARK  status: ('A' for Active; 'I' for Inactive)
REMARK    1  A    between atoms: C_3  and  C_9 
REMARK    2  A    between atoms: C_6  and  C_4 
REMARK    3  A    between atoms: C_9  and  C_6 
ROOT
ATOM      1  C   UNL d   1      52.435  32.998  52.906  0.00  0.00     0.199 A 
ATOM      2  C   UNL d   1      51.801  33.301  52.493  0.00  0.00     0.084 A 
ATOM      3  C   UNL d   1      52.802  33.446  53.494  0.00  0.00     0.039 A 
ATOM      4  C   UNL d   1      52.530  34.190  53.661  0.00  0.00     0.006 A 
ATOM      5  C   UNL d   1      51.530  34.055  52.666  0.00  0.00     0.199 A 
ATOM      6  O   UNL d   1      52.707  32.236  52.730  0.00  0.00    -0.286 OA
ATOM      7  C   UNL d   1      51.897  34.503  53.254  0.00  0.00     0.042 A 
ATOM      8  O   UNL d   1      50.896  34.358  52.253  0.00  0.00    -0.286 OA
ENDROOT
BRANCH   3   9
ATOM      9  C   UNL d   1      53.444  33.135  53.910  0.00  0.00     0.009 C 
BRANCH   9  10
ATOM     10  C   UNL d   1      53.741  33.534  54.568  0.00  0.00     0.070 C 
BRANCH  10  11
ATOM     11  C   UNL d   1      54.379  33.219  54.987  0.00  0.00     0.211 C 
ATOM     12  O   UNL d   1      55.140  33.479  54.826  0.00  0.00    -0.644 OA
ATOM     13  O   UNL d   1      54.252  32.659  55.554  0.00  0.00    -0.644 OA
ENDBRANCH  10  11
ENDBRANCH   9  10
ENDBRANCH   3   9
TORSDOF 3
ENDMDL
