MODEL 1
REMARK VINA RESULT:      21.0      0.000      0.000
REMARK  6 active torsions:
REMARK  status: ('A' for Active; 'I' for Inactive)
REMARK    1  A    between atoms: C_10  and  C_3 
REMARK    2  A    between atoms: S_9  and  C_4 
REMARK       I    between atoms: N_6  and  C_7 
REMARK    3  A    between atoms: C_8  and  N_6 
REMARK    4  A    between atoms: C_7  and  C_14 
REMARK    5  A    between atoms: C_14  and  S_9 
REMARK    6  A    between atoms: O_15  and  C_12 
ROOT
ATOM      1  S   UNL d   1      45.926 -16.274  43.344  0.00  0.00    -0.036 SA
ENDROOT
BRANCH   1   2
ATOM      2  C   UNL d   1      45.889 -15.637  43.903  0.00  0.00     0.236 A 
ATOM      3  O   UNL d   1      45.447 -14.962  43.737  0.00  0.00    -0.263 OA
ATOM      4  C   UNL d   1      45.512 -14.452  44.362  0.00  0.00     0.205 A 
ATOM      5  N   UNL d   1      45.999 -14.808  44.926  0.00  0.00    -0.120 NA
ATOM      6  N   UNL d   1      46.229 -15.530  44.646  0.00  0.00    -0.114 NA
BRANCH   4   7
ATOM      7  C   UNL d   1      45.173 -13.710  44.457  0.00  0.00     0.046 A 
ATOM      8  C   UNL d   1      44.462 -13.633  44.849  0.00  0.00     0.024 A 
ATOM      9  C   UNL d   1      44.118 -12.872  44.945  0.00  0.00     0.099 A 
ATOM     10  N   UNL d   1      44.505 -12.212  44.640  0.00  0.00    -0.242 NA
ATOM     11  C   UNL d   1      45.244 -12.296  44.233  0.00  0.00     0.099 A 
ATOM     12  C   UNL d   1      45.568 -13.042  44.147  0.00  0.00     0.024 A 
ENDBRANCH   4   7
ENDBRANCH   1   2
BRANCH   1  13
ATOM     13  C   UNL d   1      46.626 -16.708  43.291  0.00  0.00     0.101 C 
BRANCH  13  14
ATOM     14  C   UNL d   1      46.608 -17.412  42.865  0.00  0.00     0.286 C 
ATOM     15  N   UNL d   1      46.584 -18.136  43.273  0.00  0.00    -0.206 NA
ATOM     16  O   UNL d   1      46.613 -17.427  42.042  0.00  0.00    -0.265 OA
BRANCH  15  17
ATOM     17  C   UNL d   1      46.566 -18.849  42.862  0.00  0.00     0.107 A 
ATOM     18  C   UNL d   1      46.508 -19.590  43.267  0.00  0.00     0.112 A 
ATOM     19  C   UNL d   1      46.491 -20.280  42.850  0.00  0.00     0.026 A 
ATOM     20  C   UNL d   1      46.528 -20.296  42.027  0.00  0.00     0.002 A 
ATOM     21  C   UNL d   1      46.584 -19.591  41.601  0.00  0.00     0.002 A 
ATOM     22  C   UNL d   1      46.603 -18.871  42.016  0.00  0.00     0.021 A 
BRANCH  18  23
ATOM     23  O   UNL d   1      46.471 -19.568  44.113  0.00  0.00    -0.327 OA
ATOM     24  C   UNL d   1      46.616 -20.292  44.526  0.00  0.00     0.181 C 
ENDBRANCH  18  23
ENDBRANCH  15  17
ENDBRANCH  13  14
ENDBRANCH   1  13
TORSDOF 6
ENDMDL
