MODEL 1
REMARK VINA RESULT:      79.2      0.000      0.000
REMARK  5 active torsions:
REMARK  status: ('A' for Active; 'I' for Inactive)
REMARK    1  A    between atoms: S_2  and  C_1 
REMARK    2  A    between atoms: C_8  and  S_2 
REMARK    3  A    between atoms: C_23  and  N_7 
REMARK    4  A    between atoms: N_13  and  C_10 
REMARK    5  A    between atoms: C_31  and  C_23 
ROOT
ATOM      1  C   UNL d   1      14.175  13.761  -2.576  0.00  0.00     0.144 A 
ATOM      2  C   UNL d   1      14.236  15.053  -3.202  0.00  0.00     0.058 A 
ATOM      3  C   UNL d   1      14.413  14.559  -2.565  0.00  0.00     0.209 A 
ATOM      4  C   UNL d   1      13.760  13.465  -3.227  0.00  0.00     0.095 A 
ATOM      5  C   UNL d   1      13.821  14.757  -3.853  0.00  0.00     0.069 A 
ATOM      6  N   UNL d   1      13.583  13.967  -3.868  0.00  0.00    -0.303 N 
ATOM      7  C   UNL d   1      13.644  15.251  -4.490  0.00  0.00     0.037 A 
ATOM      8  C   UNL d   1      13.882  16.041  -4.475  0.00  0.00     0.093 A 
ATOM      9  C   UNL d   1      14.474  15.843  -3.187  0.00  0.00     0.036 A 
ATOM     10  C   UNL d   1      14.297  16.337  -3.823  0.00  0.00     0.156 A 
ATOM     11  O   UNL d   1      14.827  14.854  -1.915  0.00  0.00    -0.286 OA
ATOM     12  F   UNL d   1      14.535  17.137  -3.814  0.00  0.00    -0.203 F 
ENDROOT
BRANCH   1  13
ATOM     13  S   UNL d   1      14.352  13.263  -1.938  0.00  0.00     0.214 S 
ATOM     14  O   UNL d   1      14.080  13.851  -1.409  0.00  0.00    -0.217 OA
ATOM     15  O   UNL d   1      14.623  12.676  -2.467  0.00  0.00    -0.217 OA
BRANCH  13  16
ATOM     16  C   UNL d   1      14.529  12.764  -1.292  0.00  0.00     0.088 A 
ATOM     17  C   UNL d   1      13.942  12.286  -0.962  0.00  0.00     0.011 A 
ATOM     18  C   UNL d   1      14.123  11.795  -0.324  0.00  0.00     0.001 A 
ATOM     19  C   UNL d   1      13.175  12.300  -1.270  0.00  0.00     0.001 C 
ATOM     20  C   UNL d   1      14.894  11.782  -0.014  0.00  0.00     0.000 A 
ATOM     21  C   UNL d   1      15.476  12.259  -0.346  0.00  0.00     0.001 A 
ATOM     22  C   UNL d   1      15.300  12.750  -0.982  0.00  0.00     0.011 A 
ATOM     23  C   UNL d   1      16.245  12.248  -0.040  0.00  0.00     0.000 C 
ENDBRANCH  13  16
ENDBRANCH   1  13
BRANCH   6  24
ATOM     24  C   UNL d   1      13.169  13.671  -4.519  0.00  0.00     0.080 C 
BRANCH  24  25
ATOM     25  C   UNL d   1      12.813  12.927  -4.480  0.00  0.00     0.019 C 
ATOM     26  C   UNL d   1      12.854  12.414  -5.126  0.00  0.00     0.002 C 
ENDBRANCH  24  25
ENDBRANCH   6  24
BRANCH   8  27
ATOM     27  N   UNL d   1      13.705  16.538  -5.114  0.00  0.00    -0.298 N 
ATOM     28  C   UNL d   1      14.233  17.138  -5.324  0.00  0.00     0.107 A 
ATOM     29  C   UNL d   1      14.058  17.634  -5.960  0.00  0.00     0.142 A 
ATOM     30  O   UNL d   1      13.347  17.521  -6.382  0.00  0.00    -0.300 OA
ATOM     31  C   UNL d   1      12.823  16.919  -6.165  0.00  0.00     0.142 A 
ATOM     32  C   UNL d   1      13.006  16.432  -5.533  0.00  0.00     0.107 A 
ENDBRANCH   8  27
TORSDOF 5
ENDMDL
MODEL 2
REMARK VINA RESULT:      80.2      1.702      3.092
REMARK  5 active torsions:
REMARK  status: ('A' for Active; 'I' for Inactive)
REMARK    1  A    between atoms: S_2  and  C_1 
REMARK    2  A    between atoms: C_8  and  S_2 
REMARK    3  A    between atoms: C_23  and  N_7 
REMARK    4  A    between atoms: N_13  and  C_10 
REMARK    5  A    between atoms: C_31  and  C_23 
ROOT
ATOM      1  C   UNL d   1      13.838  14.937  -4.066  0.00  0.00     0.144 A 
ATOM      2  C   UNL d   1      13.775  16.114  -4.889  0.00  0.00     0.058 A 
ATOM      3  C   UNL d   1      13.563  15.330  -4.747  0.00  0.00     0.209 A 
ATOM      4  C   UNL d   1      14.325  15.337  -3.531  0.00  0.00     0.095 A 
ATOM      5  C   UNL d   1      14.263  16.514  -4.354  0.00  0.00     0.069 A 
ATOM      6  N   UNL d   1      14.538  16.129  -3.677  0.00  0.00    -0.303 N 
ATOM      7  C   UNL d   1      14.476  17.299  -4.494  0.00  0.00     0.037 A 
ATOM      8  C   UNL d   1      14.201  17.683  -5.171  0.00  0.00     0.093 A 
ATOM      9  C   UNL d   1      13.501  16.499  -5.564  0.00  0.00     0.036 A 
ATOM     10  C   UNL d   1      13.713  17.284  -5.706  0.00  0.00     0.156 A 
ATOM     11  O   UNL d   1      13.076  14.931  -5.282  0.00  0.00    -0.286 OA
ATOM     12  F   UNL d   1      13.438  17.678  -6.389  0.00  0.00    -0.203 F 
ENDROOT
BRANCH   1  13
ATOM     13  S   UNL d   1      13.625  14.150  -3.923  0.00  0.00     0.214 S 
ATOM     14  O   UNL d   1      14.427  13.925  -3.994  0.00  0.00    -0.217 OA
ATOM     15  O   UNL d   1      12.824  14.376  -3.851  0.00  0.00    -0.217 OA
BRANCH  13  16
ATOM     16  C   UNL d   1      13.415  13.354  -3.778  0.00  0.00     0.088 A 
ATOM     17  C   UNL d   1      12.999  12.924  -4.345  0.00  0.00     0.011 A 
ATOM     18  C   UNL d   1      12.794  12.139  -4.197  0.00  0.00     0.001 A 
ATOM     19  C   UNL d   1      12.788  13.279  -5.062  0.00  0.00     0.001 C 
ATOM     20  C   UNL d   1      13.006  11.782  -3.478  0.00  0.00     0.000 A 
ATOM     21  C   UNL d   1      13.421  12.214  -2.914  0.00  0.00     0.001 A 
ATOM     22  C   UNL d   1      13.627  12.998  -3.058  0.00  0.00     0.011 A 
ATOM     23  C   UNL d   1      13.634  11.863  -2.196  0.00  0.00     0.000 C 
ENDBRANCH  13  16
ENDBRANCH   1  13
BRANCH   6  24
ATOM     24  C   UNL d   1      15.025  16.529  -3.143  0.00  0.00     0.080 C 
BRANCH  24  25
ATOM     25  C   UNL d   1      14.890  16.464  -2.331  0.00  0.00     0.019 C 
ATOM     26  C   UNL d   1      15.247  16.994  -1.808  0.00  0.00     0.002 C 
ENDBRANCH  24  25
ENDBRANCH   6  24
BRANCH   8  27
ATOM     27  N   UNL d   1      14.414  18.471  -5.314  0.00  0.00    -0.298 N 
ATOM     28  C   UNL d   1      13.833  19.058  -5.316  0.00  0.00     0.107 A 
ATOM     29  C   UNL d   1      14.043  19.844  -5.458  0.00  0.00     0.142 A 
ATOM     30  O   UNL d   1      14.844  20.032  -5.598  0.00  0.00    -0.300 OA
ATOM     31  C   UNL d   1      15.421  19.439  -5.595  0.00  0.00     0.142 A 
ATOM     32  C   UNL d   1      15.201  18.663  -5.453  0.00  0.00     0.107 A 
ENDBRANCH   8  27
TORSDOF 5
ENDMDL
