MODEL 1
REMARK VINA RESULT:      -8.8      0.000      0.000
REMARK  2 active torsions:
REMARK  status: ('A' for Active; 'I' for Inactive)
REMARK    1  A    between atoms: C_2  and  C_1 
REMARK       I    between atoms: N_3  and  C_2 
REMARK    2  A    between atoms: C_6  and  N_3 
ROOT
ATOM      1  C   UNL d   1      54.019  32.432  54.531  0.00  0.00     0.303 C 
ATOM      2  N   UNL d   1      53.955  32.188  53.740  0.00  0.00    -0.206 NA
ATOM      3  O   UNL d   1      53.660  31.990  55.126  0.00  0.00    -0.263 OA
ENDROOT
BRANCH   2   4
ATOM      4  C   UNL d   1      53.532  31.503  53.555  0.00  0.00     0.086 A 
ATOM      5  C   UNL d   1      53.724  30.785  53.928  0.00  0.00     0.031 A 
ATOM      6  C   UNL d   1      53.296  30.112  53.735  0.00  0.00     0.059 A 
ATOM      7 CL   UNL d   1      53.490  29.402  54.107  0.00  0.00    -0.082 Cl
ATOM      8  C   UNL d   1      52.692  30.149  53.187  0.00  0.00     0.011 A 
ATOM      9  C   UNL d   1      52.497  30.850  52.817  0.00  0.00     0.002 A 
ATOM     10  C   UNL d   1      52.920  31.536  53.001  0.00  0.00     0.018 A 
ATOM     11  C   UNL d   1      52.732  32.238  52.637  0.00  0.00     0.002 C 
ENDBRANCH   2   4
BRANCH   1  12
ATOM     12  C   UNL d   1      54.441  33.117  54.716  0.00  0.00     0.176 A 
ATOM     13  C   UNL d   1      54.128  33.800  55.064  0.00  0.00     0.110 A 
ATOM     14  N   UNL d   1      54.739  34.347  55.151  0.00  0.00    -0.233 NA
ATOM     15  C   UNL d   1      53.346  33.910  55.283  0.00  0.00     0.023 C 
ATOM     16  C   UNL d   1      55.437  33.999  54.854  0.00  0.00     0.259 A 
ATOM     17  O   UNL d   1      55.244  33.239  54.588  0.00  0.00    -0.296 OA
ENDBRANCH   1  12
TORSDOF 2
ENDMDL
MODEL 2
REMARK VINA RESULT:      -8.7      1.696      3.492
REMARK  2 active torsions:
REMARK  status: ('A' for Active; 'I' for Inactive)
REMARK    1  A    between atoms: C_2  and  C_1 
REMARK       I    between atoms: N_3  and  C_2 
REMARK    2  A    between atoms: C_6  and  N_3 
ROOT
ATOM      1  C   UNL d   1      53.382  31.440  53.836  0.00  0.00     0.303 C 
ATOM      2  N   UNL d   1      53.257  32.197  53.518  0.00  0.00    -0.206 NA
ATOM      3  O   UNL d   1      53.713  31.361  54.586  0.00  0.00    -0.263 OA
ENDROOT
BRANCH   2   4
ATOM      4  C   UNL d   1      53.467  32.866  53.956  0.00  0.00     0.086 A 
ATOM      5  C   UNL d   1      54.208  32.900  54.330  0.00  0.00     0.031 A 
ATOM      6  C   UNL d   1      54.404  33.570  54.762  0.00  0.00     0.059 A 
ATOM      7 CL   UNL d   1      55.141  33.599  55.131  0.00  0.00    -0.082 Cl
ATOM      8  C   UNL d   1      53.877  34.190  54.823  0.00  0.00     0.011 A 
ATOM      9  C   UNL d   1      53.147  34.165  54.459  0.00  0.00     0.002 A 
ATOM     10  C   UNL d   1      52.937  33.497  54.021  0.00  0.00     0.018 A 
ATOM     11  C   UNL d   1      52.212  33.463  53.655  0.00  0.00     0.002 C 
ENDBRANCH   2   4
BRANCH   1  12
ATOM     12  C   UNL d   1      53.173  30.772  53.399  0.00  0.00     0.176 A 
ATOM     13  C   UNL d   1      53.096  30.003  53.696  0.00  0.00     0.110 A 
ATOM     14  N   UNL d   1      52.880  29.507  53.073  0.00  0.00    -0.233 NA
ATOM     15  C   UNL d   1      53.215  29.777  54.475  0.00  0.00     0.023 C 
ATOM     16  C   UNL d   1      52.823  29.975  52.384  0.00  0.00     0.259 A 
ATOM     17  O   UNL d   1      53.005  30.754  52.594  0.00  0.00    -0.296 OA
ENDBRANCH   1  12
TORSDOF 2
ENDMDL
MODEL 3
REMARK VINA RESULT:      -8.5      2.524      3.569
REMARK  2 active torsions:
REMARK  status: ('A' for Active; 'I' for Inactive)
REMARK    1  A    between atoms: C_2  and  C_1 
REMARK       I    between atoms: N_3  and  C_2 
REMARK    2  A    between atoms: C_6  and  N_3 
ROOT
ATOM      1  C   UNL d   1      52.162  33.875  53.290  0.00  0.00     0.303 C 
ATOM      2  N   UNL d   1      52.355  33.147  53.641  0.00  0.00    -0.206 NA
ATOM      3  O   UNL d   1      52.740  34.454  53.205  0.00  0.00    -0.263 OA
ENDROOT
BRANCH   2   4
ATOM      4  C   UNL d   1      53.127  33.011  53.903  0.00  0.00     0.086 A 
ATOM      5  C   UNL d   1      53.503  33.569  54.390  0.00  0.00     0.031 A 
ATOM      6  C   UNL d   1      54.270  33.421  54.643  0.00  0.00     0.059 A 
ATOM      7 CL   UNL d   1      54.639  33.979  55.126  0.00  0.00    -0.082 Cl
ATOM      8  C   UNL d   1      54.654  32.736  54.420  0.00  0.00     0.011 A 
ATOM      9  C   UNL d   1      54.292  32.183  53.942  0.00  0.00     0.002 A 
ATOM     10  C   UNL d   1      53.520  32.319  53.679  0.00  0.00     0.018 A 
ATOM     11  C   UNL d   1      53.151  31.773  53.203  0.00  0.00     0.002 C 
ENDBRANCH   2   4
BRANCH   1  12
ATOM     12  C   UNL d   1      51.391  34.011  53.028  0.00  0.00     0.176 A 
ATOM     13  C   UNL d   1      51.175  34.256  52.267  0.00  0.00     0.110 A 
ATOM     14  N   UNL d   1      50.353  34.325  52.243  0.00  0.00    -0.233 NA
ATOM     15  C   UNL d   1      51.690  34.403  51.647  0.00  0.00     0.023 C 
ATOM     16  C   UNL d   1      50.059  34.121  52.997  0.00  0.00     0.259 A 
ATOM     17  O   UNL d   1      50.707  33.929  53.475  0.00  0.00    -0.296 OA
ENDBRANCH   1  12
TORSDOF 2
ENDMDL
MODEL 4
REMARK VINA RESULT:      -8.2      2.021      2.799
REMARK  2 active torsions:
REMARK  status: ('A' for Active; 'I' for Inactive)
REMARK    1  A    between atoms: C_2  and  C_1 
REMARK       I    between atoms: N_3  and  C_2 
REMARK    2  A    between atoms: C_6  and  N_3 
ROOT
ATOM      1  C   UNL d   1      51.957  32.654  52.897  0.00  0.00     0.303 C 
ATOM      2  N   UNL d   1      52.761  32.471  52.800  0.00  0.00    -0.206 NA
ATOM      3  O   UNL d   1      51.462  32.128  53.291  0.00  0.00    -0.263 OA
ENDROOT
BRANCH   2   4
ATOM      4  C   UNL d   1      53.059  31.760  53.100  0.00  0.00     0.086 A 
ATOM      5  C   UNL d   1      52.681  31.043  52.917  0.00  0.00     0.031 A 
ATOM      6  C   UNL d   1      52.987  30.345  53.222  0.00  0.00     0.059 A 
ATOM      7 CL   UNL d   1      52.608  29.636  53.037  0.00  0.00    -0.082 Cl
ATOM      8  C   UNL d   1      53.650  30.357  53.697  0.00  0.00     0.011 A 
ATOM      9  C   UNL d   1      54.027  31.057  53.882  0.00  0.00     0.002 A 
ATOM     10  C   UNL d   1      53.731  31.767  53.582  0.00  0.00     0.018 A 
ATOM     11  C   UNL d   1      54.100  32.469  53.761  0.00  0.00     0.002 C 
ENDBRANCH   2   4
BRANCH   1  12
ATOM     12  C   UNL d   1      51.660  33.363  52.597  0.00  0.00     0.176 A 
ATOM     13  C   UNL d   1      51.069  33.827  52.946  0.00  0.00     0.110 A 
ATOM     14  N   UNL d   1      50.941  34.485  52.465  0.00  0.00    -0.233 NA
ATOM     15  C   UNL d   1      50.680  33.658  53.647  0.00  0.00     0.023 C 
ATOM     16  C   UNL d   1      51.458  34.427  51.813  0.00  0.00     0.259 A 
ATOM     17  O   UNL d   1      51.898  33.732  51.902  0.00  0.00    -0.296 OA
ENDBRANCH   1  12
TORSDOF 2
ENDMDL
MODEL 5
REMARK VINA RESULT:      -7.6      2.204      2.739
REMARK  2 active torsions:
REMARK  status: ('A' for Active; 'I' for Inactive)
REMARK    1  A    between atoms: C_2  and  C_1 
REMARK       I    between atoms: N_3  and  C_2 
REMARK    2  A    between atoms: C_6  and  N_3 
ROOT
ATOM      1  C   UNL d   1      53.295  33.350  54.100  0.00  0.00     0.303 C 
ATOM      2  N   UNL d   1      52.836  34.025  53.946  0.00  0.00    -0.206 NA
ATOM      3  O   UNL d   1      53.077  32.624  53.779  0.00  0.00    -0.263 OA
ENDROOT
BRANCH   2   4
ATOM      4  C   UNL d   1      52.162  33.962  53.472  0.00  0.00     0.086 A 
ATOM      5  C   UNL d   1      51.603  33.366  53.625  0.00  0.00     0.031 A 
ATOM      6  C   UNL d   1      50.938  33.315  53.146  0.00  0.00     0.059 A 
ATOM      7 CL   UNL d   1      50.386  32.722  53.302  0.00  0.00    -0.082 Cl
ATOM      8  C   UNL d   1      50.830  33.841  52.531  0.00  0.00     0.011 A 
ATOM      9  C   UNL d   1      51.373  34.429  52.375  0.00  0.00     0.002 A 
ATOM     10  C   UNL d   1      52.048  34.492  52.848  0.00  0.00     0.018 A 
ATOM     11  C   UNL d   1      52.594  35.075  52.700  0.00  0.00     0.002 C 
ENDBRANCH   2   4
BRANCH   1  12
ATOM     12  C   UNL d   1      53.969  33.413  54.573  0.00  0.00     0.176 A 
ATOM     13  C   UNL d   1      54.731  33.162  54.367  0.00  0.00     0.110 A 
ATOM     14  N   UNL d   1      55.235  33.328  54.998  0.00  0.00    -0.233 NA
ATOM     15  C   UNL d   1      54.943  32.809  53.658  0.00  0.00     0.023 C 
ATOM     16  C   UNL d   1      54.781  33.686  55.600  0.00  0.00     0.259 A 
ATOM     17  O   UNL d   1      54.000  33.734  55.329  0.00  0.00    -0.296 OA
ENDBRANCH   1  12
TORSDOF 2
ENDMDL
