MODEL 1
REMARK VINA RESULT:     102.8      0.000      0.000
REMARK  4 active torsions:
REMARK  status: ('A' for Active; 'I' for Inactive)
REMARK    1  A    between atoms: N_5  and  C_1 
REMARK    2  A    between atoms: C_10  and  C_2 
REMARK    3  A    between atoms: C_12  and  N_3 
REMARK       I    between atoms: C_8  and  N_5 
REMARK    4  A    between atoms: C_9  and  C_8 
ROOT
ATOM      1  C   UNL d   1      45.855 -18.433  42.126  0.00  0.00     0.170 A 
ATOM      2  C   UNL d   1      45.791 -18.401  41.303  0.00  0.00     0.076 A 
ATOM      3  N   UNL d   1      46.186 -19.103  42.489  0.00  0.00    -0.212 N 
ATOM      4  N   UNL d   1      46.448 -19.732  42.022  0.00  0.00    -0.161 NA
ATOM      5  C   UNL d   1      46.056 -19.036  40.841  0.00  0.00     0.218 A 
ATOM      6  C   UNL d   1      46.384 -19.700  41.199  0.00  0.00     0.140 A 
ATOM      7  O   UNL d   1      45.992 -19.004  40.017  0.00  0.00    -0.285 OA
ATOM      8  C   UNL d   1      46.647 -20.330  40.728  0.00  0.00     0.026 C 
ENDROOT
BRANCH   1   9
ATOM      9  N   UNL d   1      45.595 -17.809  42.586  0.00  0.00    -0.188 NA
ATOM     10  C   UNL d   1      44.982 -17.408  42.972  0.00  0.00     0.286 C 
ATOM     11  O   UNL d   1      44.218 -17.710  42.928  0.00  0.00    -0.265 OA
BRANCH  10  12
ATOM     12  C   UNL d   1      45.141 -16.721  43.388  0.00  0.00     0.087 A 
ATOM     13  S   UNL d   1      44.601 -16.274  43.828  0.00  0.00    -0.082 SA
ATOM     14  C   UNL d   1      45.008 -15.634  44.147  0.00  0.00     0.036 A 
ATOM     15  C   UNL d   1      45.792 -15.674  43.915  0.00  0.00     0.008 A 
ATOM     16  C   UNL d   1      45.878 -16.353  43.441  0.00  0.00     0.012 A 
ENDBRANCH  10  12
ENDBRANCH   1   9
BRANCH   2  17
ATOM     17  C   UNL d   1      45.464 -17.740  40.941  0.00  0.00     0.006 A 
ATOM     18  C   UNL d   1      44.657 -17.706  40.800  0.00  0.00     0.001 A 
ATOM     19  C   UNL d   1      44.327 -17.038  40.433  0.00  0.00     0.011 A 
ATOM     20  C   UNL d   1      44.814 -16.412  40.213  0.00  0.00     0.058 A 
ATOM     21  C   UNL d   1      45.631 -16.444  40.355  0.00  0.00     0.011 A 
ATOM     22 CL   UNL d   1      44.483 -15.750  39.850  0.00  0.00    -0.082 Cl
ATOM     23  C   UNL d   1      45.950 -17.111  40.719  0.00  0.00     0.001 A 
ENDBRANCH   2  17
BRANCH   3  24
ATOM     24  C   UNL d   1      46.250 -19.137  43.309  0.00  0.00     0.085 A 
ATOM     25  C   UNL d   1      46.581 -18.501  43.720  0.00  0.00     0.019 A 
ATOM     26  C   UNL d   1      46.646 -18.537  44.549  0.00  0.00     0.002 A 
ATOM     27  C   UNL d   1      46.383 -19.200  44.953  0.00  0.00     0.000 A 
ATOM     28  C   UNL d   1      46.052 -19.834  44.533  0.00  0.00     0.002 A 
ATOM     29  C   UNL d   1      45.988 -19.800  43.713  0.00  0.00     0.019 A 
ENDBRANCH   3  24
TORSDOF 4
ENDMDL
MODEL 2
REMARK VINA RESULT:     105.1      5.704      6.986
REMARK  4 active torsions:
REMARK  status: ('A' for Active; 'I' for Inactive)
REMARK    1  A    between atoms: N_5  and  C_1 
REMARK    2  A    between atoms: C_10  and  C_2 
REMARK    3  A    between atoms: C_12  and  N_3 
REMARK       I    between atoms: C_8  and  N_5 
REMARK    4  A    between atoms: C_9  and  C_8 
ROOT
ATOM      1  C   UNL d   1      42.967 -15.093  37.159  0.00  0.00     0.170 A 
ATOM      2  C   UNL d   1      43.358 -15.778  36.913  0.00  0.00     0.076 A 
ATOM      3  N   UNL d   1      42.138 -15.057  37.129  0.00  0.00    -0.212 N 
ATOM      4  N   UNL d   1      41.711 -15.708  36.853  0.00  0.00    -0.161 NA
ATOM      5  C   UNL d   1      42.923 -16.428  36.637  0.00  0.00     0.218 A 
ATOM      6  C   UNL d   1      42.102 -16.394  36.607  0.00  0.00     0.140 A 
ATOM      7  O   UNL d   1      43.314 -17.114  36.392  0.00  0.00    -0.285 OA
ATOM      8  C   UNL d   1      41.676 -17.049  36.330  0.00  0.00     0.026 C 
ENDROOT
BRANCH   1   9
ATOM      9  N   UNL d   1      43.392 -14.450  37.431  0.00  0.00    -0.188 NA
ATOM     10  C   UNL d   1      43.872 -13.792  37.285  0.00  0.00     0.286 C 
ATOM     11  O   UNL d   1      44.080 -13.615  36.508  0.00  0.00    -0.265 OA
BRANCH  10  12
ATOM     12  C   UNL d   1      44.133 -13.328  37.907  0.00  0.00     0.087 A 
ATOM     13  S   UNL d   1      44.773 -12.803  37.897  0.00  0.00    -0.082 SA
ATOM     14  C   UNL d   1      44.826 -12.461  38.644  0.00  0.00     0.036 A 
ATOM     15  C   UNL d   1      44.231 -12.763  39.119  0.00  0.00     0.008 A 
ATOM     16  C   UNL d   1      43.796 -13.305  38.661  0.00  0.00     0.012 A 
ENDBRANCH  10  12
ENDBRANCH   1   9
BRANCH   2  17
ATOM     17  C   UNL d   1      44.178 -15.818  36.941  0.00  0.00     0.006 A 
ATOM     18  C   UNL d   1      44.626 -15.472  36.347  0.00  0.00     0.001 A 
ATOM     19  C   UNL d   1      45.455 -15.512  36.376  0.00  0.00     0.011 A 
ATOM     20  C   UNL d   1      45.823 -15.899  37.002  0.00  0.00     0.058 A 
ATOM     21  C   UNL d   1      45.372 -16.250  37.603  0.00  0.00     0.011 A 
ATOM     22 CL   UNL d   1      46.647 -15.937  37.027  0.00  0.00    -0.082 Cl
ATOM     23  C   UNL d   1      44.550 -16.206  37.568  0.00  0.00     0.001 A 
ENDBRANCH   2  17
BRANCH   3  24
ATOM     24  C   UNL d   1      41.747 -14.375  37.373  0.00  0.00     0.085 A 
ATOM     25  C   UNL d   1      41.560 -14.275  38.172  0.00  0.00     0.019 A 
ATOM     26  C   UNL d   1      41.164 -13.585  38.417  0.00  0.00     0.002 A 
ATOM     27  C   UNL d   1      40.962 -13.011  37.869  0.00  0.00     0.000 A 
ATOM     28  C   UNL d   1      41.154 -13.119  37.069  0.00  0.00     0.002 A 
ATOM     29  C   UNL d   1      41.545 -13.801  36.825  0.00  0.00     0.019 A 
ENDBRANCH   3  24
TORSDOF 4
ENDMDL
