MODEL 1
REMARK VINA RESULT:      -6.4      0.000      0.000
REMARK  5 active torsions:
REMARK  status: ('A' for Active; 'I' for Inactive)
REMARK    1  A    between atoms: C_4  and  C_1 
REMARK       I    between atoms: N_2  and  C_3 
REMARK    2  A    between atoms: C_6  and  N_2 
REMARK    3  A    between atoms: C_3  and  C_5 
REMARK    4  A    between atoms: C_5  and  C_7 
REMARK    5  A    between atoms: C_7  and  C_14 
ROOT
ATOM      1  C   UNL d   1      57.155   0.071  31.131  0.00  0.00     0.062 C 
ENDROOT
BRANCH   1   2
ATOM      2  C   UNL d   1      57.834   0.174  30.699  0.00  0.00     0.279 C 
ATOM      3  N   UNL d   1      57.929  -0.241  29.997  0.00  0.00    -0.208 NA
ATOM      4  O   UNL d   1      58.410   0.681  30.958  0.00  0.00    -0.265 OA
BRANCH   3   5
ATOM      5  C   UNL d   1      58.624  -0.139  29.551  0.00  0.00     0.085 A 
ATOM      6  C   UNL d   1      58.920  -0.783  29.117  0.00  0.00     0.018 A 
ATOM      7  C   UNL d   1      58.528  -1.508  29.134  0.00  0.00     0.002 C 
ATOM      8  C   UNL d   1      59.611  -0.692  28.669  0.00  0.00     0.002 A 
ATOM      9  C   UNL d   1      60.000   0.028  28.654  0.00  0.00     0.000 A 
ATOM     10  C   UNL d   1      59.703   0.660  29.084  0.00  0.00     0.002 A 
ATOM     11  C   UNL d   1      59.013   0.582  29.535  0.00  0.00     0.019 A 
ENDBRANCH   3   5
ENDBRANCH   1   2
BRANCH   1  12
ATOM     12  C   UNL d   1      57.189   0.071  31.962  0.00  0.00     0.005 C 
BRANCH  12  13
ATOM     13  C   UNL d   1      56.610  -0.312  32.412  0.00  0.00     0.000 A 
ATOM     14  C   UNL d   1      56.109   0.130  32.877  0.00  0.00     0.004 A 
ATOM     15  C   UNL d   1      55.538  -0.274  33.318  0.00  0.00     0.071 A 
ATOM     16  C   UNL d   1      55.459  -1.071  33.306  0.00  0.00     0.004 A 
ATOM     17  C   UNL d   1      55.960  -1.512  32.842  0.00  0.00    -0.000 A 
ATOM     18  C   UNL d   1      56.530  -1.150  32.398  0.00  0.00    -0.000 A 
BRANCH  15  19
ATOM     19  C   UNL d   1      55.038   0.195  33.785  0.00  0.00     0.419 C 
ATOM     20  F   UNL d   1      54.547   0.671  34.283  0.00  0.00    -0.166 F 
ATOM     21  F   UNL d   1      54.513   0.276  33.185  0.00  0.00    -0.166 F 
ATOM     22  F   UNL d   1      55.584   0.120  34.431  0.00  0.00    -0.166 F 
ENDBRANCH  15  19
ENDBRANCH  12  13
ENDBRANCH   1  12
TORSDOF 5
ENDMDL
MODEL 2
REMARK VINA RESULT:      -5.7      0.989      1.333
REMARK  5 active torsions:
REMARK  status: ('A' for Active; 'I' for Inactive)
REMARK    1  A    between atoms: C_4  and  C_1 
REMARK       I    between atoms: N_2  and  C_3 
REMARK    2  A    between atoms: C_6  and  N_2 
REMARK    3  A    between atoms: C_3  and  C_5 
REMARK    4  A    between atoms: C_5  and  C_7 
REMARK    5  A    between atoms: C_7  and  C_14 
ROOT
ATOM      1  C   UNL d   1      57.450   0.012  30.824  0.00  0.00     0.062 C 
ENDROOT
BRANCH   1   2
ATOM      2  C   UNL d   1      58.133  -0.008  30.387  0.00  0.00     0.279 C 
ATOM      3  N   UNL d   1      58.217  -0.574  29.799  0.00  0.00    -0.208 NA
ATOM      4  O   UNL d   1      58.725   0.527  30.530  0.00  0.00    -0.265 OA
BRANCH   3   5
ATOM      5  C   UNL d   1      58.916  -0.598  29.348  0.00  0.00     0.085 A 
ATOM      6  C   UNL d   1      59.252  -1.336  29.167  0.00  0.00     0.018 A 
ATOM      7  C   UNL d   1      58.893  -2.029  29.432  0.00  0.00     0.002 C 
ATOM      8  C   UNL d   1      59.947  -1.371  28.719  0.00  0.00     0.002 A 
ATOM      9  C   UNL d   1      60.303  -0.682  28.456  0.00  0.00     0.000 A 
ATOM     10  C   UNL d   1      59.967   0.044  28.638  0.00  0.00     0.002 A 
ATOM     11  C   UNL d   1      59.272   0.092  29.085  0.00  0.00     0.019 A 
ENDBRANCH   3   5
ENDBRANCH   1   2
BRANCH   1  12
ATOM     12  C   UNL d   1      57.489   0.123  31.648  0.00  0.00     0.005 C 
BRANCH  12  13
ATOM     13  C   UNL d   1      56.819   0.025  32.122  0.00  0.00     0.000 A 
ATOM     14  C   UNL d   1      56.628  -0.718  32.396  0.00  0.00     0.004 A 
ATOM     15  C   UNL d   1      55.953  -0.792  32.869  0.00  0.00     0.071 A 
ATOM     16  C   UNL d   1      55.487  -0.171  33.066  0.00  0.00     0.004 A 
ATOM     17  C   UNL d   1      55.678   0.571  32.793  0.00  0.00    -0.000 A 
ATOM     18  C   UNL d   1      56.330   0.679  32.328  0.00  0.00    -0.000 A 
BRANCH  15  19
ATOM     19  C   UNL d   1      55.778  -1.557  33.136  0.00  0.00     0.419 C 
ATOM     20  F   UNL d   1      55.602  -2.328  33.437  0.00  0.00    -0.166 F 
ATOM     21  F   UNL d   1      55.673  -1.822  32.388  0.00  0.00    -0.166 F 
ATOM     22  F   UNL d   1      55.885  -1.293  33.936  0.00  0.00    -0.166 F 
ENDBRANCH  15  19
ENDBRANCH  12  13
ENDBRANCH   1  12
TORSDOF 5
ENDMDL
MODEL 3
REMARK VINA RESULT:      -5.2      2.719      5.051
REMARK  5 active torsions:
REMARK  status: ('A' for Active; 'I' for Inactive)
REMARK    1  A    between atoms: C_4  and  C_1 
REMARK       I    between atoms: N_2  and  C_3 
REMARK    2  A    between atoms: C_6  and  N_2 
REMARK    3  A    between atoms: C_3  and  C_5 
REMARK    4  A    between atoms: C_5  and  C_7 
REMARK    5  A    between atoms: C_7  and  C_14 
ROOT
ATOM      1  C   UNL d   1      57.766   0.055  30.999  0.00  0.00     0.062 C 
ENDROOT
BRANCH   1   2
ATOM      2  C   UNL d   1      57.111   0.162  31.464  0.00  0.00     0.279 C 
ATOM      3  N   UNL d   1      57.041  -0.261  32.164  0.00  0.00    -0.208 NA
ATOM      4  O   UNL d   1      56.531   0.682  31.239  0.00  0.00    -0.265 OA
BRANCH   3   5
ATOM      5  C   UNL d   1      56.370  -0.154  32.644  0.00  0.00     0.085 A 
ATOM      6  C   UNL d   1      55.941  -0.822  32.888  0.00  0.00     0.018 A 
ATOM      7  C   UNL d   1      56.182  -1.575  32.655  0.00  0.00     0.002 C 
ATOM      8  C   UNL d   1      55.271  -0.727  33.366  0.00  0.00     0.002 A 
ATOM      9  C   UNL d   1      55.032   0.022  33.596  0.00  0.00     0.000 A 
ATOM     10  C   UNL d   1      55.460   0.677  33.352  0.00  0.00     0.002 A 
ATOM     11  C   UNL d   1      56.131   0.595  32.874  0.00  0.00     0.019 A 
ENDBRANCH   3   5
ENDBRANCH   1   2
BRANCH   1  12
ATOM     12  C   UNL d   1      57.678  -0.088  30.184  0.00  0.00     0.005 C 
BRANCH  12  13
ATOM     13  C   UNL d   1      58.322  -0.321  29.720  0.00  0.00     0.000 A 
ATOM     14  C   UNL d   1      58.467  -1.114  29.608  0.00  0.00     0.004 A 
ATOM     15  C   UNL d   1      59.116  -1.324  29.141  0.00  0.00     0.071 A 
ATOM     16  C   UNL d   1      59.600  -0.786  28.799  0.00  0.00     0.004 A 
ATOM     17  C   UNL d   1      59.455   0.006  28.911  0.00  0.00    -0.000 A 
ATOM     18  C   UNL d   1      58.830   0.247  29.362  0.00  0.00    -0.000 A 
BRANCH  15  19
ATOM     19  C   UNL d   1      59.245  -2.137  29.040  0.00  0.00     0.419 C 
ATOM     20  F   UNL d   1      59.400  -2.965  28.956  0.00  0.00    -0.166 F 
ATOM     21  F   UNL d   1      58.647  -2.192  28.510  0.00  0.00    -0.166 F 
ATOM     22  F   UNL d   1      59.883  -2.096  29.600  0.00  0.00    -0.166 F 
ENDBRANCH  15  19
ENDBRANCH  12  13
ENDBRANCH   1  12
TORSDOF 5
ENDMDL
MODEL 4
REMARK VINA RESULT:      -4.2      9.003      9.596
REMARK  5 active torsions:
REMARK  status: ('A' for Active; 'I' for Inactive)
REMARK    1  A    between atoms: C_4  and  C_1 
REMARK       I    between atoms: N_2  and  C_3 
REMARK    2  A    between atoms: C_6  and  N_2 
REMARK    3  A    between atoms: C_3  and  C_5 
REMARK    4  A    between atoms: C_5  and  C_7 
REMARK    5  A    between atoms: C_7  and  C_14 
ROOT
ATOM      1  C   UNL d   1      59.570  -9.650  33.546  0.00  0.00     0.062 C 
ENDROOT
BRANCH   1   2
ATOM      2  C   UNL d   1      59.550  -9.653  32.735  0.00  0.00     0.279 C 
ATOM      3  N   UNL d   1      58.840  -9.804  32.352  0.00  0.00    -0.208 NA
ATOM      4  O   UNL d   1      60.224  -9.509  32.309  0.00  0.00    -0.265 OA
BRANCH   3   5
ATOM      5  C   UNL d   1      58.815  -9.808  31.520  0.00  0.00     0.085 A 
ATOM      6  C   UNL d   1      58.075  -9.814  31.141  0.00  0.00     0.018 A 
ATOM      7  C   UNL d   1      57.382  -9.815  31.588  0.00  0.00     0.002 C 
ATOM      8  C   UNL d   1      58.039  -9.818  30.314  0.00  0.00     0.002 A 
ATOM      9  C   UNL d   1      58.728  -9.816  29.871  0.00  0.00     0.000 A 
ATOM     10  C   UNL d   1      59.454  -9.810  30.251  0.00  0.00     0.002 A 
ATOM     11  C   UNL d   1      59.504  -9.806  31.078  0.00  0.00     0.019 A 
ENDBRANCH   3   5
ENDBRANCH   1   2
BRANCH   1  12
ATOM     12  C   UNL d   1      60.064  -9.114  33.946  0.00  0.00     0.005 C 
BRANCH  12  13
ATOM     13  C   UNL d   1      59.940  -8.934  34.744  0.00  0.00     0.000 A 
ATOM     14  C   UNL d   1      59.844  -8.157  34.967  0.00  0.00     0.004 A 
ATOM     15  C   UNL d   1      59.721  -8.000  35.770  0.00  0.00     0.071 A 
ATOM     16  C   UNL d   1      59.693  -8.575  36.328  0.00  0.00     0.004 A 
ATOM     17  C   UNL d   1      59.789  -9.350  36.104  0.00  0.00    -0.000 A 
ATOM     18  C   UNL d   1      59.911  -9.539  35.329  0.00  0.00    -0.000 A 
BRANCH  15  19
ATOM     19  C   UNL d   1      59.625  -7.203  35.976  0.00  0.00     0.419 C 
ATOM     20  F   UNL d   1      59.558  -6.386  36.187  0.00  0.00    -0.166 F 
ATOM     21  F   UNL d   1      58.828  -7.267  35.956  0.00  0.00    -0.166 F 
ATOM     22  F   UNL d   1      60.470  -7.118  36.002  0.00  0.00    -0.166 F 
ENDBRANCH  15  19
ENDBRANCH  12  13
ENDBRANCH   1  12
TORSDOF 5
ENDMDL
