MODEL 1
REMARK VINA RESULT:      -5.1      0.000      0.000
REMARK  1 active torsions:
REMARK  status: ('A' for Active; 'I' for Inactive)
REMARK    1  A    between atoms: C_7  and  C_1 
ROOT
ATOM      1  C   UNL d   1      57.038   0.224  32.263  0.00  0.00     0.062 A 
ATOM      2  C   UNL d   1      57.053   0.075  31.464  0.00  0.00     0.199 A 
ATOM      3  C   UNL d   1      57.694   0.527  32.655  0.00  0.00     0.103 A 
ATOM      4  C   UNL d   1      57.749   0.229  31.017  0.00  0.00     0.062 A 
ATOM      5  C   UNL d   1      58.409   0.528  31.382  0.00  0.00     0.106 A 
ATOM      6  O   UNL d   1      58.390   0.681  32.208  0.00  0.00    -0.307 OA
ATOM      7  C   UNL d   1      59.091   0.679  30.943  0.00  0.00     0.067 A 
ATOM      8  C   UNL d   1      57.745   0.068  30.191  0.00  0.00     0.009 A 
ATOM      9  O   UNL d   1      56.344  -0.241  31.092  0.00  0.00    -0.286 OA
ATOM     10  C   UNL d   1      59.103   0.529  30.146  0.00  0.00     0.198 A 
ATOM     11  C   UNL d   1      58.440   0.222  29.744  0.00  0.00     0.042 A 
ATOM     12  C   UNL d   1      57.678   0.681  33.483  0.00  0.00     0.027 C 
ATOM     13  O   UNL d   1      59.795   0.682  29.701  0.00  0.00    -0.286 OA
ENDROOT
BRANCH   1  14
ATOM     14  C   UNL d   1      56.353   0.068  32.681  0.00  0.00     0.005 A 
ATOM     15  C   UNL d   1      56.169  -0.700  32.922  0.00  0.00     0.000 A 
ATOM     16  C   UNL d   1      56.690  -1.333  32.738  0.00  0.00     0.000 C 
ATOM     17  C   UNL d   1      55.477  -0.853  33.344  0.00  0.00     0.000 A 
ATOM     18  C   UNL d   1      54.980  -0.240  33.518  0.00  0.00     0.000 A 
ATOM     19  C   UNL d   1      55.133   0.522  33.296  0.00  0.00     0.000 A 
ATOM     20  C   UNL d   1      55.834   0.681  32.868  0.00  0.00     0.000 A 
ENDBRANCH   1  14
TORSDOF 1
ENDMDL
MODEL 2
REMARK VINA RESULT:      -4.2      1.144      3.698
REMARK  1 active torsions:
REMARK  status: ('A' for Active; 'I' for Inactive)
REMARK    1  A    between atoms: C_7  and  C_1 
ROOT
ATOM      1  C   UNL d   1      58.072  -0.294  30.751  0.00  0.00     0.062 A 
ATOM      2  C   UNL d   1      57.409  -0.645  31.063  0.00  0.00     0.199 A 
ATOM      3  C   UNL d   1      58.457   0.319  31.142  0.00  0.00     0.103 A 
ATOM      4  C   UNL d   1      57.098  -0.385  31.801  0.00  0.00     0.062 A 
ATOM      5  C   UNL d   1      57.460   0.218  32.204  0.00  0.00     0.106 A 
ATOM      6  O   UNL d   1      58.146   0.579  31.879  0.00  0.00    -0.307 OA
ATOM      7  C   UNL d   1      57.155   0.473  32.927  0.00  0.00     0.067 A 
ATOM      8  C   UNL d   1      56.410  -0.760  32.106  0.00  0.00     0.009 A 
ATOM      9  O   UNL d   1      57.036  -1.284  30.622  0.00  0.00    -0.286 OA
ATOM     10  C   UNL d   1      56.493   0.121  33.235  0.00  0.00     0.198 A 
ATOM     11  C   UNL d   1      56.100  -0.501  32.843  0.00  0.00     0.042 A 
ATOM     12  C   UNL d   1      59.145   0.682  30.818  0.00  0.00     0.027 C 
ATOM     13  O   UNL d   1      56.183   0.379  33.969  0.00  0.00    -0.286 OA
ENDROOT
BRANCH   1  14
ATOM     14  C   UNL d   1      58.360  -0.560  30.034  0.00  0.00     0.005 A 
ATOM     15  C   UNL d   1      58.241  -0.125  29.342  0.00  0.00     0.000 A 
ATOM     16  C   UNL d   1      57.820   0.601  29.371  0.00  0.00     0.000 C 
ATOM     17  C   UNL d   1      58.532  -0.397  28.620  0.00  0.00     0.000 A 
ATOM     18  C   UNL d   1      58.937  -1.096  28.598  0.00  0.00     0.000 A 
ATOM     19  C   UNL d   1      59.069  -1.544  29.259  0.00  0.00     0.000 A 
ATOM     20  C   UNL d   1      58.775  -1.272  29.992  0.00  0.00     0.000 A 
ENDBRANCH   1  14
TORSDOF 1
ENDMDL
MODEL 3
REMARK VINA RESULT:      -4.0      1.291      4.155
REMARK  1 active torsions:
REMARK  status: ('A' for Active; 'I' for Inactive)
REMARK    1  A    between atoms: C_7  and  C_1 
ROOT
ATOM      1  C   UNL d   1      58.374  -0.608  30.216  0.00  0.00     0.062 A 
ATOM      2  C   UNL d   1      58.155  -0.079  30.794  0.00  0.00     0.199 A 
ATOM      3  C   UNL d   1      58.014  -1.344  30.151  0.00  0.00     0.103 A 
ATOM      4  C   UNL d   1      57.548  -0.278  31.343  0.00  0.00     0.062 A 
ATOM      5  C   UNL d   1      57.180  -0.999  31.298  0.00  0.00     0.106 A 
ATOM      6  O   UNL d   1      57.409  -1.543  30.699  0.00  0.00    -0.307 OA
ATOM      7  C   UNL d   1      56.586  -1.194  31.836  0.00  0.00     0.067 A 
ATOM      8  C   UNL d   1      57.336   0.282  31.934  0.00  0.00     0.009 A 
ATOM      9  O   UNL d   1      58.556   0.681  30.828  0.00  0.00    -0.286 OA
ATOM     10  C   UNL d   1      56.370  -0.664  32.412  0.00  0.00     0.198 A 
ATOM     11  C   UNL d   1      56.731   0.083  32.482  0.00  0.00     0.042 A 
ATOM     12  C   UNL d   1      58.242  -1.891  29.551  0.00  0.00     0.027 C 
ATOM     13  O   UNL d   1      55.767  -0.862  32.958  0.00  0.00    -0.286 OA
ENDROOT
BRANCH   1  14
ATOM     14  C   UNL d   1      58.964  -0.397  29.692  0.00  0.00     0.005 A 
ATOM     15  C   UNL d   1      58.785  -0.002  28.989  0.00  0.00     0.000 A 
ATOM     16  C   UNL d   1      57.988   0.189  28.806  0.00  0.00     0.000 C 
ATOM     17  C   UNL d   1      59.384   0.209  28.463  0.00  0.00     0.000 A 
ATOM     18  C   UNL d   1      60.150   0.023  28.644  0.00  0.00     0.000 A 
ATOM     19  C   UNL d   1      60.355  -0.363  29.324  0.00  0.00     0.000 A 
ATOM     20  C   UNL d   1      59.751  -0.578  29.860  0.00  0.00     0.000 A 
ENDBRANCH   1  14
TORSDOF 1
ENDMDL
MODEL 4
REMARK VINA RESULT:      -3.3      1.369      3.535
REMARK  1 active torsions:
REMARK  status: ('A' for Active; 'I' for Inactive)
REMARK    1  A    between atoms: C_7  and  C_1 
ROOT
ATOM      1  C   UNL d   1      57.017   0.217  32.270  0.00  0.00     0.062 A 
ATOM      2  C   UNL d   1      56.241   0.064  32.459  0.00  0.00     0.199 A 
ATOM      3  C   UNL d   1      57.541   0.523  32.825  0.00  0.00     0.103 A 
ATOM      4  C   UNL d   1      55.955   0.218  33.236  0.00  0.00     0.062 A 
ATOM      5  C   UNL d   1      56.454   0.519  33.800  0.00  0.00     0.106 A 
ATOM      6  O   UNL d   1      57.255   0.676  33.601  0.00  0.00    -0.307 OA
ATOM      7  C   UNL d   1      56.174   0.670  34.561  0.00  0.00     0.067 A 
ATOM      8  C   UNL d   1      55.150   0.054  33.412  0.00  0.00     0.009 A 
ATOM      9  O   UNL d   1      55.725  -0.255  31.849  0.00  0.00    -0.286 OA
ATOM     10  C   UNL d   1      55.399   0.517  34.746  0.00  0.00     0.198 A 
ATOM     11  C   UNL d   1      54.864   0.207  34.188  0.00  0.00     0.042 A 
ATOM     12  C   UNL d   1      58.345   0.680  32.628  0.00  0.00     0.027 C 
ATOM     13  O   UNL d   1      55.115   0.669  35.519  0.00  0.00    -0.286 OA
ENDROOT
BRANCH   1  14
ATOM     14  C   UNL d   1      57.276   0.061  31.511  0.00  0.00     0.005 A 
ATOM     15  C   UNL d   1      57.403  -0.714  31.257  0.00  0.00     0.000 A 
ATOM     16  C   UNL d   1      57.266  -1.355  31.782  0.00  0.00     0.000 C 
ATOM     17  C   UNL d   1      57.665  -0.867  30.490  0.00  0.00     0.000 A 
ATOM     18  C   UNL d   1      57.796  -0.246  29.989  0.00  0.00     0.000 A 
ATOM     19  C   UNL d   1      57.680   0.523  30.209  0.00  0.00     0.000 A 
ATOM     20  C   UNL d   1      57.415   0.682  30.986  0.00  0.00     0.000 A 
ENDBRANCH   1  14
TORSDOF 1
ENDMDL
MODEL 5
REMARK VINA RESULT:      -2.7      9.030     10.133
REMARK  1 active torsions:
REMARK  status: ('A' for Active; 'I' for Inactive)
REMARK    1  A    between atoms: C_7  and  C_1 
ROOT
ATOM      1  C   UNL d   1      59.731  -9.339  33.918  0.00  0.00     0.062 A 
ATOM      2  C   UNL d   1      60.409  -9.225  33.484  0.00  0.00     0.199 A 
ATOM      3  C   UNL d   1      59.036  -9.601  33.565  0.00  0.00     0.103 A 
ATOM      4  C   UNL d   1      60.413  -9.376  32.655  0.00  0.00     0.062 A 
ATOM      5  C   UNL d   1      59.739  -9.635  32.286  0.00  0.00     0.106 A 
ATOM      6  O   UNL d   1      59.040  -9.751  32.738  0.00  0.00    -0.307 OA
ATOM      7  C   UNL d   1      59.743  -9.782  31.475  0.00  0.00     0.067 A 
ATOM      8  C   UNL d   1      61.124  -9.252  32.224  0.00  0.00     0.009 A 
ATOM      9  O   UNL d   1      61.115  -8.950  33.891  0.00  0.00    -0.286 OA
ATOM     10  C   UNL d   1      60.421  -9.668  31.045  0.00  0.00     0.198 A 
ATOM     11  C   UNL d   1      61.128  -9.403  31.396  0.00  0.00     0.042 A 
ATOM     12  C   UNL d   1      58.333  -9.718  34.016  0.00  0.00     0.027 C 
ATOM     13  O   UNL d   1      60.425  -9.818  30.221  0.00  0.00    -0.286 OA
ENDROOT
BRANCH   1  14
ATOM     14  C   UNL d   1      59.746  -9.187  34.721  0.00  0.00     0.005 A 
ATOM     15  C   UNL d   1      59.548  -8.442  35.015  0.00  0.00     0.000 A 
ATOM     16  C   UNL d   1      59.328  -7.827  34.487  0.00  0.00     0.000 C 
ATOM     17  C   UNL d   1      59.565  -8.293  35.826  0.00  0.00     0.000 A 
ATOM     18  C   UNL d   1      59.778  -8.888  36.330  0.00  0.00     0.000 A 
ATOM     19  C   UNL d   1      59.976  -9.628  36.071  0.00  0.00     0.000 A 
ATOM     20  C   UNL d   1      59.961  -9.782  35.250  0.00  0.00     0.000 A 
ENDBRANCH   1  14
TORSDOF 1
ENDMDL
MODEL 6
REMARK VINA RESULT:      -2.6      2.986      4.502
REMARK  1 active torsions:
REMARK  status: ('A' for Active; 'I' for Inactive)
REMARK    1  A    between atoms: C_7  and  C_1 
ROOT
ATOM      1  C   UNL d   1      59.326  -1.186  29.063  0.00  0.00     0.062 A 
ATOM      2  C   UNL d   1      59.044  -1.925  28.877  0.00  0.00     0.199 A 
ATOM      3  C   UNL d   1      60.127  -1.053  29.193  0.00  0.00     0.103 A 
ATOM      4  C   UNL d   1      59.572  -2.578  28.815  0.00  0.00     0.062 A 
ATOM      5  C   UNL d   1      60.366  -2.471  28.939  0.00  0.00     0.106 A 
ATOM      6  O   UNL d   1      60.655  -1.705  29.130  0.00  0.00    -0.307 OA
ATOM      7  C   UNL d   1      60.884  -3.111  28.877  0.00  0.00     0.067 A 
ATOM      8  C   UNL d   1      59.261  -3.335  28.622  0.00  0.00     0.009 A 
ATOM      9  O   UNL d   1      58.198  -2.022  28.749  0.00  0.00    -0.286 OA
ATOM     10  C   UNL d   1      60.599  -3.847  28.692  0.00  0.00     0.198 A 
ATOM     11  C   UNL d   1      59.788  -3.987  28.559  0.00  0.00     0.042 A 
ATOM     12  C   UNL d   1      60.419  -0.286  29.385  0.00  0.00     0.027 C 
ATOM     13  O   UNL d   1      61.124  -4.496  28.630  0.00  0.00    -0.286 OA
ENDROOT
BRANCH   1  14
ATOM     14  C   UNL d   1      58.798  -0.564  29.119  0.00  0.00     0.005 A 
ATOM     15  C   UNL d   1      58.426  -0.389  29.835  0.00  0.00     0.000 A 
ATOM     16  C   UNL d   1      58.587  -0.852  30.516  0.00  0.00     0.000 C 
ATOM     17  C   UNL d   1      57.893   0.239  29.888  0.00  0.00     0.000 A 
ATOM     18  C   UNL d   1      57.742   0.681  29.229  0.00  0.00     0.000 A 
ATOM     19  C   UNL d   1      58.091   0.534  28.515  0.00  0.00     0.000 A 
ATOM     20  C   UNL d   1      58.631  -0.102  28.457  0.00  0.00     0.000 A 
ENDBRANCH   1  14
TORSDOF 1
ENDMDL
