MODEL 1
REMARK VINA RESULT:      17.7      0.000      0.000
REMARK  2 active torsions:
REMARK  status: ('A' for Active; 'I' for Inactive)
REMARK    1  A    between atoms: C_2  and  S_1 
REMARK    2  A    between atoms: N_4  and  S_1 
ROOT
ATOM      1  S   UNL d   1     -57.821 -98.789 -44.227  0.00  0.00     0.275 S 
ATOM      2  O   UNL d   1     -57.656 -98.755 -43.424  0.00  0.00    -0.199 OA
ATOM      3  O   UNL d   1     -57.983 -98.823 -45.031  0.00  0.00    -0.199 OA
ENDROOT
BRANCH   1   4
ATOM      4  C   UNL d   1     -58.628 -98.782 -44.078  0.00  0.00     0.143 A 
ATOM      5  C   UNL d   1     -59.220 -98.770 -44.654  0.00  0.00     0.117 A 
ATOM      6  N   UNL d   1     -59.947 -98.766 -44.266  0.00  0.00    -0.147 NA
ATOM      7  C   UNL d   1     -59.109 -98.764 -45.472  0.00  0.00     0.023 C 
ATOM      8  N   UNL d   1     -59.800 -98.775 -43.452  0.00  0.00    -0.147 NA
ATOM      9  C   UNL d   1     -58.987 -98.784 -43.344  0.00  0.00     0.117 A 
ATOM     10  C   UNL d   1     -58.599 -98.795 -42.618  0.00  0.00     0.023 C 
ENDBRANCH   1   4
BRANCH   1  11
ATOM     11  N   UNL d   1     -57.015 -98.798 -44.412  0.00  0.00    -0.225 N 
ATOM     12  C   UNL d   1     -56.770 -98.756 -45.208  0.00  0.00     0.118 A 
ATOM     13  C   UNL d   1     -55.963 -98.765 -45.392  0.00  0.00     0.142 A 
ATOM     14  O   UNL d   1     -55.401 -98.815 -44.793  0.00  0.00    -0.300 OA
ATOM     15  C   UNL d   1     -55.642 -98.858 -44.004  0.00  0.00     0.142 A 
ATOM     16  C   UNL d   1     -56.449 -98.849 -43.811  0.00  0.00     0.118 A 
ENDBRANCH   1  11
TORSDOF 2
ENDMDL
MODEL 2
REMARK VINA RESULT:      18.5      0.287      1.198
REMARK  2 active torsions:
REMARK  status: ('A' for Active; 'I' for Inactive)
REMARK    1  A    between atoms: C_2  and  S_1 
REMARK    2  A    between atoms: N_4  and  S_1 
ROOT
ATOM      1  S   UNL d   1     -57.824 -98.842 -44.433  0.00  0.00     0.275 S 
ATOM      2  O   UNL d   1     -57.759 -98.757 -43.619  0.00  0.00    -0.199 OA
ATOM      3  O   UNL d   1     -57.884 -98.927 -45.247  0.00  0.00    -0.199 OA
ENDROOT
BRANCH   1   4
ATOM      4  C   UNL d   1     -58.643 -98.810 -44.388  0.00  0.00     0.143 A 
ATOM      5  C   UNL d   1     -59.082 -98.787 -43.689  0.00  0.00     0.117 A 
ATOM      6  N   UNL d   1     -59.879 -98.757 -43.896  0.00  0.00    -0.147 NA
ATOM      7  C   UNL d   1     -58.782 -98.792 -42.920  0.00  0.00     0.023 C 
ATOM      8  N   UNL d   1     -59.927 -98.762 -44.721  0.00  0.00    -0.147 NA
ATOM      9  C   UNL d   1     -59.163 -98.794 -45.017  0.00  0.00     0.117 A 
ATOM     10  C   UNL d   1     -58.957 -98.809 -45.814  0.00  0.00     0.023 C 
ENDBRANCH   1   4
BRANCH   1  11
ATOM     11  N   UNL d   1     -57.001 -98.879 -44.513  0.00  0.00    -0.225 N 
ATOM     12  C   UNL d   1     -56.650 -98.758 -45.260  0.00  0.00     0.118 A 
ATOM     13  C   UNL d   1     -55.827 -98.794 -45.340  0.00  0.00     0.142 A 
ATOM     14  O   UNL d   1     -55.353 -98.950 -44.685  0.00  0.00    -0.300 OA
ATOM     15  C   UNL d   1     -55.699 -99.069 -43.945  0.00  0.00     0.142 A 
ATOM     16  C   UNL d   1     -56.523 -99.034 -43.856  0.00  0.00     0.118 A 
ENDBRANCH   1  11
TORSDOF 2
ENDMDL
