MODEL 1
REMARK VINA RESULT:      62.1      0.000      0.000
REMARK  5 active torsions:
REMARK  status: ('A' for Active; 'I' for Inactive)
REMARK    1  A    between atoms: S_3  and  N_1 
REMARK    2  A    between atoms: C_7  and  C_4 
REMARK    3  A    between atoms: C_8  and  C_5 
REMARK    4  A    between atoms: O_21  and  C_13 
REMARK    5  A    between atoms: O_22  and  C_15 
ROOT
ATOM      1  N   UNL d   1     -50.912  24.412  33.807  0.00  0.00    -0.155 N 
ATOM      2  N   UNL d   1     -51.539  23.909  33.682  0.00  0.00    -0.155 NA
ATOM      3  C   UNL d   1     -52.227  24.359  33.640  0.00  0.00     0.110 A 
ATOM      4  C   UNL d   1     -51.213  25.178  33.844  0.00  0.00     0.096 A 
ATOM      5  C   UNL d   1     -52.021  25.140  33.741  0.00  0.00     0.041 A 
ENDROOT
BRANCH   4   6
ATOM      6  C   UNL d   1     -50.773  25.862  33.964  0.00  0.00     0.021 A 
ATOM      7  C   UNL d   1     -50.636  26.134  34.730  0.00  0.00     0.028 A 
ATOM      8  C   UNL d   1     -50.193  26.823  34.851  0.00  0.00     0.116 A 
ATOM      9  C   UNL d   1     -49.889  27.234  34.206  0.00  0.00     0.116 A 
ATOM     10  C   UNL d   1     -50.026  26.962  33.440  0.00  0.00     0.026 A 
ATOM     11  C   UNL d   1     -50.466  26.279  33.320  0.00  0.00     0.004 A 
BRANCH   8  12
ATOM     12  O   UNL d   1     -50.056  27.095  35.618  0.00  0.00    -0.326 OA
ATOM     13  C   UNL d   1     -50.689  27.249  36.120  0.00  0.00     0.181 C 
ENDBRANCH   8  12
BRANCH   9  14
ATOM     14  O   UNL d   1     -49.446  27.923  34.327  0.00  0.00    -0.326 OA
ATOM     15  C   UNL d   1     -48.955  28.210  33.727  0.00  0.00     0.181 C 
ENDBRANCH   9  14
ENDBRANCH   4   6
BRANCH   1  16
ATOM     16  S   UNL d   1     -50.129  24.195  33.883  0.00  0.00     0.266 S 
ATOM     17  O   UNL d   1     -49.326  23.960  33.971  0.00  0.00    -0.203 OA
ATOM     18  O   UNL d   1     -49.908  24.806  33.381  0.00  0.00    -0.203 OA
ATOM     19  C   UNL d   1     -50.345  23.588  34.382  0.00  0.00     0.165 C 
ENDBRANCH   1  16
BRANCH   3  20
ATOM     20  C   UNL d   1     -52.992  24.058  33.517  0.00  0.00     0.049 A 
ATOM     21  S   UNL d   1     -53.182  23.265  33.416  0.00  0.00    -0.085 SA
ATOM     22  C   UNL d   1     -54.013  23.193  33.307  0.00  0.00     0.035 A 
ATOM     23  C   UNL d   1     -54.321  23.959  33.345  0.00  0.00     0.007 A 
ATOM     24  C   UNL d   1     -53.683  24.485  33.475  0.00  0.00     0.009 A 
ENDBRANCH   3  20
TORSDOF 5
ENDMDL
MODEL 2
REMARK VINA RESULT:      64.9      1.432      2.342
REMARK  5 active torsions:
REMARK  status: ('A' for Active; 'I' for Inactive)
REMARK    1  A    between atoms: S_3  and  N_1 
REMARK    2  A    between atoms: C_7  and  C_4 
REMARK    3  A    between atoms: C_8  and  C_5 
REMARK    4  A    between atoms: O_21  and  C_13 
REMARK    5  A    between atoms: O_22  and  C_15 
ROOT
ATOM      1  N   UNL d   1     -51.944  25.716  34.077  0.00  0.00    -0.155 N 
ATOM      2  N   UNL d   1     -52.711  25.445  34.052  0.00  0.00    -0.155 NA
ATOM      3  C   UNL d   1     -52.715  24.710  33.681  0.00  0.00     0.110 A 
ATOM      4  C   UNL d   1     -51.469  25.145  33.719  0.00  0.00     0.096 A 
ATOM      5  C   UNL d   1     -51.947  24.530  33.478  0.00  0.00     0.041 A 
ENDROOT
BRANCH   4   6
ATOM      6  C   UNL d   1     -50.654  25.191  33.622  0.00  0.00     0.021 A 
ATOM      7  C   UNL d   1     -50.205  24.500  33.586  0.00  0.00     0.028 A 
ATOM      8  C   UNL d   1     -49.384  24.545  33.489  0.00  0.00     0.116 A 
ATOM      9  C   UNL d   1     -49.018  25.280  33.429  0.00  0.00     0.116 A 
ATOM     10  C   UNL d   1     -49.467  25.971  33.466  0.00  0.00     0.026 A 
ATOM     11  C   UNL d   1     -50.282  25.926  33.562  0.00  0.00     0.004 A 
BRANCH   8  12
ATOM     12  O   UNL d   1     -48.935  23.854  33.452  0.00  0.00    -0.326 OA
ATOM     13  C   UNL d   1     -49.137  23.206  33.917  0.00  0.00     0.181 C 
ENDBRANCH   8  12
BRANCH   9  14
ATOM     14  O   UNL d   1     -48.197  25.326  33.332  0.00  0.00    -0.326 OA
ATOM     15  C   UNL d   1     -47.756  25.858  33.784  0.00  0.00     0.181 C 
ENDBRANCH   9  14
ENDBRANCH   4   6
BRANCH   1  16
ATOM     16  S   UNL d   1     -51.694  26.422  34.398  0.00  0.00     0.266 S 
ATOM     17  O   UNL d   1     -51.430  27.156  34.714  0.00  0.00    -0.203 OA
ATOM     18  O   UNL d   1     -51.938  26.176  35.142  0.00  0.00    -0.203 OA
ATOM     19  C   UNL d   1     -51.450  26.671  33.661  0.00  0.00     0.165 C 
ENDBRANCH   1  16
BRANCH   3  20
ATOM     20  C   UNL d   1     -53.388  24.243  33.543  0.00  0.00     0.049 A 
ATOM     21  S   UNL d   1     -54.160  24.521  33.501  0.00  0.00    -0.085 SA
ATOM     22  C   UNL d   1     -54.678  23.875  33.355  0.00  0.00     0.035 A 
ATOM     23  C   UNL d   1     -54.202  23.201  33.309  0.00  0.00     0.007 A 
ATOM     24  C   UNL d   1     -53.409  23.439  33.427  0.00  0.00     0.009 A 
ENDBRANCH   3  20
TORSDOF 5
ENDMDL
