MODEL 1
REMARK VINA RESULT:      67.4      0.000      0.000
REMARK  4 active torsions:
REMARK  status: ('A' for Active; 'I' for Inactive)
REMARK    1  A    between atoms: N_2  and  C_1 
REMARK    2  A    between atoms: C_3  and  C_1 
REMARK       I    between atoms: C_6  and  N_2 
REMARK       I    between atoms: N_8  and  C_6 
REMARK    3  A    between atoms: N_11  and  C_7 
REMARK    4  A    between atoms: C_9  and  N_8 
ROOT
ATOM      1  N   UNL d   1     -48.584  29.605  34.452  0.00  0.00    -0.159 NA
ATOM      2  C   UNL d   1     -49.315  29.353  34.166  0.00  0.00     0.370 C 
ATOM      3  N   UNL d   1     -49.464  28.552  34.085  0.00  0.00    -0.172 NA
ATOM      4  O   UNL d   1     -49.895  29.905  33.963  0.00  0.00    -0.243 OA
ENDROOT
BRANCH   1   5
ATOM      5  C   UNL d   1     -48.077  30.209  34.663  0.00  0.00     0.386 A 
ATOM      6  O   UNL d   1     -48.499  30.603  34.073  0.00  0.00    -0.283 OA
ATOM      7  C   UNL d   1     -48.204  31.370  34.002  0.00  0.00     0.121 A 
ATOM      8  C   UNL d   1     -48.411  31.999  33.511  0.00  0.00     0.026 A 
ATOM      9  C   UNL d   1     -47.594  31.454  34.554  0.00  0.00     0.121 A 
ATOM     10  C   UNL d   1     -48.008  32.711  33.571  0.00  0.00     0.002 A 
ATOM     11  C   UNL d   1     -47.394  32.801  34.124  0.00  0.00     0.002 A 
ATOM     12  C   UNL d   1     -47.193  32.169  34.611  0.00  0.00     0.026 A 
ATOM     13  O   UNL d   1     -47.517  30.744  34.957  0.00  0.00    -0.283 OA
BRANCH   5  14
ATOM     14  C   UNL d   1     -47.725  29.723  35.228  0.00  0.00     0.470 C 
ATOM     15  F   UNL d   1     -47.044  29.207  35.157  0.00  0.00    -0.164 F 
ATOM     16  F   UNL d   1     -47.952  29.601  36.056  0.00  0.00    -0.164 F 
ATOM     17  F   UNL d   1     -47.409  29.281  35.749  0.00  0.00    -0.164 F 
ENDBRANCH   5  14
ENDBRANCH   1   5
BRANCH   3  18
ATOM     18  C   UNL d   1     -50.114  28.105  33.824  0.00  0.00     0.172 A 
ATOM     19  C   UNL d   1     -50.051  27.291  33.767  0.00  0.00     0.076 A 
ATOM     20  C   UNL d   1     -50.693  26.841  33.508  0.00  0.00     0.153 A 
ATOM     21  N   UNL d   1     -51.407  27.224  33.306  0.00  0.00    -0.206 NA
ATOM     22  C   UNL d   1     -51.464  28.044  33.366  0.00  0.00     0.202 A 
ATOM     23  N   UNL d   1     -50.822  28.490  33.624  0.00  0.00    -0.205 NA
BRANCH  20  24
ATOM     24  N   UNL d   1     -50.636  26.020  33.448  0.00  0.00    -0.285 N 
ATOM     25  C   UNL d   1     -51.317  25.563  33.430  0.00  0.00     0.108 A 
ATOM     26  C   UNL d   1     -51.247  24.742  33.370  0.00  0.00     0.142 A 
ATOM     27  O   UNL d   1     -50.510  24.383  33.328  0.00  0.00    -0.300 OA
ATOM     28  C   UNL d   1     -49.831  24.849  33.347  0.00  0.00     0.142 A 
ATOM     29  C   UNL d   1     -49.887  25.670  33.407  0.00  0.00     0.108 A 
ENDBRANCH  20  24
ENDBRANCH   3  18
TORSDOF 4
ENDMDL
MODEL 2
REMARK VINA RESULT:      69.9      1.019      1.486
REMARK  4 active torsions:
REMARK  status: ('A' for Active; 'I' for Inactive)
REMARK    1  A    between atoms: N_2  and  C_1 
REMARK    2  A    between atoms: C_3  and  C_1 
REMARK       I    between atoms: C_6  and  N_2 
REMARK       I    between atoms: N_8  and  C_6 
REMARK    3  A    between atoms: N_11  and  C_7 
REMARK    4  A    between atoms: C_9  and  N_8 
ROOT
ATOM      1  N   UNL d   1     -48.242  29.491  34.767  0.00  0.00    -0.159 NA
ATOM      2  C   UNL d   1     -48.232  28.686  34.584  0.00  0.00     0.370 C 
ATOM      3  N   UNL d   1     -48.871  28.352  34.196  0.00  0.00    -0.172 NA
ATOM      4  O   UNL d   1     -47.583  28.221  34.791  0.00  0.00    -0.243 OA
ENDROOT
BRANCH   1   5
ATOM      5  C   UNL d   1     -47.882  30.146  35.095  0.00  0.00     0.386 A 
ATOM      6  O   UNL d   1     -48.199  30.502  34.421  0.00  0.00    -0.283 OA
ATOM      7  C   UNL d   1     -47.999  31.302  34.424  0.00  0.00     0.121 A 
ATOM      8  C   UNL d   1     -48.163  31.916  33.898  0.00  0.00     0.026 A 
ATOM      9  C   UNL d   1     -47.553  31.444  35.106  0.00  0.00     0.121 A 
ATOM     10  C   UNL d   1     -47.882  32.671  34.054  0.00  0.00     0.002 A 
ATOM     11  C   UNL d   1     -47.433  32.820  34.738  0.00  0.00     0.002 A 
ATOM     12  C   UNL d   1     -47.274  32.202  35.258  0.00  0.00     0.026 A 
ATOM     13  O   UNL d   1     -47.482  30.738  35.515  0.00  0.00    -0.283 OA
BRANCH   5  14
ATOM     14  C   UNL d   1     -47.615  29.690  35.727  0.00  0.00     0.470 C 
ATOM     15  F   UNL d   1     -48.063  29.251  36.311  0.00  0.00    -0.164 F 
ATOM     16  F   UNL d   1     -46.799  29.530  35.974  0.00  0.00    -0.164 F 
ATOM     17  F   UNL d   1     -47.364  29.275  36.302  0.00  0.00    -0.164 F 
ENDBRANCH   5  14
ENDBRANCH   1   5
BRANCH   3  18
ATOM     18  C   UNL d   1     -49.053  27.586  33.929  0.00  0.00     0.172 A 
ATOM     19  C   UNL d   1     -49.836  27.359  33.848  0.00  0.00     0.076 A 
ATOM     20  C   UNL d   1     -50.023  26.600  33.583  0.00  0.00     0.153 A 
ATOM     21  N   UNL d   1     -49.407  26.067  33.399  0.00  0.00    -0.206 NA
ATOM     22  C   UNL d   1     -48.622  26.301  33.482  0.00  0.00     0.202 A 
ATOM     23  N   UNL d   1     -48.438  27.059  33.747  0.00  0.00    -0.205 NA
BRANCH  20  24
ATOM     24  N   UNL d   1     -50.809  26.365  33.500  0.00  0.00    -0.285 N 
ATOM     25  C   UNL d   1     -50.995  25.567  33.457  0.00  0.00     0.108 A 
ATOM     26  C   UNL d   1     -51.786  25.344  33.373  0.00  0.00     0.142 A 
ATOM     27  O   UNL d   1     -52.382  25.908  33.334  0.00  0.00    -0.300 OA
ATOM     28  C   UNL d   1     -52.187  26.707  33.378  0.00  0.00     0.142 A 
ATOM     29  C   UNL d   1     -51.401  26.942  33.461  0.00  0.00     0.108 A 
ENDBRANCH  20  24
ENDBRANCH   3  18
TORSDOF 4
ENDMDL
