MODEL 1
REMARK VINA RESULT:      -8.4      0.000      0.000
REMARK  8 active torsions:
REMARK  status: ('A' for Active; 'I' for Inactive)
REMARK    1  A    between atoms: C_21  and  N_5 
REMARK    2  A    between atoms: S_10  and  C_6 
REMARK    3  A    between atoms: C_17  and  C_7 
REMARK    4  A    between atoms: C_23  and  S_10 
REMARK    5  A    between atoms: C_13  and  C_23 
REMARK       I    between atoms: N_19  and  C_13 
REMARK    6  A    between atoms: C_28  and  N_19 
REMARK    7  A    between atoms: C_24  and  C_21 
REMARK    8  A    between atoms: C_27  and  C_28 
ROOT
ATOM      1  C   UNL d   1      53.153  31.058  53.780  0.00  0.00     0.081 A 
ATOM      2  C   UNL d   1      52.758  31.272  53.119  0.00  0.00     0.117 A 
ATOM      3  N   UNL d   1      52.647  32.086  52.887  0.00  0.00    -0.215 NA
ATOM      4  C   UNL d   1      53.474  31.681  54.266  0.00  0.00     0.268 A 
ATOM      5  N   UNL d   1      53.381  32.471  54.063  0.00  0.00    -0.253 N 
ATOM      6  C   UNL d   1      52.945  32.674  53.337  0.00  0.00     0.182 A 
ATOM      7  C   UNL d   1      53.161  30.247  53.845  0.00  0.00     0.013 A 
ATOM      8  S   UNL d   1      52.491  30.576  52.728  0.00  0.00    -0.067 SA
ATOM      9  C   UNL d   1      52.752  29.938  53.195  0.00  0.00     0.037 A 
ATOM     10  O   UNL d   1      53.897  31.506  54.970  0.00  0.00    -0.267 OA
ENDROOT
BRANCH   6  11
ATOM     11  S   UNL d   1      52.837  33.472  53.109  0.00  0.00    -0.044 SA
BRANCH  11  12
ATOM     12  C   UNL d   1      52.133  33.748  52.853  0.00  0.00     0.101 C 
BRANCH  12  13
ATOM     13  C   UNL d   1      52.030  34.487  52.605  0.00  0.00     0.286 C 
ATOM     14  N   UNL d   1      51.316  34.836  52.459  0.00  0.00    -0.206 NA
ATOM     15  O   UNL d   1      52.685  34.945  52.483  0.00  0.00    -0.265 OA
BRANCH  14  16
ATOM     16  C   UNL d   1      50.672  34.321  52.601  0.00  0.00     0.102 C 
BRANCH  16  17
ATOM     17  C   UNL d   1      49.891  34.636  52.427  0.00  0.00     0.021 A 
ATOM     18  C   UNL d   1      49.467  35.114  52.983  0.00  0.00     0.028 A 
ATOM     19  C   UNL d   1      48.746  35.398  52.806  0.00  0.00     0.119 A 
ATOM     20  O   UNL d   1      48.235  35.869  53.253  0.00  0.00    -0.300 OA
ATOM     21  C   UNL d   1      48.393  35.238  52.083  0.00  0.00     0.119 A 
ATOM     22  C   UNL d   1      47.577  35.979  52.773  0.00  0.00     0.304 A 
ATOM     23  O   UNL d   1      47.672  35.594  52.057  0.00  0.00    -0.300 OA
ATOM     24  C   UNL d   1      48.800  34.761  51.509  0.00  0.00     0.026 A 
ATOM     25  C   UNL d   1      49.531  34.478  51.699  0.00  0.00     0.004 A 
ENDBRANCH  16  17
ENDBRANCH  14  16
ENDBRANCH  12  13
ENDBRANCH  11  12
ENDBRANCH   6  11
BRANCH   5  26
ATOM     26  C   UNL d   1      53.732  33.023  54.603  0.00  0.00     0.085 C 
BRANCH  26  27
ATOM     27  C   UNL d   1      54.583  33.123  54.649  0.00  0.00     0.019 C 
ATOM     28  C   UNL d   1      54.878  33.703  55.159  0.00  0.00     0.002 C 
ENDBRANCH  26  27
ENDBRANCH   5  26
BRANCH   7  29
ATOM     29  C   UNL d   1      53.361  29.573  54.215  0.00  0.00     0.001 A 
ATOM     30  C   UNL d   1      53.926  29.029  53.960  0.00  0.00     0.000 A 
ATOM     31  C   UNL d   1      54.125  28.354  54.330  0.00  0.00     0.000 A 
ATOM     32  C   UNL d   1      53.733  28.173  55.037  0.00  0.00     0.000 A 
ATOM     33  C   UNL d   1      53.163  28.694  55.321  0.00  0.00     0.000 A 
ATOM     34  C   UNL d   1      52.976  29.388  54.915  0.00  0.00     0.000 A 
ENDBRANCH   7  29
TORSDOF 8
ENDMDL
MODEL 2
REMARK VINA RESULT:      -6.5      1.925      3.416
REMARK  8 active torsions:
REMARK  status: ('A' for Active; 'I' for Inactive)
REMARK    1  A    between atoms: C_21  and  N_5 
REMARK    2  A    between atoms: S_10  and  C_6 
REMARK    3  A    between atoms: C_17  and  C_7 
REMARK    4  A    between atoms: C_23  and  S_10 
REMARK    5  A    between atoms: C_13  and  C_23 
REMARK       I    between atoms: N_19  and  C_13 
REMARK    6  A    between atoms: C_28  and  N_19 
REMARK    7  A    between atoms: C_24  and  C_21 
REMARK    8  A    between atoms: C_27  and  C_28 
ROOT
ATOM      1  C   UNL d   1      52.894  33.960  53.906  0.00  0.00     0.081 A 
ATOM      2  C   UNL d   1      52.487  34.599  53.652  0.00  0.00     0.117 A 
ATOM      3  N   UNL d   1      51.774  34.541  53.187  0.00  0.00    -0.215 NA
ATOM      4  C   UNL d   1      52.590  33.191  53.696  0.00  0.00     0.268 A 
ATOM      5  N   UNL d   1      51.906  33.110  53.250  0.00  0.00    -0.253 N 
ATOM      6  C   UNL d   1      51.484  33.826  52.987  0.00  0.00     0.182 A 
ATOM      7  C   UNL d   1      53.544  34.198  54.333  0.00  0.00     0.013 A 
ATOM      8  S   UNL d   1      52.882  35.292  53.920  0.00  0.00    -0.067 SA
ATOM      9  C   UNL d   1      53.546  35.026  54.347  0.00  0.00     0.037 A 
ATOM     10  O   UNL d   1      52.982  32.489  53.939  0.00  0.00    -0.267 OA
ENDROOT
BRANCH   6  11
ATOM     11  S   UNL d   1      50.785  33.770  52.531  0.00  0.00    -0.044 SA
BRANCH  11  12
ATOM     12  C   UNL d   1      50.278  34.382  52.455  0.00  0.00     0.101 C 
BRANCH  12  13
ATOM     13  C   UNL d   1      49.747  34.425  51.877  0.00  0.00     0.286 C 
ATOM     14  N   UNL d   1      49.049  34.831  51.913  0.00  0.00    -0.206 NA
ATOM     15  O   UNL d   1      49.900  34.036  51.186  0.00  0.00    -0.265 OA
BRANCH  14  16
ATOM     16  C   UNL d   1      48.938  35.216  52.648  0.00  0.00     0.102 C 
BRANCH  16  17
ATOM     17  C   UNL d   1      48.184  35.613  52.756  0.00  0.00     0.021 A 
ATOM     18  C   UNL d   1      47.600  35.641  52.142  0.00  0.00     0.028 A 
ATOM     19  C   UNL d   1      46.908  36.013  52.259  0.00  0.00     0.119 A 
ATOM     20  O   UNL d   1      46.264  36.110  51.750  0.00  0.00    -0.300 OA
ATOM     21  C   UNL d   1      46.738  36.380  52.973  0.00  0.00     0.119 A 
ATOM     22  C   UNL d   1      45.716  36.543  52.185  0.00  0.00     0.304 A 
ATOM     23  O   UNL d   1      46.005  36.708  52.933  0.00  0.00    -0.300 OA
ATOM     24  C   UNL d   1      47.309  36.366  53.602  0.00  0.00     0.026 A 
ATOM     25  C   UNL d   1      48.009  35.985  53.473  0.00  0.00     0.004 A 
ENDBRANCH  16  17
ENDBRANCH  14  16
ENDBRANCH  12  13
ENDBRANCH  11  12
ENDBRANCH   6  11
BRANCH   5  26
ATOM     26  C   UNL d   1      51.677  32.310  53.087  0.00  0.00     0.085 C 
BRANCH  26  27
ATOM     27  C   UNL d   1      52.184  31.781  52.641  0.00  0.00     0.019 C 
ATOM     28  C   UNL d   1      52.077  30.967  52.738  0.00  0.00     0.002 C 
ENDBRANCH  26  27
ENDBRANCH   5  26
BRANCH   7  29
ATOM     29  C   UNL d   1      54.200  34.053  54.757  0.00  0.00     0.001 A 
ATOM     30  C   UNL d   1      54.971  34.024  54.464  0.00  0.00     0.000 A 
ATOM     31  C   UNL d   1      55.627  33.879  54.890  0.00  0.00     0.000 A 
ATOM     32  C   UNL d   1      55.537  33.742  55.701  0.00  0.00     0.000 A 
ATOM     33  C   UNL d   1      54.781  33.763  56.027  0.00  0.00     0.000 A 
ATOM     34  C   UNL d   1      54.117  33.916  55.562  0.00  0.00     0.000 A 
ENDBRANCH   7  29
TORSDOF 8
ENDMDL
MODEL 3
REMARK VINA RESULT:      -5.4      1.392      6.067
REMARK  8 active torsions:
REMARK  status: ('A' for Active; 'I' for Inactive)
REMARK    1  A    between atoms: C_21  and  N_5 
REMARK    2  A    between atoms: S_10  and  C_6 
REMARK    3  A    between atoms: C_17  and  C_7 
REMARK    4  A    between atoms: C_23  and  S_10 
REMARK    5  A    between atoms: C_13  and  C_23 
REMARK       I    between atoms: N_19  and  C_13 
REMARK    6  A    between atoms: C_28  and  N_19 
REMARK    7  A    between atoms: C_24  and  C_21 
REMARK    8  A    between atoms: C_27  and  C_28 
ROOT
ATOM      1  C   UNL d   1      50.642  34.581  52.878  0.00  0.00     0.081 A 
ATOM      2  C   UNL d   1      50.929  33.996  52.414  0.00  0.00     0.117 A 
ATOM      3  N   UNL d   1      51.710  33.667  52.510  0.00  0.00    -0.215 NA
ATOM      4  C   UNL d   1      51.151  34.879  53.494  0.00  0.00     0.268 A 
ATOM      5  N   UNL d   1      51.906  34.578  53.607  0.00  0.00    -0.253 N 
ATOM      6  C   UNL d   1      52.191  33.941  53.084  0.00  0.00     0.182 A 
ATOM      7  C   UNL d   1      49.886  34.771  52.647  0.00  0.00     0.013 A 
ATOM      8  S   UNL d   1      50.340  33.789  51.849  0.00  0.00    -0.067 SA
ATOM      9  C   UNL d   1      49.689  34.285  52.007  0.00  0.00     0.037 A 
ATOM     10  O   UNL d   1      50.895  35.492  54.008  0.00  0.00    -0.267 OA
ENDROOT
BRANCH   6  11
ATOM     11  S   UNL d   1      52.957  33.618  53.179  0.00  0.00    -0.044 SA
BRANCH  11  12
ATOM     12  C   UNL d   1      53.118  32.853  53.014  0.00  0.00     0.101 C 
BRANCH  12  13
ATOM     13  C   UNL d   1      53.794  32.507  53.218  0.00  0.00     0.286 C 
ATOM     14  N   UNL d   1      53.878  31.728  53.416  0.00  0.00    -0.206 NA
ATOM     15  O   UNL d   1      54.465  32.956  53.235  0.00  0.00    -0.265 OA
BRANCH  14  16
ATOM     16  C   UNL d   1      53.156  31.307  53.383  0.00  0.00     0.102 C 
BRANCH  16  17
ATOM     17  C   UNL d   1      53.185  30.488  53.640  0.00  0.00     0.021 A 
ATOM     18  C   UNL d   1      53.288  30.276  54.454  0.00  0.00     0.028 A 
ATOM     19  C   UNL d   1      53.313  29.513  54.674  0.00  0.00     0.119 A 
ATOM     20  O   UNL d   1      53.407  29.178  55.423  0.00  0.00    -0.300 OA
ATOM     21  C   UNL d   1      53.239  28.909  54.122  0.00  0.00     0.119 A 
ATOM     22  C   UNL d   1      53.387  28.366  55.295  0.00  0.00     0.304 A 
ATOM     23  O   UNL d   1      53.284  28.201  54.500  0.00  0.00    -0.300 OA
ATOM     24  C   UNL d   1      53.135  29.098  53.300  0.00  0.00     0.026 A 
ATOM     25  C   UNL d   1      53.111  29.876  53.088  0.00  0.00     0.004 A 
ENDBRANCH  16  17
ENDBRANCH  14  16
ENDBRANCH  12  13
ENDBRANCH  11  12
ENDBRANCH   6  11
BRANCH   5  26
ATOM     26  C   UNL d   1      52.343  34.932  54.242  0.00  0.00     0.085 C 
BRANCH  26  27
ATOM     27  C   UNL d   1      52.812  35.641  54.121  0.00  0.00     0.019 C 
ATOM     28  C   UNL d   1      53.188  35.973  54.778  0.00  0.00     0.002 C 
ENDBRANCH  26  27
ENDBRANCH   5  26
BRANCH   7  29
ATOM     29  C   UNL d   1      49.215  35.191  52.711  0.00  0.00     0.001 A 
ATOM     30  C   UNL d   1      48.897  35.493  53.410  0.00  0.00     0.000 A 
ATOM     31  C   UNL d   1      48.225  35.913  53.473  0.00  0.00     0.000 A 
ATOM     32  C   UNL d   1      47.799  36.066  52.780  0.00  0.00     0.000 A 
ATOM     33  C   UNL d   1      48.088  35.779  52.064  0.00  0.00     0.000 A 
ATOM     34  C   UNL d   1      48.789  35.346  52.027  0.00  0.00     0.000 A 
ENDBRANCH   7  29
TORSDOF 8
ENDMDL
