MODEL 1
REMARK VINA RESULT:      74.2      0.000      0.000
REMARK  5 active torsions:
REMARK  status: ('A' for Active; 'I' for Inactive)
REMARK    1  A    between atoms: N_10  and  C_3 
REMARK    2  A    between atoms: C_11  and  C_5 
REMARK    3  A    between atoms: C_15  and  C_9 
REMARK    4  A    between atoms: C_16  and  N_10 
REMARK       I    between atoms: C_12  and  N_13 
REMARK    5  A    between atoms: N_13  and  C_17 
ROOT
ATOM      1  C   UNL d   1     -51.243  25.327  33.582  0.00  0.00     0.168 A 
ATOM      2  N   UNL d   1     -50.847  26.037  33.665  0.00  0.00    -0.184 N 
ATOM      3  C   UNL d   1     -50.043  26.036  33.683  0.00  0.00     0.218 A 
ATOM      4  N   UNL d   1     -52.071  26.717  33.708  0.00  0.00    -0.162 NA
ATOM      5  C   UNL d   1     -52.039  25.318  33.563  0.00  0.00     0.055 A 
ATOM      6  N   UNL d   1     -50.822  24.643  33.520  0.00  0.00    -0.227 NA
ATOM      7  C   UNL d   1     -49.617  25.325  33.618  0.00  0.00     0.071 A 
ATOM      8  C   UNL d   1     -52.468  26.007  33.625  0.00  0.00     0.104 A 
ATOM      9  C   UNL d   1     -50.024  24.650  33.539  0.00  0.00     0.087 A 
ATOM     10  C   UNL d   1     -53.259  25.996  33.606  0.00  0.00     0.023 C 
ENDROOT
BRANCH   3  11
ATOM     11  N   UNL d   1     -49.632  26.762  33.768  0.00  0.00    -0.383 NA
BRANCH  11  12
ATOM     12  C   UNL d   1     -49.297  27.503  33.927  0.00  0.00     0.134 A 
ATOM     13  C   UNL d   1     -48.914  27.648  34.641  0.00  0.00     0.034 A 
ATOM     14  C   UNL d   1     -48.575  28.409  34.794  0.00  0.00     0.022 A 
ATOM     15  C   UNL d   1     -48.628  29.012  34.225  0.00  0.00     0.085 A 
ATOM     16  C   UNL d   1     -49.017  28.870  33.499  0.00  0.00     0.022 A 
ATOM     17  C   UNL d   1     -49.357  28.114  33.338  0.00  0.00     0.034 A 
BRANCH  15  18
ATOM     18  N   UNL d   1     -48.295  29.763  34.373  0.00  0.00    -0.208 NA
ATOM     19  C   UNL d   1     -47.654  29.840  34.886  0.00  0.00     0.279 C 
ATOM     20  O   UNL d   1     -47.323  30.588  35.033  0.00  0.00    -0.265 OA
ATOM     21  C   UNL d   1     -47.334  29.167  35.262  0.00  0.00     0.068 C 
ENDBRANCH  15  18
ENDBRANCH  11  12
ENDBRANCH   3  11
BRANCH   9  22
ATOM     22  C   UNL d   1     -49.585  23.927  33.473  0.00  0.00     0.018 C 
ATOM     23  C   UNL d   1     -50.006  23.189  33.416  0.00  0.00     0.002 C 
ATOM     24  C   UNL d   1     -48.741  23.940  33.464  0.00  0.00     0.002 C 
ENDBRANCH   9  22
BRANCH   5  25
ATOM     25  C   UNL d   1     -52.440  24.601  33.479  0.00  0.00     0.004 A 
ATOM     26  C   UNL d   1     -53.244  24.590  33.482  0.00  0.00     0.000 A 
ATOM     27  C   UNL d   1     -53.639  23.884  33.400  0.00  0.00     0.000 A 
ATOM     28  C   UNL d   1     -53.221  23.204  33.315  0.00  0.00     0.000 A 
ATOM     29  C   UNL d   1     -52.410  23.221  33.313  0.00  0.00     0.000 A 
ATOM     30  C   UNL d   1     -52.028  23.920  33.395  0.00  0.00     0.000 A 
ENDBRANCH   5  25
TORSDOF 5
ENDMDL
