MODEL 1
REMARK VINA RESULT:      -0.0      0.000      0.000
REMARK  10 active torsions:
REMARK  status: ('A' for Active; 'I' for Inactive)
REMARK    1  A    between atoms: C_14  and  N_1 
REMARK    2  A    between atoms: C_7  and  N_3 
REMARK    3  A    between atoms: C_9  and  C_7 
REMARK       I    between atoms: N_18  and  C_9 
REMARK    4  A    between atoms: C_11  and  C_24 
REMARK       I    between atoms: N_12  and  C_11 
REMARK    5  A    between atoms: C_21  and  N_12 
REMARK    6  A    between atoms: C_13  and  C_25 
REMARK    7  A    between atoms: C_23  and  C_14 
REMARK    8  A    between atoms: C_22  and  N_18 
REMARK    9  A    between atoms: C_25  and  C_22 
REMARK   10  A    between atoms: C_24  and  C_23 
ROOT
ATOM      1  N   UNL d   1      58.956  -1.776  28.969  0.00  0.00    -0.226 N 
ATOM      2  C   UNL d   1      58.365  -1.296  29.288  0.00  0.00     0.342 A 
ATOM      3  N   UNL d   1      58.572  -0.654  29.770  0.00  0.00    -0.254 N 
ATOM      4  C   UNL d   1      59.753  -1.613  29.132  0.00  0.00     0.270 A 
ATOM      5  C   UNL d   1      59.955  -0.974  29.611  0.00  0.00     0.073 A 
ATOM      6  C   UNL d   1      59.364  -0.494  29.930  0.00  0.00     0.073 A 
ATOM      7  O   UNL d   1      57.567  -1.455  29.129  0.00  0.00    -0.245 OA
ATOM      8  O   UNL d   1      60.343  -2.093  28.813  0.00  0.00    -0.266 OA
ATOM      9  C   UNL d   1      60.747  -0.816  29.770  0.00  0.00     0.006 A 
ATOM     10  C   UNL d   1      59.566   0.144  30.408  0.00  0.00     0.018 A 
ATOM     11  C   UNL d   1      60.948  -0.176  30.249  0.00  0.00     0.000 A 
ATOM     12  C   UNL d   1      60.358   0.304  30.568  0.00  0.00     0.002 A 
ENDROOT
BRANCH   3  13
ATOM     13  C   UNL d   1      57.981  -0.173  30.089  0.00  0.00     0.147 C 
BRANCH  13  14
ATOM     14  C   UNL d   1      57.674  -0.352  30.834  0.00  0.00     0.297 C 
ATOM     15  O   UNL d   1      57.478  -1.128  31.032  0.00  0.00    -0.264 OA
ATOM     16  N   UNL d   1      57.557   0.252  31.396  0.00  0.00    -0.205 NA
BRANCH  16  17
ATOM     17  C   UNL d   1      57.249   0.081  32.145  0.00  0.00     0.102 C 
BRANCH  17  18
ATOM     18  C   UNL d   1      56.902   0.680  32.593  0.00  0.00     0.021 C 
BRANCH  18  19
ATOM     19  C   UNL d   1      56.323   0.499  33.152  0.00  0.00     0.002 A 
ATOM     20  C   UNL d   1      56.531   0.371  33.940  0.00  0.00     0.000 A 
ATOM     21  C   UNL d   1      55.954   0.191  34.495  0.00  0.00     0.000 A 
ATOM     22  C   UNL d   1      55.162   0.138  34.263  0.00  0.00     0.000 A 
ATOM     23  C   UNL d   1      54.955   0.267  33.475  0.00  0.00     0.000 A 
ATOM     24  C   UNL d   1      55.533   0.448  32.916  0.00  0.00     0.000 A 
ENDBRANCH  18  19
ENDBRANCH  17  18
ENDBRANCH  16  17
ENDBRANCH  13  14
ENDBRANCH   3  13
BRANCH   1  25
ATOM     25  C   UNL d   1      58.751  -2.418  28.489  0.00  0.00     0.088 C 
BRANCH  25  26
ATOM     26  C   UNL d   1      58.688  -3.177  28.806  0.00  0.00     0.024 C 
BRANCH  26  27
ATOM     27  C   UNL d   1      58.083  -3.682  28.570  0.00  0.00     0.064 C 
BRANCH  27  28
ATOM     28  C   UNL d   1      58.218  -4.504  28.552  0.00  0.00     0.279 C 
ATOM     29  N   UNL d   1      57.578  -5.025  28.552  0.00  0.00    -0.208 NA
ATOM     30  O   UNL d   1      58.986  -4.803  28.534  0.00  0.00    -0.265 OA
BRANCH  29  31
ATOM     31  C   UNL d   1      57.695  -5.841  28.534  0.00  0.00     0.085 A 
ATOM     32  C   UNL d   1      58.375  -6.314  28.528  0.00  0.00     0.019 A 
ATOM     33  C   UNL d   1      58.140  -7.101  28.508  0.00  0.00     0.002 A 
ATOM     34  C   UNL d   1      57.314  -7.123  28.501  0.00  0.00     0.002 A 
ATOM     35  C   UNL d   1      57.036  -6.353  28.517  0.00  0.00     0.019 A 
ENDBRANCH  29  31
ENDBRANCH  27  28
ENDBRANCH  26  27
ENDBRANCH  25  26
ENDBRANCH   1  25
TORSDOF 10
ENDMDL
