MODEL 1
REMARK VINA RESULT:      55.5      0.000      0.000
REMARK  5 active torsions:
REMARK  status: ('A' for Active; 'I' for Inactive)
REMARK    1  A    between atoms: C_5  and  N_1 
REMARK    2  A    between atoms: C_2  and  C_7 
REMARK    3  A    between atoms: C_9  and  C_2 
REMARK    4  A    between atoms: C_3  and  C_4 
REMARK    5  A    between atoms: C_7  and  C_8 
ROOT
ATOM      1  C   UNL d   1     -58.166 -99.060 -44.618  0.00  0.00     0.100 C 
ATOM      2  C   UNL d   1     -58.402 -99.124 -43.828  0.00  0.00     0.103 C 
ATOM      3  N   UNL d   1     -58.639 -99.188 -43.037  0.00  0.00    -0.191 NA
ENDROOT
BRANCH   1   4
ATOM      4  C   UNL d   1     -57.416 -98.779 -44.804  0.00  0.00     0.037 C 
BRANCH   4   5
ATOM      5  C   UNL d   1     -56.753 -99.250 -44.665  0.00  0.00     0.101 A 
ATOM      6  O   UNL d   1     -56.691 -99.854 -44.108  0.00  0.00    -0.307 OA
ATOM      7  C   UNL d   1     -55.934-100.168 -44.167  0.00  0.00     0.102 A 
ATOM      8  C   UNL d   1     -55.526 -99.762 -44.760  0.00  0.00     0.027 A 
ATOM      9  C   UNL d   1     -56.021 -99.199 -45.069  0.00  0.00     0.027 A 
BRANCH   7  10
ATOM     10  C   UNL d   1     -55.634-100.785 -43.712  0.00  0.00     0.045 A 
ATOM     11  C   UNL d   1     -55.241-101.416 -44.073  0.00  0.00     0.129 A 
ATOM     12  C   UNL d   1     -54.940-102.033 -43.621  0.00  0.00     0.024 A 
ATOM     13  C   UNL d   1     -55.031-102.023 -42.798  0.00  0.00     0.002 A 
ATOM     14  C   UNL d   1     -55.422-101.398 -42.430  0.00  0.00     0.000 A 
ATOM     15  C   UNL d   1     -54.732-102.639 -42.343  0.00  0.00     0.000 C 
ATOM     16  C   UNL d   1     -55.726-100.775 -42.889  0.00  0.00     0.004 A 
BRANCH  11  17
ATOM     17  N   UNL d   1     -55.150-101.424 -44.893  0.00  0.00    -0.114 N 
ATOM     18  O   UNL d   1     -54.738-100.821 -45.274  0.00  0.00    -0.532 OA
ATOM     19  O   UNL d   1     -55.471-102.039 -45.344  0.00  0.00    -0.532 OA
ENDBRANCH  11  17
ENDBRANCH   7  10
ENDBRANCH   4   5
ENDBRANCH   1   4
BRANCH   1  20
ATOM     20  C   UNL d   1     -58.685 -99.280 -45.220  0.00  0.00     0.167 C 
ATOM     21  S   UNL d   1     -59.502 -99.257 -45.089  0.00  0.00    -0.055 SA
ATOM     22  N   UNL d   1     -58.394 -99.520 -45.948  0.00  0.00    -0.136 N 
ENDBRANCH   1  20
TORSDOF 5
ENDMDL
