MODEL 1
REMARK VINA RESULT:      -4.5      0.000      0.000
REMARK  3 active torsions:
REMARK  status: ('A' for Active; 'I' for Inactive)
REMARK    1  A    between atoms: N_5  and  C_1 
REMARK       I    between atoms: C_6  and  N_5 
REMARK    2  A    between atoms: C_8  and  C_6 
REMARK    3  A    between atoms: O_16  and  C_12 
ROOT
ATOM      1  C   UNL d   1      58.255  -0.505  30.272  0.00  0.00     0.124 A 
ATOM      2  C   UNL d   1      58.594  -1.012  29.735  0.00  0.00     0.093 A 
ATOM      3  S   UNL d   1      58.514   0.261  30.136  0.00  0.00    -0.067 SA
ATOM      4  C   UNL d   1      59.083  -0.583  29.237  0.00  0.00     0.018 A 
ATOM      5  C   UNL d   1      59.032   0.237  29.495  0.00  0.00     0.032 A 
ATOM      6  C   UNL d   1      58.471  -1.874  29.682  0.00  0.00     0.103 C 
ATOM      7  N   UNL d   1      58.346  -2.695  29.641  0.00  0.00    -0.191 NA
ATOM      8  C   UNL d   1      59.601  -0.591  28.599  0.00  0.00     0.001 A 
ATOM      9  C   UNL d   1      59.520   0.682  29.000  0.00  0.00     0.006 A 
ATOM     10  C   UNL d   1      59.865   0.169  28.455  0.00  0.00     0.001 A 
ENDROOT
BRANCH   1  11
ATOM     11  N   UNL d   1      57.705  -0.736  30.893  0.00  0.00    -0.201 NA
ATOM     12  C   UNL d   1      57.454  -0.172  31.426  0.00  0.00     0.281 C 
ATOM     13  O   UNL d   1      57.706   0.633  31.402  0.00  0.00    -0.265 OA
BRANCH  12  14
ATOM     14  C   UNL d   1      56.920  -0.395  32.029  0.00  0.00     0.080 A 
ATOM     15  C   UNL d   1      56.990  -0.056  32.820  0.00  0.00     0.099 A 
ATOM     16  C   UNL d   1      56.466  -0.275  33.411  0.00  0.00     0.024 A 
ATOM     17  C   UNL d   1      55.866  -0.836  33.218  0.00  0.00     0.002 A 
ATOM     18  C   UNL d   1      55.774  -1.158  32.528  0.00  0.00     0.000 A 
ATOM     19  C   UNL d   1      56.309  -0.948  31.886  0.00  0.00     0.007 A 
BRANCH  15  20
ATOM     20  O   UNL d   1      57.586   0.501  33.009  0.00  0.00    -0.328 OA
ATOM     21  C   UNL d   1      57.776   0.682  33.796  0.00  0.00     0.181 C 
ENDBRANCH  15  20
ENDBRANCH  12  14
ENDBRANCH   1  11
TORSDOF 3
ENDMDL
MODEL 2
REMARK VINA RESULT:      -3.3      1.521      2.019
REMARK  3 active torsions:
REMARK  status: ('A' for Active; 'I' for Inactive)
REMARK    1  A    between atoms: N_5  and  C_1 
REMARK       I    between atoms: C_6  and  N_5 
REMARK    2  A    between atoms: C_8  and  C_6 
REMARK    3  A    between atoms: O_16  and  C_12 
ROOT
ATOM      1  C   UNL d   1      57.907   0.515  31.134  0.00  0.00     0.124 A 
ATOM      2  C   UNL d   1      58.716   0.568  31.170  0.00  0.00     0.093 A 
ATOM      3  S   UNL d   1      57.663   0.471  30.353  0.00  0.00    -0.067 SA
ATOM      4  C   UNL d   1      59.017   0.560  30.407  0.00  0.00     0.018 A 
ATOM      5  C   UNL d   1      58.338   0.497  29.881  0.00  0.00     0.032 A 
ATOM      6  C   UNL d   1      59.204   0.626  31.891  0.00  0.00     0.103 C 
ATOM      7  N   UNL d   1      59.659   0.681  32.586  0.00  0.00    -0.191 NA
ATOM      8  C   UNL d   1      59.681   0.584  29.925  0.00  0.00     0.001 A 
ATOM      9  C   UNL d   1      58.627   0.487  29.108  0.00  0.00     0.006 A 
ATOM     10  C   UNL d   1      59.449   0.541  29.143  0.00  0.00     0.001 A 
ENDROOT
BRANCH   1  11
ATOM     11  N   UNL d   1      57.380   0.506  31.815  0.00  0.00    -0.201 NA
ATOM     12  C   UNL d   1      56.775  -0.040  31.838  0.00  0.00     0.281 C 
ATOM     13  O   UNL d   1      56.637  -0.604  31.226  0.00  0.00    -0.265 OA
BRANCH  12  14
ATOM     14  C   UNL d   1      56.263  -0.049  32.499  0.00  0.00     0.080 A 
ATOM     15  C   UNL d   1      56.035  -0.798  32.863  0.00  0.00     0.099 A 
ATOM     16  C   UNL d   1      55.533  -0.806  33.512  0.00  0.00     0.024 A 
ATOM     17  C   UNL d   1      55.254  -0.066  33.803  0.00  0.00     0.002 A 
ATOM     18  C   UNL d   1      55.435   0.618  33.506  0.00  0.00     0.000 A 
ATOM     19  C   UNL d   1      55.960   0.659  32.824  0.00  0.00     0.007 A 
BRANCH  15  20
ATOM     20  O   UNL d   1      56.315  -1.532  32.572  0.00  0.00    -0.328 OA
ATOM     21  C   UNL d   1      56.053  -2.252  32.890  0.00  0.00     0.181 C 
ENDBRANCH  15  20
ENDBRANCH  12  14
ENDBRANCH   1  11
TORSDOF 3
ENDMDL
MODEL 3
REMARK VINA RESULT:      -2.7      8.850      9.665
REMARK  3 active torsions:
REMARK  status: ('A' for Active; 'I' for Inactive)
REMARK    1  A    between atoms: N_5  and  C_1 
REMARK       I    between atoms: C_6  and  N_5 
REMARK    2  A    between atoms: C_8  and  C_6 
REMARK    3  A    between atoms: O_16  and  C_12 
ROOT
ATOM      1  C   UNL d   1      59.489  -9.695  32.807  0.00  0.00     0.124 A 
ATOM      2  C   UNL d   1      58.744  -9.751  32.488  0.00  0.00     0.093 A 
ATOM      3  S   UNL d   1      60.050  -9.677  32.210  0.00  0.00    -0.067 SA
ATOM      4  C   UNL d   1      58.807  -9.770  31.671  0.00  0.00     0.018 A 
ATOM      5  C   UNL d   1      59.647  -9.723  31.492  0.00  0.00     0.032 A 
ATOM      6  C   UNL d   1      57.990  -9.785  32.925  0.00  0.00     0.103 C 
ATOM      7  N   UNL d   1      57.277  -9.818  33.353  0.00  0.00    -0.191 NA
ATOM      8  C   UNL d   1      58.420  -9.816  30.948  0.00  0.00     0.001 A 
ATOM      9  C   UNL d   1      59.725  -9.742  30.670  0.00  0.00     0.006 A 
ATOM     10  C   UNL d   1      58.970  -9.798  30.345  0.00  0.00     0.001 A 
ENDROOT
BRANCH   1  11
ATOM     11  N   UNL d   1      59.666  -9.659  33.649  0.00  0.00    -0.201 NA
ATOM     12  C   UNL d   1      60.318  -9.236  33.897  0.00  0.00     0.281 C 
ATOM     13  O   UNL d   1      60.833  -8.828  33.368  0.00  0.00    -0.265 OA
BRANCH  12  14
ATOM     14  C   UNL d   1      60.490  -9.202  34.714  0.00  0.00     0.080 A 
ATOM     15  C   UNL d   1      60.239  -8.521  35.184  0.00  0.00     0.099 A 
ATOM     16  C   UNL d   1      60.408  -8.488  35.985  0.00  0.00     0.024 A 
ATOM     17  C   UNL d   1      60.829  -9.134  36.327  0.00  0.00     0.002 A 
ATOM     18  C   UNL d   1      61.067  -9.753  35.942  0.00  0.00     0.000 A 
ATOM     19  C   UNL d   1      60.905  -9.818  35.098  0.00  0.00     0.007 A 
BRANCH  15  20
ATOM     20  O   UNL d   1      59.821  -7.881  34.842  0.00  0.00    -0.328 OA
ATOM     21  C   UNL d   1      59.490  -7.281  35.309  0.00  0.00     0.181 C 
ENDBRANCH  15  20
ENDBRANCH  12  14
ENDBRANCH   1  11
TORSDOF 3
ENDMDL
MODEL 4
REMARK VINA RESULT:      -2.1      2.196      3.566
REMARK  3 active torsions:
REMARK  status: ('A' for Active; 'I' for Inactive)
REMARK    1  A    between atoms: N_5  and  C_1 
REMARK       I    between atoms: C_6  and  N_5 
REMARK    2  A    between atoms: C_8  and  C_6 
REMARK    3  A    between atoms: O_16  and  C_12 
ROOT
ATOM      1  C   UNL d   1      59.407  -2.672  28.847  0.00  0.00     0.124 A 
ATOM      2  C   UNL d   1      59.144  -3.432  28.730  0.00  0.00     0.093 A 
ATOM      3  S   UNL d   1      60.219  -2.670  28.959  0.00  0.00    -0.067 SA
ATOM      4  C   UNL d   1      59.785  -3.942  28.764  0.00  0.00     0.018 A 
ATOM      5  C   UNL d   1      60.477  -3.452  28.911  0.00  0.00     0.032 A 
ATOM      6  C   UNL d   1      58.321  -3.683  28.590  0.00  0.00     0.103 C 
ATOM      7  N   UNL d   1      57.531  -3.911  28.458  0.00  0.00    -0.191 NA
ATOM      8  C   UNL d   1      60.056  -4.716  28.719  0.00  0.00     0.001 A 
ATOM      9  C   UNL d   1      61.131  -3.955  28.947  0.00  0.00     0.006 A 
ATOM     10  C   UNL d   1      60.865  -4.726  28.829  0.00  0.00     0.001 A 
ENDROOT
BRANCH   1  11
ATOM     11  N   UNL d   1      58.909  -1.970  28.853  0.00  0.00    -0.201 NA
ATOM     12  C   UNL d   1      59.114  -1.345  29.335  0.00  0.00     0.281 C 
ATOM     13  O   UNL d   1      59.795  -1.349  29.833  0.00  0.00    -0.265 OA
BRANCH  12  14
ATOM     14  C   UNL d   1      58.630  -0.663  29.341  0.00  0.00     0.080 A 
ATOM     15  C   UNL d   1      58.085  -0.523  29.995  0.00  0.00     0.099 A 
ATOM     16  C   UNL d   1      57.610   0.146  30.001  0.00  0.00     0.024 A 
ATOM     17  C   UNL d   1      57.676   0.681  29.353  0.00  0.00     0.002 A 
ATOM     18  C   UNL d   1      58.148   0.589  28.756  0.00  0.00     0.000 A 
ATOM     19  C   UNL d   1      58.660  -0.103  28.721  0.00  0.00     0.007 A 
BRANCH  15  20
ATOM     20  O   UNL d   1      58.021  -1.057  30.638  0.00  0.00    -0.328 OA
ATOM     21  C   UNL d   1      57.443  -0.962  31.224  0.00  0.00     0.181 C 
ENDBRANCH  15  20
ENDBRANCH  12  14
ENDBRANCH   1  11
TORSDOF 3
ENDMDL
MODEL 5
REMARK VINA RESULT:      -2.0      1.428      4.057
REMARK  3 active torsions:
REMARK  status: ('A' for Active; 'I' for Inactive)
REMARK    1  A    between atoms: N_5  and  C_1 
REMARK       I    between atoms: C_6  and  N_5 
REMARK    2  A    between atoms: C_8  and  C_6 
REMARK    3  A    between atoms: O_16  and  C_12 
ROOT
ATOM      1  C   UNL d   1      56.580   0.035  32.042  0.00  0.00     0.124 A 
ATOM      2  C   UNL d   1      56.322  -0.651  32.391  0.00  0.00     0.093 A 
ATOM      3  S   UNL d   1      56.372   0.680  32.503  0.00  0.00    -0.067 SA
ATOM      4  C   UNL d   1      55.938  -0.465  33.091  0.00  0.00     0.018 A 
ATOM      5  C   UNL d   1      55.970   0.392  33.164  0.00  0.00     0.032 A 
ATOM      6  C   UNL d   1      56.427  -1.462  32.086  0.00  0.00     0.103 C 
ATOM      7  N   UNL d   1      56.532  -2.231  31.786  0.00  0.00    -0.191 NA
ATOM      8  C   UNL d   1      55.537  -0.738  33.753  0.00  0.00     0.001 A 
ATOM      9  C   UNL d   1      55.586   0.594  33.866  0.00  0.00     0.006 A 
ATOM     10  C   UNL d   1      55.324  -0.102  34.221  0.00  0.00     0.001 A 
ENDROOT
BRANCH   1  11
ATOM     11  N   UNL d   1      57.010   0.082  31.297  0.00  0.00    -0.201 NA
ATOM     12  C   UNL d   1      57.764   0.394  31.296  0.00  0.00     0.281 C 
ATOM     13  O   UNL d   1      58.149   0.674  31.992  0.00  0.00    -0.265 OA
BRANCH  12  14
ATOM     14  C   UNL d   1      58.181   0.439  30.573  0.00  0.00     0.080 A 
ATOM     15  C   UNL d   1      59.040   0.525  30.571  0.00  0.00     0.099 A 
ATOM     16  C   UNL d   1      59.449   0.570  29.861  0.00  0.00     0.024 A 
ATOM     17  C   UNL d   1      59.003   0.529  29.146  0.00  0.00     0.002 A 
ATOM     18  C   UNL d   1      58.241   0.453  29.110  0.00  0.00     0.000 A 
ATOM     19  C   UNL d   1      57.783   0.404  29.838  0.00  0.00     0.007 A 
BRANCH  15  20
ATOM     20  O   UNL d   1      59.480   0.565  31.282  0.00  0.00    -0.328 OA
ATOM     21  C   UNL d   1      60.301   0.682  31.278  0.00  0.00     0.181 C 
ENDBRANCH  15  20
ENDBRANCH  12  14
ENDBRANCH   1  11
TORSDOF 3
ENDMDL
MODEL 6
REMARK VINA RESULT:      -1.5      1.393      1.976
REMARK  3 active torsions:
REMARK  status: ('A' for Active; 'I' for Inactive)
REMARK    1  A    between atoms: N_5  and  C_1 
REMARK       I    between atoms: C_6  and  N_5 
REMARK    2  A    between atoms: C_8  and  C_6 
REMARK    3  A    between atoms: O_16  and  C_12 
ROOT
ATOM      1  C   UNL d   1      58.116  -1.029  30.506  0.00  0.00     0.124 A 
ATOM      2  C   UNL d   1      58.793  -0.757  30.149  0.00  0.00     0.093 A 
ATOM      3  S   UNL d   1      57.888  -1.741  30.169  0.00  0.00    -0.067 SA
ATOM      4  C   UNL d   1      59.020  -1.291  29.570  0.00  0.00     0.018 A 
ATOM      5  C   UNL d   1      58.437  -1.924  29.583  0.00  0.00     0.032 A 
ATOM      6  C   UNL d   1      59.223  -0.022  30.338  0.00  0.00     0.103 C 
ATOM      7  N   UNL d   1      59.624   0.682  30.526  0.00  0.00    -0.191 NA
ATOM      8  C   UNL d   1      59.560  -1.486  28.983  0.00  0.00     0.001 A 
ATOM      9  C   UNL d   1      58.654  -2.470  29.002  0.00  0.00     0.006 A 
ATOM     10  C   UNL d   1      59.341  -2.195  28.640  0.00  0.00     0.001 A 
ENDROOT
BRANCH   1  11
ATOM     11  N   UNL d   1      57.697  -0.630  31.144  0.00  0.00    -0.201 NA
ATOM     12  C   UNL d   1      56.960  -0.903  31.362  0.00  0.00     0.281 C 
ATOM     13  O   UNL d   1      56.581  -1.560  30.992  0.00  0.00    -0.265 OA
BRANCH  12  14
ATOM     14  C   UNL d   1      56.553  -0.516  31.981  0.00  0.00     0.080 A 
ATOM     15  C   UNL d   1      56.242  -0.969  32.647  0.00  0.00     0.099 A 
ATOM     16  C   UNL d   1      55.843  -0.589  33.255  0.00  0.00     0.024 A 
ATOM     17  C   UNL d   1      55.750   0.248  33.203  0.00  0.00     0.002 A 
ATOM     18  C   UNL d   1      56.013   0.682  32.627  0.00  0.00     0.000 A 
ATOM     19  C   UNL d   1      56.436   0.312  31.974  0.00  0.00     0.007 A 
BRANCH  15  20
ATOM     20  O   UNL d   1      56.335  -1.800  32.696  0.00  0.00    -0.328 OA
ATOM     21  C   UNL d   1      55.793  -2.272  33.109  0.00  0.00     0.181 C 
ENDBRANCH  15  20
ENDBRANCH  12  14
ENDBRANCH   1  11
TORSDOF 3
ENDMDL
