MODEL 1
REMARK VINA RESULT:      -9.8      0.000      0.000
REMARK  2 active torsions:
REMARK  status: ('A' for Active; 'I' for Inactive)
REMARK    1  A    between atoms: C_3  and  C_4 
REMARK       I    between atoms: N_7  and  C_3 
REMARK    2  A    between atoms: C_11  and  N_7 
ROOT
ATOM      1  C   UNL d   1      53.310  32.410  53.547  0.00  0.00     0.300 A 
ATOM      2  O   UNL d   1      52.558  32.605  53.250  0.00  0.00    -0.268 OA
ATOM      3  C   UNL d   1      52.186  33.309  53.498  0.00  0.00     0.161 A 
ATOM      4  C   UNL d   1      53.691  32.910  54.086  0.00  0.00     0.064 A 
ATOM      5  C   UNL d   1      53.313  33.612  54.329  0.00  0.00     0.007 A 
ATOM      6  C   UNL d   1      52.566  33.813  54.038  0.00  0.00     0.030 A 
ATOM      7  O   UNL d   1      53.677  31.716  53.303  0.00  0.00    -0.259 OA
ATOM      8  C   UNL d   1      53.695  34.112  54.869  0.00  0.00     0.000 A 
ATOM      9  C   UNL d   1      54.432  32.716  54.378  0.00  0.00     0.005 A 
ATOM     10  C   UNL d   1      54.441  33.908  55.156  0.00  0.00     0.000 A 
ATOM     11  C   UNL d   1      54.807  33.214  54.912  0.00  0.00     0.000 A 
ENDROOT
BRANCH   3  12
ATOM     12  C   UNL d   1      51.443  33.499  53.203  0.00  0.00     0.302 C 
ATOM     13  N   UNL d   1      51.341  34.164  52.732  0.00  0.00    -0.206 NA
ATOM     14  O   UNL d   1      50.801  33.019  53.383  0.00  0.00    -0.263 OA
BRANCH  13  15
ATOM     15  C   UNL d   1      50.595  34.346  52.441  0.00  0.00     0.085 A 
ATOM     16  C   UNL d   1      50.040  34.714  52.916  0.00  0.00     0.019 A 
ATOM     17  C   UNL d   1      49.300  34.896  52.631  0.00  0.00     0.002 A 
ATOM     18  C   UNL d   1      49.099  34.708  51.847  0.00  0.00     0.000 A 
ATOM     19  C   UNL d   1      49.654  34.338  51.366  0.00  0.00     0.002 A 
ATOM     20  C   UNL d   1      48.356  34.890  51.558  0.00  0.00     0.000 C 
ATOM     21  C   UNL d   1      50.410  34.152  51.658  0.00  0.00     0.019 A 
ENDBRANCH  13  15
ENDBRANCH   3  12
TORSDOF 2
ENDMDL
MODEL 2
REMARK VINA RESULT:      -8.9      2.304      3.577
REMARK  2 active torsions:
REMARK  status: ('A' for Active; 'I' for Inactive)
REMARK    1  A    between atoms: C_3  and  C_4 
REMARK       I    between atoms: N_7  and  C_3 
REMARK    2  A    between atoms: C_11  and  N_7 
ROOT
ATOM      1  C   UNL d   1      53.021  30.633  52.741  0.00  0.00     0.300 A 
ATOM      2  O   UNL d   1      53.116  31.451  52.858  0.00  0.00    -0.268 OA
ATOM      3  C   UNL d   1      53.322  31.739  53.613  0.00  0.00     0.161 A 
ATOM      4  C   UNL d   1      53.129  30.104  53.368  0.00  0.00     0.064 A 
ATOM      5  C   UNL d   1      53.334  30.399  54.121  0.00  0.00     0.007 A 
ATOM      6  C   UNL d   1      53.431  31.210  54.245  0.00  0.00     0.030 A 
ATOM      7  O   UNL d   1      52.818  30.349  51.997  0.00  0.00    -0.259 OA
ATOM      8  C   UNL d   1      53.442  29.869  54.748  0.00  0.00     0.000 A 
ATOM      9  C   UNL d   1      53.034  29.298  53.251  0.00  0.00     0.005 A 
ATOM     10  C   UNL d   1      53.345  29.060  54.619  0.00  0.00     0.000 A 
ATOM     11  C   UNL d   1      53.142  28.776  53.875  0.00  0.00     0.000 A 
ENDROOT
BRANCH   3  12
ATOM     12  C   UNL d   1      53.415  32.547  53.726  0.00  0.00     0.302 C 
ATOM     13  N   UNL d   1      52.801  32.998  54.032  0.00  0.00    -0.206 NA
ATOM     14  O   UNL d   1      54.130  32.903  53.530  0.00  0.00    -0.263 OA
BRANCH  13  15
ATOM     15  C   UNL d   1      52.903  33.805  54.141  0.00  0.00     0.085 A 
ATOM     16  C   UNL d   1      53.269  34.093  54.814  0.00  0.00     0.019 A 
ATOM     17  C   UNL d   1      53.371  34.892  54.925  0.00  0.00     0.002 A 
ATOM     18  C   UNL d   1      53.103  35.430  54.350  0.00  0.00     0.000 A 
ATOM     19  C   UNL d   1      52.734  35.144  53.672  0.00  0.00     0.002 A 
ATOM     20  C   UNL d   1      53.205  36.233  54.460  0.00  0.00     0.000 C 
ATOM     21  C   UNL d   1      52.630  34.327  53.560  0.00  0.00     0.019 A 
ENDBRANCH  13  15
ENDBRANCH   3  12
TORSDOF 2
ENDMDL
MODEL 3
REMARK VINA RESULT:      -8.6      1.243      4.898
REMARK  2 active torsions:
REMARK  status: ('A' for Active; 'I' for Inactive)
REMARK    1  A    between atoms: C_3  and  C_4 
REMARK       I    between atoms: N_7  and  C_3 
REMARK    2  A    between atoms: C_11  and  N_7 
ROOT
ATOM      1  C   UNL d   1      49.220  35.223  52.931  0.00  0.00     0.300 A 
ATOM      2  O   UNL d   1      49.977  34.917  53.094  0.00  0.00    -0.268 OA
ATOM      3  C   UNL d   1      50.369  34.457  52.519  0.00  0.00     0.161 A 
ATOM      4  C   UNL d   1      48.855  35.074  52.203  0.00  0.00     0.064 A 
ATOM      5  C   UNL d   1      49.253  34.613  51.633  0.00  0.00     0.007 A 
ATOM      6  C   UNL d   1      50.005  34.306  51.788  0.00  0.00     0.030 A 
ATOM      7  O   UNL d   1      48.834  35.676  53.497  0.00  0.00    -0.259 OA
ATOM      8  C   UNL d   1      48.887  34.465  50.905  0.00  0.00     0.000 A 
ATOM      9  C   UNL d   1      48.110  35.377  52.044  0.00  0.00     0.005 A 
ATOM     10  C   UNL d   1      48.137  34.774  50.755  0.00  0.00     0.000 A 
ATOM     11  C   UNL d   1      47.751  35.227  51.322  0.00  0.00     0.000 A 
ENDROOT
BRANCH   3  12
ATOM     12  C   UNL d   1      51.115  34.156  52.683  0.00  0.00     0.302 C 
ATOM     13  N   UNL d   1      51.205  33.529  53.206  0.00  0.00    -0.206 NA
ATOM     14  O   UNL d   1      51.773  34.487  52.318  0.00  0.00    -0.263 OA
BRANCH  13  15
ATOM     15  C   UNL d   1      51.955  33.235  53.363  0.00  0.00     0.085 A 
ATOM     16  C   UNL d   1      52.430  33.582  53.932  0.00  0.00     0.019 A 
ATOM     17  C   UNL d   1      53.173  33.293  54.090  0.00  0.00     0.002 A 
ATOM     18  C   UNL d   1      53.460  32.635  53.672  0.00  0.00     0.000 A 
ATOM     19  C   UNL d   1      52.986  32.282  53.099  0.00  0.00     0.002 A 
ATOM     20  C   UNL d   1      54.208  32.342  53.830  0.00  0.00     0.000 C 
ATOM     21  C   UNL d   1      52.227  32.579  52.938  0.00  0.00     0.019 A 
ENDBRANCH  13  15
ENDBRANCH   3  12
TORSDOF 2
ENDMDL
MODEL 4
REMARK VINA RESULT:      -8.0      2.148      4.411
REMARK  2 active torsions:
REMARK  status: ('A' for Active; 'I' for Inactive)
REMARK    1  A    between atoms: C_3  and  C_4 
REMARK       I    between atoms: N_7  and  C_3 
REMARK    2  A    between atoms: C_11  and  N_7 
ROOT
ATOM      1  C   UNL d   1      52.473  33.570  52.908  0.00  0.00     0.300 A 
ATOM      2  O   UNL d   1      52.692  32.776  53.029  0.00  0.00    -0.268 OA
ATOM      3  C   UNL d   1      53.158  32.571  53.689  0.00  0.00     0.161 A 
ATOM      4  C   UNL d   1      52.716  34.157  53.439  0.00  0.00     0.064 A 
ATOM      5  C   UNL d   1      53.182  33.945  54.097  0.00  0.00     0.007 A 
ATOM      6  C   UNL d   1      53.403  33.158  54.223  0.00  0.00     0.030 A 
ATOM      7  O   UNL d   1      52.014  33.771  52.257  0.00  0.00    -0.259 OA
ATOM      8  C   UNL d   1      53.425  34.533  54.628  0.00  0.00     0.000 A 
ATOM      9  C   UNL d   1      52.500  34.938  53.318  0.00  0.00     0.005 A 
ATOM     10  C   UNL d   1      53.202  35.316  54.498  0.00  0.00     0.000 A 
ATOM     11  C   UNL d   1      52.743  35.518  53.847  0.00  0.00     0.000 A 
ENDROOT
BRANCH   3  12
ATOM     12  C   UNL d   1      53.372  31.787  53.805  0.00  0.00     0.302 C 
ATOM     13  N   UNL d   1      52.803  31.225  53.991  0.00  0.00    -0.206 NA
ATOM     14  O   UNL d   1      54.161  31.568  53.735  0.00  0.00    -0.263 OA
BRANCH  13  15
ATOM     15  C   UNL d   1      53.026  30.443  54.106  0.00  0.00     0.085 A 
ATOM     16  C   UNL d   1      53.156  29.947  53.468  0.00  0.00     0.019 A 
ATOM     17  C   UNL d   1      53.377  29.172  53.579  0.00  0.00     0.002 A 
ATOM     18  C   UNL d   1      53.473  28.873  54.348  0.00  0.00     0.000 A 
ATOM     19  C   UNL d   1      53.343  29.368  54.992  0.00  0.00     0.002 A 
ATOM     20  C   UNL d   1      53.695  28.094  54.461  0.00  0.00     0.000 C 
ATOM     21  C   UNL d   1      53.118  30.160  54.878  0.00  0.00     0.019 A 
ENDBRANCH  13  15
ENDBRANCH   3  12
TORSDOF 2
ENDMDL
MODEL 5
REMARK VINA RESULT:      -7.9      1.160      4.627
REMARK  2 active torsions:
REMARK  status: ('A' for Active; 'I' for Inactive)
REMARK    1  A    between atoms: C_3  and  C_4 
REMARK       I    between atoms: N_7  and  C_3 
REMARK    2  A    between atoms: C_11  and  N_7 
ROOT
ATOM      1  C   UNL d   1      50.823  34.213  51.625  0.00  0.00     0.300 A 
ATOM      2  O   UNL d   1      51.544  34.164  52.037  0.00  0.00    -0.268 OA
ATOM      3  C   UNL d   1      51.579  34.391  52.838  0.00  0.00     0.161 A 
ATOM      4  C   UNL d   1      50.140  34.485  52.006  0.00  0.00     0.064 A 
ATOM      5  C   UNL d   1      50.182  34.711  52.808  0.00  0.00     0.007 A 
ATOM      6  C   UNL d   1      50.895  34.665  53.223  0.00  0.00     0.030 A 
ATOM      7  O   UNL d   1      50.789  33.989  50.835  0.00  0.00    -0.259 OA
ATOM      8  C   UNL d   1      49.498  34.983  53.188  0.00  0.00     0.000 A 
ATOM      9  C   UNL d   1      49.430  34.532  51.598  0.00  0.00     0.005 A 
ATOM     10  C   UNL d   1      48.789  35.027  52.769  0.00  0.00     0.000 A 
ATOM     11  C   UNL d   1      48.755  34.803  51.979  0.00  0.00     0.000 A 
ENDROOT
BRANCH   3  12
ATOM     12  C   UNL d   1      52.292  34.342  53.242  0.00  0.00     0.302 C 
ATOM     13  N   UNL d   1      52.468  33.681  53.696  0.00  0.00    -0.206 NA
ATOM     14  O   UNL d   1      52.830  34.961  53.189  0.00  0.00    -0.263 OA
BRANCH  13  15
ATOM     15  C   UNL d   1      53.184  33.641  54.096  0.00  0.00     0.085 A 
ATOM     16  C   UNL d   1      53.800  33.187  53.807  0.00  0.00     0.019 A 
ATOM     17  C   UNL d   1      54.510  33.145  54.201  0.00  0.00     0.002 A 
ATOM     18  C   UNL d   1      54.618  33.566  54.909  0.00  0.00     0.000 A 
ATOM     19  C   UNL d   1      54.001  34.024  55.204  0.00  0.00     0.002 A 
ATOM     20  C   UNL d   1      55.331  33.525  55.307  0.00  0.00     0.000 C 
ATOM     21  C   UNL d   1      53.275  34.066  54.800  0.00  0.00     0.019 A 
ENDBRANCH  13  15
ENDBRANCH   3  12
TORSDOF 2
ENDMDL
