MODEL 1
REMARK VINA RESULT:      -3.3      0.000      0.000
REMARK  2 active torsions:
REMARK  status: ('A' for Active; 'I' for Inactive)
REMARK    1  A    between atoms: C_7  and  C_1 
REMARK    2  A    between atoms: C_9  and  C_1 
ROOT
ATOM      1  C   UNL d   1      31.627  16.781 -23.940  0.00  0.00     0.240 A 
ATOM      2  S   UNL d   1      31.176  16.126 -23.744  0.00  0.00    -0.043 SA
ATOM      3  N   UNL d   1      31.263  17.437 -24.283  0.00  0.00    -0.199 NA
ATOM      4  C   UNL d   1      30.366  16.120 -23.886  0.00  0.00     0.181 A 
ATOM      5  N   UNL d   1      30.002  16.776 -24.228  0.00  0.00    -0.237 N 
ATOM      6  C   UNL d   1      30.448  17.438 -24.429  0.00  0.00     0.352 A 
ATOM      7  N   UNL d   1      29.919  15.458 -23.685  0.00  0.00    -0.221 NA
ATOM      8  O   UNL d   1      30.090  18.098 -24.772  0.00  0.00    -0.244 OA
ATOM      9  C   UNL d   1      29.190  16.770 -24.371  0.00  0.00     0.088 A 
ATOM     10  C   UNL d   1      29.116  15.455 -23.828  0.00  0.00     0.103 A 
ATOM     11  C   UNL d   1      28.751  16.111 -24.170  0.00  0.00     0.040 A 
ENDROOT
BRANCH   1  12
ATOM     12  C   UNL d   1      31.992  16.125 -23.598  0.00  0.00     0.429 C 
ATOM     13  F   UNL d   1      32.325  15.524 -23.298  0.00  0.00    -0.167 F 
ATOM     14  F   UNL d   1      32.349  15.453 -23.992  0.00  0.00    -0.167 F 
ATOM     15  F   UNL d   1      32.110  15.940 -22.775  0.00  0.00    -0.167 F 
ENDBRANCH   1  12
BRANCH   1  16
ATOM     16  C   UNL d   1      32.069  17.450 -24.144  0.00  0.00     0.016 A 
ATOM     17  C   UNL d   1      32.185  18.052 -23.584  0.00  0.00    -0.001 A 
ATOM     18  C   UNL d   1      32.625  18.721 -23.784  0.00  0.00    -0.000 A 
ATOM     19  C   UNL d   1      32.952  18.788 -24.547  0.00  0.00    -0.000 A 
ATOM     20  C   UNL d   1      32.830  18.180 -25.097  0.00  0.00    -0.000 A 
ATOM     21  C   UNL d   1      32.391  17.512 -24.902  0.00  0.00    -0.001 A 
ENDBRANCH   1  16
TORSDOF 2
ENDMDL
MODEL 2
REMARK VINA RESULT:      -2.7      0.714      2.857
REMARK  2 active torsions:
REMARK  status: ('A' for Active; 'I' for Inactive)
REMARK    1  A    between atoms: C_7  and  C_1 
REMARK    2  A    between atoms: C_9  and  C_1 
ROOT
ATOM      1  C   UNL d   1      31.213  16.447 -24.013  0.00  0.00     0.240 A 
ATOM      2  S   UNL d   1      31.969  16.751 -23.930  0.00  0.00    -0.043 SA
ATOM      3  N   UNL d   1      30.637  16.892 -24.403  0.00  0.00    -0.199 NA
ATOM      4  C   UNL d   1      32.156  17.493 -24.232  0.00  0.00     0.181 A 
ATOM      5  N   UNL d   1      31.580  17.937 -24.621  0.00  0.00    -0.237 N 
ATOM      6  C   UNL d   1      30.818  17.640 -24.708  0.00  0.00     0.352 A 
ATOM      7  N   UNL d   1      32.918  17.792 -24.145  0.00  0.00    -0.221 NA
ATOM      8  O   UNL d   1      30.237  18.078 -25.096  0.00  0.00    -0.244 OA
ATOM      9  C   UNL d   1      31.767  18.681 -24.923  0.00  0.00     0.088 A 
ATOM     10  C   UNL d   1      33.099  18.528 -24.445  0.00  0.00     0.103 A 
ATOM     11  C   UNL d   1      32.524  18.973 -24.834  0.00  0.00     0.040 A 
ENDROOT
BRANCH   1  12
ATOM     12  C   UNL d   1      31.789  16.003 -23.624  0.00  0.00     0.429 C 
ATOM     13  F   UNL d   1      32.316  15.594 -23.282  0.00  0.00    -0.167 F 
ATOM     14  F   UNL d   1      32.352  15.453 -23.964  0.00  0.00    -0.167 F 
ATOM     15  F   UNL d   1      31.977  15.970 -22.794  0.00  0.00    -0.167 F 
ENDBRANCH   1  12
BRANCH   1  16
ATOM     16  C   UNL d   1      30.445  16.154 -24.105  0.00  0.00     0.016 A 
ATOM     17  C   UNL d   1      29.885  16.273 -23.502  0.00  0.00    -0.001 A 
ATOM     18  C   UNL d   1      29.119  15.982 -23.590  0.00  0.00    -0.000 A 
ATOM     19  C   UNL d   1      28.909  15.569 -24.283  0.00  0.00    -0.000 A 
ATOM     20  C   UNL d   1      29.476  15.457 -24.876  0.00  0.00    -0.000 A 
ATOM     21  C   UNL d   1      30.242  15.746 -24.793  0.00  0.00    -0.001 A 
ENDBRANCH   1  16
TORSDOF 2
ENDMDL
MODEL 3
REMARK VINA RESULT:      -2.1      5.501      6.710
REMARK  2 active torsions:
REMARK  status: ('A' for Active; 'I' for Inactive)
REMARK    1  A    between atoms: C_7  and  C_1 
REMARK    2  A    between atoms: C_9  and  C_1 
ROOT
ATOM      1  C   UNL d   1      32.675  22.559 -21.297  0.00  0.00     0.240 A 
ATOM      2  S   UNL d   1      32.772  22.168 -22.011  0.00  0.00    -0.043 SA
ATOM      3  N   UNL d   1      32.734  22.137 -20.591  0.00  0.00    -0.199 NA
ATOM      4  C   UNL d   1      32.927  21.360 -22.025  0.00  0.00     0.181 A 
ATOM      5  N   UNL d   1      32.986  20.938 -21.319  0.00  0.00    -0.237 N 
ATOM      6  C   UNL d   1      32.890  21.324 -20.598  0.00  0.00     0.352 A 
ATOM      7  N   UNL d   1      33.023  20.973 -22.746  0.00  0.00    -0.221 NA
ATOM      8  O   UNL d   1      32.948  20.908 -19.887  0.00  0.00    -0.244 OA
ATOM      9  C   UNL d   1      33.141  20.129 -21.333  0.00  0.00     0.088 A 
ATOM     10  C   UNL d   1      33.177  20.172 -22.756  0.00  0.00     0.103 A 
ATOM     11  C   UNL d   1      33.236  19.750 -22.050  0.00  0.00     0.040 A 
ENDROOT
BRANCH   1  12
ATOM     12  C   UNL d   1      32.616  22.981 -22.003  0.00  0.00     0.429 C 
ATOM     13  F   UNL d   1      32.549  23.363 -22.646  0.00  0.00    -0.167 F 
ATOM     14  F   UNL d   1      31.913  23.134 -22.471  0.00  0.00    -0.167 F 
ATOM     15  F   UNL d   1      33.224  23.373 -22.452  0.00  0.00    -0.167 F 
ENDBRANCH   1  12
BRANCH   1  16
ATOM     16  C   UNL d   1      32.579  22.941 -20.569  0.00  0.00     0.016 A 
ATOM     17  C   UNL d   1      31.817  23.033 -20.251  0.00  0.00    -0.001 A 
ATOM     18  C   UNL d   1      31.718  23.413 -19.525  0.00  0.00    -0.000 A 
ATOM     19  C   UNL d   1      32.384  23.702 -19.116  0.00  0.00    -0.000 A 
ATOM     20  C   UNL d   1      33.138  23.604 -19.443  0.00  0.00    -0.000 A 
ATOM     21  C   UNL d   1      33.241  23.226 -20.167  0.00  0.00    -0.001 A 
ENDBRANCH   1  16
TORSDOF 2
ENDMDL
MODEL 4
REMARK VINA RESULT:      -1.6      2.077      3.793
REMARK  2 active torsions:
REMARK  status: ('A' for Active; 'I' for Inactive)
REMARK    1  A    between atoms: C_7  and  C_1 
REMARK    2  A    between atoms: C_9  and  C_1 
ROOT
ATOM      1  C   UNL d   1      29.261  17.231 -24.322  0.00  0.00     0.240 A 
ATOM      2  S   UNL d   1      29.794  17.808 -24.555  0.00  0.00    -0.043 SA
ATOM      3  N   UNL d   1      29.516  16.450 -24.244  0.00  0.00    -0.199 NA
ATOM      4  C   UNL d   1      30.578  17.613 -24.710  0.00  0.00     0.181 A 
ATOM      5  N   UNL d   1      30.832  16.832 -24.633  0.00  0.00    -0.237 N 
ATOM      6  C   UNL d   1      30.303  16.246 -24.399  0.00  0.00     0.352 A 
ATOM      7  N   UNL d   1      31.108  18.198 -24.943  0.00  0.00    -0.221 NA
ATOM      8  O   UNL d   1      30.550  15.463 -24.320  0.00  0.00    -0.244 OA
ATOM      9  C   UNL d   1      31.618  16.636 -24.788  0.00  0.00     0.088 A 
ATOM     10  C   UNL d   1      31.885  18.000 -25.097  0.00  0.00     0.103 A 
ATOM     11  C   UNL d   1      32.139  17.219 -25.019  0.00  0.00     0.040 A 
ENDROOT
BRANCH   1  12
ATOM     12  C   UNL d   1      29.007  18.012 -24.400  0.00  0.00     0.429 C 
ATOM     13  F   UNL d   1      28.777  18.723 -24.457  0.00  0.00    -0.167 F 
ATOM     14  F   UNL d   1      28.929  18.606 -23.786  0.00  0.00    -0.167 F 
ATOM     15  F   UNL d   1      28.756  18.432 -25.097  0.00  0.00    -0.167 F 
ENDBRANCH   1  12
BRANCH   1  16
ATOM     16  C   UNL d   1      28.734  16.637 -24.088  0.00  0.00     0.016 A 
ATOM     17  C   UNL d   1      28.641  16.466 -23.280  0.00  0.00    -0.001 A 
ATOM     18  C   UNL d   1      28.117  15.875 -23.044  0.00  0.00    -0.000 A 
ATOM     19  C   UNL d   1      27.683  15.453 -23.616  0.00  0.00    -0.000 A 
ATOM     20  C   UNL d   1      27.784  15.633 -24.418  0.00  0.00    -0.000 A 
ATOM     21  C   UNL d   1      28.307  16.222 -24.659  0.00  0.00    -0.001 A 
ENDBRANCH   1  16
TORSDOF 2
ENDMDL
MODEL 5
REMARK VINA RESULT:      -1.1      1.906      2.299
REMARK  2 active torsions:
REMARK  status: ('A' for Active; 'I' for Inactive)
REMARK    1  A    between atoms: C_7  and  C_1 
REMARK    2  A    between atoms: C_9  and  C_1 
ROOT
ATOM      1  C   UNL d   1      30.355  17.146 -24.101  0.00  0.00     0.240 A 
ATOM      2  S   UNL d   1      29.537  17.141 -24.047  0.00  0.00    -0.043 SA
ATOM      3  N   UNL d   1      30.794  16.583 -23.688  0.00  0.00    -0.199 NA
ATOM      4  C   UNL d   1      29.154  16.579 -23.585  0.00  0.00     0.181 A 
ATOM      5  N   UNL d   1      29.593  16.016 -23.171  0.00  0.00    -0.237 N 
ATOM      6  C   UNL d   1      30.414  16.014 -23.220  0.00  0.00     0.352 A 
ATOM      7  N   UNL d   1      28.332  16.579 -23.534  0.00  0.00    -0.221 NA
ATOM      8  O   UNL d   1      30.860  15.454 -22.810  0.00  0.00    -0.244 OA
ATOM      9  C   UNL d   1      29.209  15.453 -22.708  0.00  0.00     0.088 A 
ATOM     10  C   UNL d   1      27.956  16.021 -23.075  0.00  0.00     0.103 A 
ATOM     11  C   UNL d   1      28.394  15.457 -22.661  0.00  0.00     0.040 A 
ENDROOT
BRANCH   1  12
ATOM     12  C   UNL d   1      29.917  17.710 -24.515  0.00  0.00     0.429 C 
ATOM     13  F   UNL d   1      29.511  18.212 -24.897  0.00  0.00    -0.167 F 
ATOM     14  F   UNL d   1      29.301  17.578 -25.097  0.00  0.00    -0.167 F 
ATOM     15  F   UNL d   1      29.955  18.560 -24.477  0.00  0.00    -0.167 F 
ENDBRANCH   1  12
BRANCH   1  16
ATOM     16  C   UNL d   1      31.181  17.139 -24.147  0.00  0.00     0.016 A 
ATOM     17  C   UNL d   1      31.557  16.665 -24.716  0.00  0.00    -0.001 A 
ATOM     18  C   UNL d   1      32.381  16.656 -24.764  0.00  0.00    -0.000 A 
ATOM     19  C   UNL d   1      32.831  17.122 -24.241  0.00  0.00    -0.000 A 
ATOM     20  C   UNL d   1      32.444  17.590 -23.677  0.00  0.00    -0.000 A 
ATOM     21  C   UNL d   1      31.623  17.603 -23.626  0.00  0.00    -0.001 A 
ENDBRANCH   1  16
TORSDOF 2
ENDMDL
MODEL 6
REMARK VINA RESULT:      -0.8      1.652      2.999
REMARK  2 active torsions:
REMARK  status: ('A' for Active; 'I' for Inactive)
REMARK    1  A    between atoms: C_7  and  C_1 
REMARK    2  A    between atoms: C_9  and  C_1 
ROOT
ATOM      1  C   UNL d   1      30.778  17.482 -24.234  0.00  0.00     0.240 A 
ATOM      2  S   UNL d   1      31.594  17.457 -24.166  0.00  0.00    -0.043 SA
ATOM      3  N   UNL d   1      30.375  16.832 -24.542  0.00  0.00    -0.199 NA
ATOM      4  C   UNL d   1      32.011  16.788 -24.402  0.00  0.00     0.181 A 
ATOM      5  N   UNL d   1      31.608  16.137 -24.710  0.00  0.00    -0.237 N 
ATOM      6  C   UNL d   1      30.788  16.155 -24.781  0.00  0.00     0.352 A 
ATOM      7  N   UNL d   1      32.831  16.769 -24.331  0.00  0.00    -0.221 NA
ATOM      8  O   UNL d   1      30.378  15.508 -25.088  0.00  0.00    -0.244 OA
ATOM      9  C   UNL d   1      32.025  15.467 -24.946  0.00  0.00     0.088 A 
ATOM     10  C   UNL d   1      33.241  16.104 -24.566  0.00  0.00     0.103 A 
ATOM     11  C   UNL d   1      32.837  15.453 -24.874  0.00  0.00     0.040 A 
ENDROOT
BRANCH   1  12
ATOM     12  C   UNL d   1      31.181  18.133 -23.927  0.00  0.00     0.429 C 
ATOM     13  F   UNL d   1      31.548  18.730 -23.659  0.00  0.00    -0.167 F 
ATOM     14  F   UNL d   1      31.484  18.816 -24.349  0.00  0.00    -0.167 F 
ATOM     15  F   UNL d   1      31.402  18.302 -23.122  0.00  0.00    -0.167 F 
ENDBRANCH   1  12
BRANCH   1  16
ATOM     16  C   UNL d   1      29.954  17.494 -24.309  0.00  0.00     0.016 A 
ATOM     17  C   UNL d   1      29.484  17.138 -23.724  0.00  0.00    -0.001 A 
ATOM     18  C   UNL d   1      28.662  17.148 -23.795  0.00  0.00    -0.000 A 
ATOM     19  C   UNL d   1      28.308  17.515 -24.453  0.00  0.00    -0.000 A 
ATOM     20  C   UNL d   1      28.787  17.867 -25.030  0.00  0.00    -0.000 A 
ATOM     21  C   UNL d   1      29.608  17.859 -24.963  0.00  0.00    -0.001 A 
ENDBRANCH   1  16
TORSDOF 2
ENDMDL
MODEL 7
REMARK VINA RESULT:      -0.3      3.825      5.343
REMARK  2 active torsions:
REMARK  status: ('A' for Active; 'I' for Inactive)
REMARK    1  A    between atoms: C_7  and  C_1 
REMARK    2  A    between atoms: C_9  and  C_1 
ROOT
ATOM      1  C   UNL d   1      32.691  20.420 -21.967  0.00  0.00     0.240 A 
ATOM      2  S   UNL d   1      32.691  21.160 -21.615  0.00  0.00    -0.043 SA
ATOM      3  N   UNL d   1      32.874  20.351 -22.768  0.00  0.00    -0.199 NA
ATOM      4  C   UNL d   1      32.872  21.831 -22.055  0.00  0.00     0.181 A 
ATOM      5  N   UNL d   1      33.055  21.762 -22.857  0.00  0.00    -0.237 N 
ATOM      6  C   UNL d   1      33.057  21.022 -23.218  0.00  0.00     0.352 A 
ATOM      7  N   UNL d   1      32.870  22.571 -21.695  0.00  0.00    -0.221 NA
ATOM      8  O   UNL d   1      33.240  20.945 -24.019  0.00  0.00    -0.244 OA
ATOM      9  C   UNL d   1      33.237  22.433 -23.298  0.00  0.00     0.088 A 
ATOM     10  C   UNL d   1      33.050  23.234 -22.135  0.00  0.00     0.103 A 
ATOM     11  C   UNL d   1      33.234  23.165 -22.937  0.00  0.00     0.040 A 
ENDROOT
BRANCH   1  12
ATOM     12  C   UNL d   1      32.508  20.489 -21.165  0.00  0.00     0.429 C 
ATOM     13  F   UNL d   1      32.353  20.547 -20.434  0.00  0.00    -0.167 F 
ATOM     14  F   UNL d   1      32.995  20.280 -20.491  0.00  0.00    -0.167 F 
ATOM     15  F   UNL d   1      31.798  20.781 -20.796  0.00  0.00    -0.167 F 
ENDBRANCH   1  12
BRANCH   1  16
ATOM     16  C   UNL d   1      32.695  19.679 -22.336  0.00  0.00     0.016 A 
ATOM     17  C   UNL d   1      32.148  19.519 -22.941  0.00  0.00    -0.001 A 
ATOM     18  C   UNL d   1      32.150  18.782 -23.311  0.00  0.00    -0.000 A 
ATOM     19  C   UNL d   1      32.699  18.202 -23.075  0.00  0.00    -0.000 A 
ATOM     20  C   UNL d   1      33.239  18.373 -22.471  0.00  0.00    -0.000 A 
ATOM     21  C   UNL d   1      33.241  19.108 -22.099  0.00  0.00    -0.001 A 
ENDBRANCH   1  16
TORSDOF 2
ENDMDL
