MODEL 1
REMARK VINA RESULT:      -4.7      0.000      0.000
REMARK  5 active torsions:
REMARK  status: ('A' for Active; 'I' for Inactive)
REMARK    1  A    between atoms: C_2  and  S_1 
REMARK    2  A    between atoms: N_5  and  S_1 
REMARK    3  A    between atoms: C_12  and  N_5 
REMARK    4  A    between atoms: O_16  and  C_8 
REMARK    5  A    between atoms: C_13  and  C_12 
ROOT
ATOM      1  S   UNL d   1     -41.853-122.607 -52.019  0.00  0.00     0.286 S 
ATOM      2  O   UNL d   1     -41.589-121.847 -51.837  0.00  0.00    -0.198 OA
ATOM      3  O   UNL d   1     -42.117-123.367 -52.201  0.00  0.00    -0.198 OA
ENDROOT
BRANCH   1   4
ATOM      4  C   UNL d   1     -42.038-122.733 -51.225  0.00  0.00     0.117 A 
ATOM      5  C   UNL d   1     -42.592-122.250 -50.850  0.00  0.00     0.027 A 
ATOM      6  C   UNL d   1     -42.777-122.376 -50.056  0.00  0.00     0.081 A 
ATOM      7 CL   UNL d   1     -43.334-121.889 -49.680  0.00  0.00    -0.080 Cl
ATOM      8  C   UNL d   1     -42.408-122.984 -49.638  0.00  0.00     0.105 A 
ATOM      9  C   UNL d   1     -41.855-123.466 -50.014  0.00  0.00     0.037 A 
ATOM     10  C   UNL d   1     -41.670-123.341 -50.808  0.00  0.00     0.072 A 
ATOM     11 CL   UNL d   1     -41.123-123.816 -51.184  0.00  0.00    -0.082 Cl
BRANCH   8  12
ATOM     12  O   UNL d   1     -42.594-123.110 -48.843  0.00  0.00    -0.327 OA
ATOM     13  C   UNL d   1     -42.271-123.754 -48.442  0.00  0.00     0.181 C 
ENDBRANCH   8  12
ENDBRANCH   1   4
BRANCH   1  14
ATOM     14  N   UNL d   1     -41.668-122.481 -52.813  0.00  0.00    -0.155 NA
BRANCH  14  15
ATOM     15  C   UNL d   1     -42.176-122.037 -53.290  0.00  0.00     0.131 C 
BRANCH  15  16
ATOM     16  C   UNL d   1     -42.089-122.051 -54.111  0.00  0.00     0.101 A 
ATOM     17  N   UNL d   1     -42.616-121.634 -54.588  0.00  0.00    -0.242 NA
ATOM     18  C   UNL d   1     -42.529-121.648 -55.408  0.00  0.00     0.099 A 
ATOM     19  C   UNL d   1     -41.915-122.080 -55.751  0.00  0.00     0.021 A 
ATOM     20  C   UNL d   1     -41.384-122.501 -55.272  0.00  0.00     0.003 A 
ATOM     21  C   UNL d   1     -41.471-122.486 -54.452  0.00  0.00     0.021 A 
ENDBRANCH  15  16
ENDBRANCH  14  15
ENDBRANCH   1  14
TORSDOF 5
ENDMDL
MODEL 2
REMARK VINA RESULT:      -4.5      1.711      4.667
REMARK  5 active torsions:
REMARK  status: ('A' for Active; 'I' for Inactive)
REMARK    1  A    between atoms: C_2  and  S_1 
REMARK    2  A    between atoms: N_5  and  S_1 
REMARK    3  A    between atoms: C_12  and  N_5 
REMARK    4  A    between atoms: O_16  and  C_8 
REMARK    5  A    between atoms: C_13  and  C_12 
ROOT
ATOM      1  S   UNL d   1     -41.651-122.756 -51.368  0.00  0.00     0.286 S 
ATOM      2  O   UNL d   1     -41.125-123.390 -51.393  0.00  0.00    -0.198 OA
ATOM      3  O   UNL d   1     -42.178-122.121 -51.344  0.00  0.00    -0.198 OA
ENDROOT
BRANCH   1   4
ATOM      4  C   UNL d   1     -41.568-122.655 -52.183  0.00  0.00     0.117 A 
ATOM      5  C   UNL d   1     -41.720-123.284 -52.694  0.00  0.00     0.027 A 
ATOM      6  C   UNL d   1     -41.637-123.183 -53.509  0.00  0.00     0.081 A 
ATOM      7 CL   UNL d   1     -41.790-123.817 -54.020  0.00  0.00    -0.080 Cl
ATOM      8  C   UNL d   1     -41.402-122.453 -53.811  0.00  0.00     0.105 A 
ATOM      9  C   UNL d   1     -41.250-121.824 -53.300  0.00  0.00     0.037 A 
ATOM     10  C   UNL d   1     -41.333-121.925 -52.486  0.00  0.00     0.072 A 
ATOM     11 CL   UNL d   1     -41.183-121.304 -51.976  0.00  0.00    -0.082 Cl
BRANCH   8  12
ATOM     12  O   UNL d   1     -41.318-122.352 -54.627  0.00  0.00    -0.327 OA
ATOM     13  C   UNL d   1     -41.812-121.828 -55.030  0.00  0.00     0.181 C 
ENDBRANCH   8  12
ENDBRANCH   1   4
BRANCH   1  14
ATOM     14  N   UNL d   1     -41.735-122.857 -50.554  0.00  0.00    -0.155 NA
BRANCH  14  15
ATOM     15  C   UNL d   1     -42.186-123.482 -50.259  0.00  0.00     0.131 C 
BRANCH  15  16
ATOM     16  C   UNL d   1     -42.297-123.563 -49.446  0.00  0.00     0.101 A 
ATOM     17  N   UNL d   1     -43.061-123.586 -49.135  0.00  0.00    -0.242 NA
ATOM     18  C   UNL d   1     -43.172-123.668 -48.321  0.00  0.00     0.099 A 
ATOM     19  C   UNL d   1     -42.519-123.726 -47.819  0.00  0.00     0.021 A 
ATOM     20  C   UNL d   1     -41.751-123.704 -48.131  0.00  0.00     0.003 A 
ATOM     21  C   UNL d   1     -41.640-123.622 -48.944  0.00  0.00     0.021 A 
ENDBRANCH  15  16
ENDBRANCH  14  15
ENDBRANCH   1  14
TORSDOF 5
ENDMDL
