MODEL 1
REMARK VINA RESULT:      -3.5      0.000      0.000
REMARK  6 active torsions:
REMARK  status: ('A' for Active; 'I' for Inactive)
REMARK    1  A    between atoms: C_9  and  N_1 
REMARK    2  A    between atoms: N_6  and  C_2 
REMARK    3  A    between atoms: C_7  and  C_5 
REMARK    4  A    between atoms: C_13  and  N_6 
REMARK    5  A    between atoms: C_8  and  C_7 
REMARK       I    between atoms: N_10  and  C_8 
REMARK    6  A    between atoms: C_14  and  N_10 
ROOT
ATOM      1  N   UNL d   1     -39.131  15.007  20.965  0.00  0.00    -0.254 N 
ATOM      2  C   UNL d   1     -39.942  14.888  20.872  0.00  0.00     0.182 A 
ATOM      3  C   UNL d   1     -38.790  15.029  20.247  0.00  0.00     0.272 A 
ATOM      4  S   UNL d   1     -40.088  14.837  20.046  0.00  0.00    -0.045 SA
ATOM      5  C   UNL d   1     -39.367  14.925  19.662  0.00  0.00     0.093 A 
ATOM      6  O   UNL d   1     -37.989  15.138  20.098  0.00  0.00    -0.266 OA
ENDROOT
BRANCH   5   7
ATOM      7  C   UNL d   1     -39.249  14.913  18.858  0.00  0.00     0.074 C 
BRANCH   7   8
ATOM      8  C   UNL d   1     -39.753  15.345  18.370  0.00  0.00     0.280 C 
ATOM      9  N   UNL d   1     -39.721  15.206  17.540  0.00  0.00    -0.208 NA
ATOM     10  O   UNL d   1     -40.258  15.881  18.679  0.00  0.00    -0.265 OA
BRANCH   9  11
ATOM     11  C   UNL d   1     -39.200  14.655  17.243  0.00  0.00     0.085 A 
ATOM     12  C   UNL d   1     -38.481  14.906  16.908  0.00  0.00     0.019 A 
ATOM     13  C   UNL d   1     -37.940  14.351  16.601  0.00  0.00     0.002 A 
ATOM     14  C   UNL d   1     -38.133  13.549  16.637  0.00  0.00     0.000 A 
ATOM     15  C   UNL d   1     -38.851  13.296  16.972  0.00  0.00     0.002 A 
ATOM     16  C   UNL d   1     -39.383  13.847  17.274  0.00  0.00     0.019 A 
ENDBRANCH   9  11
ENDBRANCH   7   8
ENDBRANCH   5   7
BRANCH   1  17
ATOM     17  C   UNL d   1     -38.743  15.088  21.673  0.00  0.00     0.069 A 
ATOM     18  C   UNL d   1     -38.752  15.825  22.057  0.00  0.00     0.018 A 
ATOM     19  C   UNL d   1     -38.358  15.922  22.783  0.00  0.00     0.002 A 
ATOM     20  C   UNL d   1     -37.960  15.279  23.117  0.00  0.00     0.000 A 
ATOM     21  C   UNL d   1     -37.952  14.542  22.732  0.00  0.00     0.002 A 
ATOM     22  C   UNL d   1     -38.344  14.456  22.014  0.00  0.00     0.018 A 
ENDBRANCH   1  17
BRANCH   2  23
ATOM     23  N   UNL d   1     -40.539  14.823  21.425  0.00  0.00    -0.222 NA
BRANCH  23  24
ATOM     24  C   UNL d   1     -41.180  14.334  21.293  0.00  0.00     0.084 A 
ATOM     25  C   UNL d   1     -41.107  13.520  21.400  0.00  0.00     0.019 A 
ATOM     26  C   UNL d   1     -41.767  13.027  21.263  0.00  0.00     0.002 A 
ATOM     27  C   UNL d   1     -42.469  13.347  21.027  0.00  0.00     0.000 A 
ATOM     28  C   UNL d   1     -42.543  14.167  20.919  0.00  0.00     0.002 A 
ATOM     29  C   UNL d   1     -41.896  14.662  21.052  0.00  0.00     0.019 A 
ENDBRANCH  23  24
ENDBRANCH   2  23
TORSDOF 6
ENDMDL
MODEL 2
REMARK VINA RESULT:      -2.0      1.166      4.419
REMARK  6 active torsions:
REMARK  status: ('A' for Active; 'I' for Inactive)
REMARK    1  A    between atoms: C_9  and  N_1 
REMARK    2  A    between atoms: N_6  and  C_2 
REMARK    3  A    between atoms: C_7  and  C_5 
REMARK    4  A    between atoms: C_13  and  N_6 
REMARK    5  A    between atoms: C_8  and  C_7 
REMARK       I    between atoms: N_10  and  C_8 
REMARK    6  A    between atoms: C_14  and  N_10 
ROOT
ATOM      1  N   UNL d   1     -39.727  14.224  19.005  0.00  0.00    -0.254 N 
ATOM      2  C   UNL d   1     -39.393  14.381  19.743  0.00  0.00     0.182 A 
ATOM      3  C   UNL d   1     -40.512  14.136  19.091  0.00  0.00     0.272 A 
ATOM      4  S   UNL d   1     -40.024  14.386  20.300  0.00  0.00    -0.045 SA
ATOM      5  C   UNL d   1     -40.718  14.233  19.888  0.00  0.00     0.093 A 
ATOM      6  O   UNL d   1     -41.047  13.974  18.488  0.00  0.00    -0.266 OA
ENDROOT
BRANCH   5   7
ATOM      7  C   UNL d   1     -41.464  14.187  20.207  0.00  0.00     0.074 C 
BRANCH   7   8
ATOM      8  C   UNL d   1     -41.725  14.787  20.706  0.00  0.00     0.280 C 
ATOM      9  N   UNL d   1     -42.305  14.600  21.288  0.00  0.00    -0.208 NA
ATOM     10  O   UNL d   1     -41.435  15.529  20.639  0.00  0.00    -0.265 OA
BRANCH   9  11
ATOM     11  C   UNL d   1     -42.589  13.839  21.342  0.00  0.00     0.085 A 
ATOM     12  C   UNL d   1     -42.132  13.252  21.714  0.00  0.00     0.019 A 
ATOM     13  C   UNL d   1     -42.413  12.469  21.775  0.00  0.00     0.002 A 
ATOM     14  C   UNL d   1     -43.154  12.291  21.459  0.00  0.00     0.000 A 
ATOM     15  C   UNL d   1     -43.614  12.875  21.086  0.00  0.00     0.002 A 
ATOM     16  C   UNL d   1     -43.333  13.647  21.027  0.00  0.00     0.019 A 
ENDBRANCH   9  11
ENDBRANCH   7   8
ENDBRANCH   5   7
BRANCH   1  17
ATOM     17  C   UNL d   1     -39.321  14.168  18.305  0.00  0.00     0.069 A 
ATOM     18  C   UNL d   1     -39.066  13.421  18.044  0.00  0.00     0.018 A 
ATOM     19  C   UNL d   1     -38.648  13.350  17.328  0.00  0.00     0.002 A 
ATOM     20  C   UNL d   1     -38.490  14.027  16.882  0.00  0.00     0.000 A 
ATOM     21  C   UNL d   1     -38.745  14.774  17.144  0.00  0.00     0.002 A 
ATOM     22  C   UNL d   1     -39.158  14.834  17.854  0.00  0.00     0.018 A 
ENDBRANCH   1  17
BRANCH   2  23
ATOM     23  N   UNL d   1     -38.619  14.514  19.962  0.00  0.00    -0.222 NA
BRANCH  23  24
ATOM     24  C   UNL d   1     -38.393  14.480  20.746  0.00  0.00     0.084 A 
ATOM     25  C   UNL d   1     -38.276  13.749  21.110  0.00  0.00     0.019 A 
ATOM     26  C   UNL d   1     -38.046  13.722  21.912  0.00  0.00     0.002 A 
ATOM     27  C   UNL d   1     -37.939  14.407  22.326  0.00  0.00     0.000 A 
ATOM     28  C   UNL d   1     -38.058  15.143  21.960  0.00  0.00     0.002 A 
ATOM     29  C   UNL d   1     -38.285  15.179  21.168  0.00  0.00     0.019 A 
ENDBRANCH  23  24
ENDBRANCH   2  23
TORSDOF 6
ENDMDL
MODEL 3
REMARK VINA RESULT:      -1.1      6.798      9.465
REMARK  6 active torsions:
REMARK  status: ('A' for Active; 'I' for Inactive)
REMARK    1  A    between atoms: C_9  and  N_1 
REMARK    2  A    between atoms: N_6  and  C_2 
REMARK    3  A    between atoms: C_7  and  C_5 
REMARK    4  A    between atoms: C_13  and  N_6 
REMARK    5  A    between atoms: C_8  and  C_7 
REMARK       I    between atoms: N_10  and  C_8 
REMARK    6  A    between atoms: C_14  and  N_10 
ROOT
ATOM      1  N   UNL d   1     -48.933  14.253  22.578  0.00  0.00    -0.254 N 
ATOM      2  C   UNL d   1     -48.840  13.680  23.165  0.00  0.00     0.182 A 
ATOM      3  C   UNL d   1     -48.224  14.412  22.257  0.00  0.00     0.272 A 
ATOM      4  S   UNL d   1     -48.021  13.490  23.191  0.00  0.00    -0.045 SA
ATOM      5  C   UNL d   1     -47.643  13.948  22.623  0.00  0.00     0.093 A 
ATOM      6  O   UNL d   1     -48.078  14.951  21.654  0.00  0.00    -0.266 OA
ENDROOT
BRANCH   5   7
ATOM      7  C   UNL d   1     -46.847  13.943  22.457  0.00  0.00     0.074 C 
BRANCH   7   8
ATOM      8  C   UNL d   1     -46.338  14.404  22.912  0.00  0.00     0.280 C 
ATOM      9  N   UNL d   1     -45.527  14.183  22.952  0.00  0.00    -0.208 NA
ATOM     10  O   UNL d   1     -46.609  15.045  23.304  0.00  0.00    -0.265 OA
BRANCH   9  11
ATOM     11  C   UNL d   1     -45.268  13.526  22.545  0.00  0.00     0.085 A 
ATOM     12  C   UNL d   1     -44.857  13.619  21.828  0.00  0.00     0.019 A 
ATOM     13  C   UNL d   1     -44.588  12.954  21.404  0.00  0.00     0.002 A 
ATOM     14  C   UNL d   1     -44.738  12.203  21.711  0.00  0.00     0.000 A 
ATOM     15  C   UNL d   1     -45.149  12.106  22.428  0.00  0.00     0.002 A 
ATOM     16  C   UNL d   1     -45.413  12.765  22.844  0.00  0.00     0.019 A 
ENDBRANCH   9  11
ENDBRANCH   7   8
ENDBRANCH   5   7
BRANCH   1  17
ATOM     17  C   UNL d   1     -49.635  14.599  22.364  0.00  0.00     0.069 A 
ATOM     18  C   UNL d   1     -49.961  15.189  22.850  0.00  0.00     0.018 A 
ATOM     19  C   UNL d   1     -50.680  15.551  22.641  0.00  0.00     0.002 A 
ATOM     20  C   UNL d   1     -51.064  15.318  21.948  0.00  0.00     0.000 A 
ATOM     21  C   UNL d   1     -50.738  14.728  21.462  0.00  0.00     0.002 A 
ATOM     22  C   UNL d   1     -50.026  14.376  21.677  0.00  0.00     0.018 A 
ENDBRANCH   1  17
BRANCH   2  23
ATOM     23  N   UNL d   1     -49.385  13.327  23.658  0.00  0.00    -0.222 NA
BRANCH  23  24
ATOM     24  C   UNL d   1     -49.481  12.515  23.661  0.00  0.00     0.084 A 
ATOM     25  C   UNL d   1     -48.822  12.021  23.695  0.00  0.00     0.019 A 
ATOM     26  C   UNL d   1     -48.928  11.193  23.698  0.00  0.00     0.002 A 
ATOM     27  C   UNL d   1     -49.671  10.881  23.668  0.00  0.00     0.000 A 
ATOM     28  C   UNL d   1     -50.336  11.378  23.633  0.00  0.00     0.002 A 
ATOM     29  C   UNL d   1     -50.240  12.197  23.630  0.00  0.00     0.019 A 
ENDBRANCH  23  24
ENDBRANCH   2  23
TORSDOF 6
ENDMDL
