MODEL 1
REMARK VINA RESULT:      89.9      0.000      0.000
REMARK  4 active torsions:
REMARK  status: ('A' for Active; 'I' for Inactive)
REMARK    1  A    between atoms: C_7  and  C_1 
REMARK    2  A    between atoms: C_13  and  N_2 
REMARK    3  A    between atoms: C_8  and  C_7 
REMARK    4  A    between atoms: N_9  and  C_14 
ROOT
ATOM      1  N   UNL d   1     -55.215-101.528 -39.271  0.00  0.00    -0.242 N 
ATOM      2  C   UNL d   1     -55.349-100.819 -39.685  0.00  0.00     0.267 A 
ATOM      3  C   UNL d   1     -54.965-102.093 -39.818  0.00  0.00     0.267 A 
ATOM      4  C   UNL d   1     -54.943-101.741 -40.565  0.00  0.00     0.062 A 
ATOM      5  C   UNL d   1     -55.180-100.955 -40.483  0.00  0.00     0.066 A 
ATOM      6  O   UNL d   1     -55.604-100.114 -39.353  0.00  0.00    -0.267 OA
ATOM      7  O   UNL d   1     -54.771-102.877 -39.643  0.00  0.00    -0.267 OA
ENDROOT
BRANCH   4   8
ATOM      8  C   UNL d   1     -54.723-102.110 -41.267  0.00  0.00     0.018 C 
BRANCH   8   9
ATOM      9  C   UNL d   1     -54.821-101.635 -41.926  0.00  0.00     0.045 A 
ATOM     10  N   UNL d   1     -54.863-100.816 -41.931  0.00  0.00    -0.308 N 
ATOM     11  C   UNL d   1     -54.962-100.562 -42.700  0.00  0.00     0.060 A 
ATOM     12  C   UNL d   1     -54.812-100.331 -41.265  0.00  0.00     0.099 C 
ATOM     13  C   UNL d   1     -55.036 -99.818 -43.028  0.00  0.00     0.017 A 
ATOM     14  C   UNL d   1     -54.983-101.227 -43.182  0.00  0.00    -0.002 A 
ATOM     15  C   UNL d   1     -55.133 -99.731 -43.847  0.00  0.00     0.002 A 
ATOM     16  C   UNL d   1     -55.153-100.405 -44.324  0.00  0.00    -0.000 A 
ATOM     17  C   UNL d   1     -55.079-101.145 -43.996  0.00  0.00    -0.003 A 
ATOM     18  C   UNL d   1     -54.895-101.892 -42.703  0.00  0.00     0.054 A 
ATOM     19  C   UNL d   1     -54.891-102.663 -43.006  0.00  0.00     0.010 C 
ATOM     20  C   UNL d   1     -54.981-102.017 -43.517  0.00  0.00     0.010 C 
ENDBRANCH   8   9
ENDBRANCH   4   8
BRANCH   1  21
ATOM     21  C   UNL d   1     -55.313-101.646 -38.468  0.00  0.00     0.070 A 
ATOM     22  C   UNL d   1     -55.871-102.192 -38.189  0.00  0.00     0.019 A 
ATOM     23  C   UNL d   1     -55.964-102.305 -37.380  0.00  0.00     0.025 A 
ATOM     24  C   UNL d   1     -55.507-101.880 -36.849  0.00  0.00     0.127 A 
ATOM     25  C   UNL d   1     -54.949-101.334 -37.128  0.00  0.00     0.025 A 
ATOM     26  C   UNL d   1     -54.852-101.217 -37.936  0.00  0.00     0.019 A 
BRANCH  24  27
ATOM     27  N   UNL d   1     -55.599-101.993 -36.039  0.00  0.00    -0.114 N 
ATOM     28  O   UNL d   1     -56.092-102.587 -35.755  0.00  0.00    -0.532 OA
ATOM     29  O   UNL d   1     -55.198-101.511 -35.513  0.00  0.00    -0.532 OA
ENDBRANCH  24  27
ENDBRANCH   1  21
TORSDOF 4
ENDMDL
