MODEL 1
REMARK VINA RESULT:      -6.7      0.000      0.000
REMARK  3 active torsions:
REMARK  status: ('A' for Active; 'I' for Inactive)
REMARK    1  A    between atoms: C_6  and  C_2 
REMARK    2  A    between atoms: C_7  and  C_6 
REMARK    3  A    between atoms: C_8  and  C_7 
ROOT
ATOM      1  N   UNL d   1     -49.305  13.609  22.530  0.00  0.00    -0.225 NA
ATOM      2  C   UNL d   1     -48.587  13.865  22.900  0.00  0.00     0.163 A 
ATOM      3  N   UNL d   1     -48.723  14.612  23.217  0.00  0.00    -0.225 NA
ATOM      4  C   UNL d   1     -49.853  14.196  22.629  0.00  0.00     0.101 A 
ATOM      5  C   UNL d   1     -49.509  14.845  23.061  0.00  0.00     0.101 A 
ATOM      6  C   UNL d   1     -50.665  14.277  22.390  0.00  0.00     0.021 A 
ATOM      7  C   UNL d   1     -49.941  15.525  23.244  0.00  0.00     0.021 A 
ATOM      8  C   UNL d   1     -50.703  15.575  23.008  0.00  0.00     0.002 A 
ATOM      9  C   UNL d   1     -51.060  14.961  22.587  0.00  0.00     0.002 A 
ENDROOT
BRANCH   2  10
ATOM     10  C   UNL d   1     -48.004  13.286  22.818  0.00  0.00     0.039 C 
BRANCH  10  11
ATOM     11  C   UNL d   1     -47.314  13.343  23.252  0.00  0.00     0.003 C 
BRANCH  11  12
ATOM     12  C   UNL d   1     -46.798  12.696  23.290  0.00  0.00     0.000 A 
ATOM     13  C   UNL d   1     -47.019  12.001  23.676  0.00  0.00     0.001 A 
ATOM     14  C   UNL d   1     -46.488  11.375  23.698  0.00  0.00     0.011 A 
ATOM     15  C   UNL d   1     -45.757  11.427  23.349  0.00  0.00     0.058 A 
ATOM     16  C   UNL d   1     -45.538  12.123  22.963  0.00  0.00     0.011 A 
ATOM     17 CL   UNL d   1     -45.239  10.778  23.386  0.00  0.00    -0.082 Cl
ATOM     18  C   UNL d   1     -46.064  12.750  22.938  0.00  0.00     0.001 A 
ENDBRANCH  11  12
ENDBRANCH  10  11
ENDBRANCH   2  10
TORSDOF 3
ENDMDL
MODEL 2
REMARK VINA RESULT:      -6.5      1.459      1.806
REMARK  3 active torsions:
REMARK  status: ('A' for Active; 'I' for Inactive)
REMARK    1  A    between atoms: C_6  and  C_2 
REMARK    2  A    between atoms: C_7  and  C_6 
REMARK    3  A    between atoms: C_8  and  C_7 
ROOT
ATOM      1  N   UNL d   1     -48.905  12.169  23.160  0.00  0.00    -0.225 NA
ATOM      2  C   UNL d   1     -48.432  12.870  23.093  0.00  0.00     0.163 A 
ATOM      3  N   UNL d   1     -48.922  13.515  23.237  0.00  0.00    -0.225 NA
ATOM      4  C   UNL d   1     -49.659  12.401  23.340  0.00  0.00     0.101 A 
ATOM      5  C   UNL d   1     -49.698  13.251  23.395  0.00  0.00     0.101 A 
ATOM      6  C   UNL d   1     -50.380  11.970  23.477  0.00  0.00     0.021 A 
ATOM      7  C   UNL d   1     -50.401  13.644  23.574  0.00  0.00     0.021 A 
ATOM      8  C   UNL d   1     -51.064  13.216  23.698  0.00  0.00     0.002 A 
ATOM      9  C   UNL d   1     -51.054  12.391  23.650  0.00  0.00     0.002 A 
ENDROOT
BRANCH   2  10
ATOM     10  C   UNL d   1     -47.653  12.670  22.908  0.00  0.00     0.039 C 
BRANCH  10  11
ATOM     11  C   UNL d   1     -47.050  13.195  23.077  0.00  0.00     0.003 C 
BRANCH  11  12
ATOM     12  C   UNL d   1     -46.292  13.060  22.771  0.00  0.00     0.000 A 
ATOM     13  C   UNL d   1     -45.896  12.351  22.918  0.00  0.00     0.001 A 
ATOM     14  C   UNL d   1     -45.146  12.244  22.604  0.00  0.00     0.011 A 
ATOM     15  C   UNL d   1     -44.788  12.818  22.154  0.00  0.00     0.058 A 
ATOM     16  C   UNL d   1     -45.186  13.526  22.008  0.00  0.00     0.011 A 
ATOM     17 CL   UNL d   1     -44.028  12.683  21.847  0.00  0.00    -0.082 Cl
ATOM     18  C   UNL d   1     -45.934  13.638  22.320  0.00  0.00     0.001 A 
ENDBRANCH  11  12
ENDBRANCH  10  11
ENDBRANCH   2  10
TORSDOF 3
ENDMDL
MODEL 3
REMARK VINA RESULT:      -6.3      2.296      5.071
REMARK  3 active torsions:
REMARK  status: ('A' for Active; 'I' for Inactive)
REMARK    1  A    between atoms: C_6  and  C_2 
REMARK    2  A    between atoms: C_7  and  C_6 
REMARK    3  A    between atoms: C_8  and  C_7 
ROOT
ATOM      1  N   UNL d   1     -46.032  11.442  23.453  0.00  0.00    -0.225 NA
ATOM      2  C   UNL d   1     -45.860  12.204  23.124  0.00  0.00     0.163 A 
ATOM      3  N   UNL d   1     -45.064  12.212  22.916  0.00  0.00    -0.225 NA
ATOM      4  C   UNL d   1     -45.348  11.010  23.437  0.00  0.00     0.101 A 
ATOM      5  C   UNL d   1     -44.717  11.475  23.101  0.00  0.00     0.101 A 
ATOM      6  C   UNL d   1     -45.157  10.218  23.682  0.00  0.00     0.021 A 
ATOM      7  C   UNL d   1     -43.953  11.176  23.015  0.00  0.00     0.021 A 
ATOM      8  C   UNL d   1     -43.800  10.429  23.253  0.00  0.00     0.002 A 
ATOM      9  C   UNL d   1     -44.393   9.957  23.582  0.00  0.00     0.002 A 
ENDROOT
BRANCH   2  10
ATOM     10  C   UNL d   1     -46.540  12.673  23.126  0.00  0.00     0.039 C 
BRANCH  10  11
ATOM     11  C   UNL d   1     -46.551  13.369  22.697  0.00  0.00     0.003 C 
BRANCH  11  12
ATOM     12  C   UNL d   1     -47.230  13.842  22.703  0.00  0.00     0.000 A 
ATOM     13  C   UNL d   1     -47.173  14.666  22.680  0.00  0.00     0.001 A 
ATOM     14  C   UNL d   1     -47.862  15.111  22.687  0.00  0.00     0.011 A 
ATOM     15  C   UNL d   1     -48.594  14.759  22.716  0.00  0.00     0.058 A 
ATOM     16  C   UNL d   1     -48.649  13.936  22.740  0.00  0.00     0.011 A 
ATOM     17 CL   UNL d   1     -49.276  15.234  22.723  0.00  0.00    -0.082 Cl
ATOM     18  C   UNL d   1     -47.964  13.488  22.733  0.00  0.00     0.001 A 
ENDBRANCH  11  12
ENDBRANCH  10  11
ENDBRANCH   2  10
TORSDOF 3
ENDMDL
MODEL 4
REMARK VINA RESULT:      -6.2      2.121      4.683
REMARK  3 active torsions:
REMARK  status: ('A' for Active; 'I' for Inactive)
REMARK    1  A    between atoms: C_6  and  C_2 
REMARK    2  A    between atoms: C_7  and  C_6 
REMARK    3  A    between atoms: C_8  and  C_7 
ROOT
ATOM      1  N   UNL d   1     -46.827  12.913  23.182  0.00  0.00    -0.225 NA
ATOM      2  C   UNL d   1     -47.024  13.646  22.806  0.00  0.00     0.163 A 
ATOM      3  N   UNL d   1     -46.398  13.851  22.314  0.00  0.00    -0.225 NA
ATOM      4  C   UNL d   1     -46.096  12.692  22.914  0.00  0.00     0.101 A 
ATOM      5  C   UNL d   1     -45.800  13.270  22.362  0.00  0.00     0.101 A 
ATOM      6  C   UNL d   1     -45.598  12.021  23.078  0.00  0.00     0.021 A 
ATOM      7  C   UNL d   1     -45.064  13.188  21.998  0.00  0.00     0.021 A 
ATOM      8  C   UNL d   1     -44.615  12.549  22.169  0.00  0.00     0.002 A 
ATOM      9  C   UNL d   1     -44.878  11.974  22.701  0.00  0.00     0.002 A 
ENDROOT
BRANCH   2  10
ATOM     10  C   UNL d   1     -47.768  13.902  23.058  0.00  0.00     0.039 C 
BRANCH  10  11
ATOM     11  C   UNL d   1     -48.199  14.414  22.589  0.00  0.00     0.003 C 
BRANCH  11  12
ATOM     12  C   UNL d   1     -48.918  14.717  22.867  0.00  0.00     0.000 A 
ATOM     13  C   UNL d   1     -49.541  14.214  23.066  0.00  0.00     0.001 A 
ATOM     14  C   UNL d   1     -50.242  14.541  23.340  0.00  0.00     0.011 A 
ATOM     15  C   UNL d   1     -50.334  15.345  23.417  0.00  0.00     0.058 A 
ATOM     16  C   UNL d   1     -49.710  15.846  23.216  0.00  0.00     0.011 A 
ATOM     17 CL   UNL d   1     -51.055  15.650  23.696  0.00  0.00    -0.082 Cl
ATOM     18  C   UNL d   1     -49.008  15.525  22.943  0.00  0.00     0.001 A 
ENDBRANCH  11  12
ENDBRANCH  10  11
ENDBRANCH   2  10
TORSDOF 3
ENDMDL
MODEL 5
REMARK VINA RESULT:      -5.5      8.860      9.297
REMARK  3 active torsions:
REMARK  status: ('A' for Active; 'I' for Inactive)
REMARK    1  A    between atoms: C_6  and  C_2 
REMARK    2  A    between atoms: C_7  and  C_6 
REMARK    3  A    between atoms: C_8  and  C_7 
ROOT
ATOM      1  N   UNL d   1     -39.738  14.566  18.759  0.00  0.00    -0.225 NA
ATOM      2  C   UNL d   1     -40.036  14.953  19.452  0.00  0.00     0.163 A 
ATOM      3  N   UNL d   1     -40.590  15.509  19.208  0.00  0.00    -0.225 NA
ATOM      4  C   UNL d   1     -40.112  14.892  18.119  0.00  0.00     0.101 A 
ATOM      5  C   UNL d   1     -40.658  15.493  18.376  0.00  0.00     0.101 A 
ATOM      6  C   UNL d   1     -40.059  14.748  17.282  0.00  0.00     0.021 A 
ATOM      7  C   UNL d   1     -41.119  15.921  17.841  0.00  0.00     0.021 A 
ATOM      8  C   UNL d   1     -41.050  15.767  17.060  0.00  0.00     0.002 A 
ATOM      9  C   UNL d   1     -40.528  15.189  16.785  0.00  0.00     0.002 A 
ENDROOT
BRANCH   2  10
ATOM     10  C   UNL d   1     -39.674  14.643  20.127  0.00  0.00     0.039 C 
BRANCH  10  11
ATOM     11  C   UNL d   1     -39.967  14.833  20.866  0.00  0.00     0.003 C 
BRANCH  11  12
ATOM     12  C   UNL d   1     -39.561  14.585  21.543  0.00  0.00     0.000 A 
ATOM     13  C   UNL d   1     -39.505  13.784  21.735  0.00  0.00     0.001 A 
ATOM     14  C   UNL d   1     -39.096  13.567  22.412  0.00  0.00     0.011 A 
ATOM     15  C   UNL d   1     -38.748  14.120  22.894  0.00  0.00     0.058 A 
ATOM     16  C   UNL d   1     -38.805  14.920  22.701  0.00  0.00     0.011 A 
ATOM     17 CL   UNL d   1     -38.340  13.872  23.574  0.00  0.00    -0.082 Cl
ATOM     18  C   UNL d   1     -39.212  15.143  22.026  0.00  0.00     0.001 A 
ENDBRANCH  11  12
ENDBRANCH  10  11
ENDBRANCH   2  10
TORSDOF 3
ENDMDL
MODEL 6
REMARK VINA RESULT:      -4.6      9.080     10.947
REMARK  3 active torsions:
REMARK  status: ('A' for Active; 'I' for Inactive)
REMARK    1  A    between atoms: C_6  and  C_2 
REMARK    2  A    between atoms: C_7  and  C_6 
REMARK    3  A    between atoms: C_8  and  C_7 
ROOT
ATOM      1  N   UNL d   1     -38.509  13.580  18.055  0.00  0.00    -0.225 NA
ATOM      2  C   UNL d   1     -38.799  14.366  18.189  0.00  0.00     0.163 A 
ATOM      3  N   UNL d   1     -38.799  14.758  17.467  0.00  0.00    -0.225 NA
ATOM      4  C   UNL d   1     -38.343  13.514  17.266  0.00  0.00     0.101 A 
ATOM      5  C   UNL d   1     -38.518  14.248  16.869  0.00  0.00     0.101 A 
ATOM      6  C   UNL d   1     -38.041  12.878  16.789  0.00  0.00     0.021 A 
ATOM      7  C   UNL d   1     -38.402  14.343  16.057  0.00  0.00     0.021 A 
ATOM      8  C   UNL d   1     -38.117  13.729  15.632  0.00  0.00     0.002 A 
ATOM      9  C   UNL d   1     -37.940  13.007  15.992  0.00  0.00     0.002 A 
ENDROOT
BRANCH   2  10
ATOM     10  C   UNL d   1     -38.979  14.468  18.989  0.00  0.00     0.039 C 
BRANCH  10  11
ATOM     11  C   UNL d   1     -39.367  15.146  19.232  0.00  0.00     0.003 C 
BRANCH  11  12
ATOM     12  C   UNL d   1     -39.417  15.321  20.040  0.00  0.00     0.000 A 
ATOM     13  C   UNL d   1     -38.829  15.762  20.415  0.00  0.00     0.001 A 
ATOM     14  C   UNL d   1     -38.904  15.922  21.216  0.00  0.00     0.011 A 
ATOM     15  C   UNL d   1     -39.541  15.655  21.644  0.00  0.00     0.058 A 
ATOM     16  C   UNL d   1     -40.128  15.214  21.267  0.00  0.00     0.011 A 
ATOM     17 CL   UNL d   1     -39.592  15.831  22.455  0.00  0.00    -0.082 Cl
ATOM     18  C   UNL d   1     -40.058  15.052  20.468  0.00  0.00     0.001 A 
ENDBRANCH  11  12
ENDBRANCH  10  11
ENDBRANCH   2  10
TORSDOF 3
ENDMDL
