MODEL 1
REMARK VINA RESULT:       1.6      0.000      0.000
REMARK  3 active torsions:
REMARK  status: ('A' for Active; 'I' for Inactive)
REMARK    1  A    between atoms: C_6  and  C_5 
REMARK    2  A    between atoms: C_7  and  C_6 
REMARK    3  A    between atoms: O_11  and  C_7 
ROOT
ATOM      1  N   UNL d   1      45.168 -14.926  44.952  0.00  0.00    -0.163 NA
ATOM      2  C   UNL d   1      45.945 -14.697  44.783  0.00  0.00     0.313 A 
ATOM      3  C   UNL d   1      44.663 -14.323  44.708  0.00  0.00     0.288 A 
ATOM      4  S   UNL d   1      45.911 -13.952  44.434  0.00  0.00    -0.021 SA
ATOM      5  C   UNL d   1      45.128 -13.722  44.387  0.00  0.00     0.097 A 
ATOM      6  O   UNL d   1      46.623 -15.140  44.938  0.00  0.00    -0.258 OA
ATOM      7  O   UNL d   1      43.837 -14.322  44.773  0.00  0.00    -0.265 OA
ENDROOT
BRANCH   5   8
ATOM      8  C   UNL d   1      44.843 -13.013  44.075  0.00  0.00     0.080 C 
BRANCH   8   9
ATOM      9  C   UNL d   1      45.301 -12.586  43.544  0.00  0.00     0.297 C 
ATOM     10  O   UNL d   1      45.894 -12.080  43.822  0.00  0.00    -0.259 OA
BRANCH   9  11
ATOM     11  O   UNL d   1      45.177 -12.654  42.736  0.00  0.00    -0.296 OA
ATOM     12  C   UNL d   1      44.750 -12.080  42.333  0.00  0.00     0.185 C 
ENDBRANCH   9  11
ENDBRANCH   8   9
ENDBRANCH   5   8
TORSDOF 3
ENDMDL
MODEL 2
REMARK VINA RESULT:       3.5      5.479      6.420
REMARK  3 active torsions:
REMARK  status: ('A' for Active; 'I' for Inactive)
REMARK    1  A    between atoms: C_6  and  C_5 
REMARK    2  A    between atoms: C_7  and  C_6 
REMARK    3  A    between atoms: O_11  and  C_7 
ROOT
ATOM      1  N   UNL d   1      46.455 -18.882  41.400  0.00  0.00    -0.163 NA
ATOM      2  C   UNL d   1      46.566 -19.687  41.553  0.00  0.00     0.313 A 
ATOM      3  C   UNL d   1      46.468 -18.480  42.120  0.00  0.00     0.288 A 
ATOM      4  S   UNL d   1      46.646 -19.775  42.368  0.00  0.00    -0.021 SA
ATOM      5  C   UNL d   1      46.587 -19.038  42.715  0.00  0.00     0.097 A 
ATOM      6  O   UNL d   1      46.590 -20.287  40.986  0.00  0.00    -0.258 OA
ATOM      7  O   UNL d   1      46.379 -17.663  42.223  0.00  0.00    -0.265 OA
ENDROOT
BRANCH   5   8
ATOM      8  C   UNL d   1      46.636 -18.871  43.522  0.00  0.00     0.080 C 
BRANCH   8   9
ATOM      9  C   UNL d   1      46.131 -19.248  44.050  0.00  0.00     0.297 C 
ATOM     10  O   UNL d   1      45.420 -18.887  44.271  0.00  0.00    -0.259 OA
BRANCH   9  11
ATOM     11  O   UNL d   1      46.324 -19.981  44.362  0.00  0.00    -0.296 OA
ATOM     12  C   UNL d   1      45.848 -20.326  44.935  0.00  0.00     0.185 C 
ENDBRANCH   9  11
ENDBRANCH   8   9
ENDBRANCH   5   8
TORSDOF 3
ENDMDL
MODEL 3
REMARK VINA RESULT:       3.9      7.371      7.829
REMARK  3 active torsions:
REMARK  status: ('A' for Active; 'I' for Inactive)
REMARK    1  A    between atoms: C_6  and  C_5 
REMARK    2  A    between atoms: C_7  and  C_6 
REMARK    3  A    between atoms: O_11  and  C_7 
ROOT
ATOM      1  N   UNL d   1      45.895 -15.485  37.340  0.00  0.00    -0.163 NA
ATOM      2  C   UNL d   1      45.850 -14.901  36.756  0.00  0.00     0.313 A 
ATOM      3  C   UNL d   1      45.222 -15.956  37.285  0.00  0.00     0.288 A 
ATOM      4  S   UNL d   1      45.146 -15.018  36.344  0.00  0.00    -0.021 SA
ATOM      5  C   UNL d   1      44.761 -15.663  36.667  0.00  0.00     0.097 A 
ATOM      6  O   UNL d   1      46.411 -14.312  36.617  0.00  0.00    -0.258 OA
ATOM      7  O   UNL d   1      45.042 -16.607  37.765  0.00  0.00    -0.265 OA
ENDROOT
BRANCH   5   8
ATOM      8  C   UNL d   1      44.037 -15.974  36.423  0.00  0.00     0.080 C 
BRANCH   8   9
ATOM      9  C   UNL d   1      43.336 -15.611  36.653  0.00  0.00     0.297 C 
ATOM     10  O   UNL d   1      43.350 -15.001  37.211  0.00  0.00    -0.259 OA
BRANCH   9  11
ATOM     11  O   UNL d   1      42.619 -15.848  36.334  0.00  0.00    -0.296 OA
ATOM     12  C   UNL d   1      41.922 -15.480  36.564  0.00  0.00     0.185 C 
ENDBRANCH   9  11
ENDBRANCH   8   9
ENDBRANCH   5   8
TORSDOF 3
ENDMDL
