MODEL 1
REMARK VINA RESULT:      57.3      0.000      0.000
REMARK  4 active torsions:
REMARK  status: ('A' for Active; 'I' for Inactive)
REMARK    1  A    between atoms: N_5  and  S_1 
REMARK    2  A    between atoms: C_8  and  S_1 
REMARK    3  A    between atoms: C_18  and  N_2 
REMARK    4  A    between atoms: C_10  and  N_5 
ROOT
ATOM      1  N   UNL d   1     -53.428  24.695  33.398  0.00  0.00    -0.273 N 
ATOM      2  C   UNL d   1     -53.077  23.948  33.390  0.00  0.00     0.265 A 
ATOM      3  C   UNL d   1     -52.834  25.283  33.384  0.00  0.00     0.067 A 
ATOM      4  C   UNL d   1     -52.102  24.880  33.368  0.00  0.00     0.021 A 
ATOM      5  C   UNL d   1     -52.245  24.071  33.371  0.00  0.00     0.058 A 
ATOM      6  C   UNL d   1     -51.204  25.970  33.347  0.00  0.00     0.105 A 
ATOM      7  C   UNL d   1     -51.352  25.160  33.350  0.00  0.00     0.014 A 
ATOM      8  C   UNL d   1     -52.865  26.094  33.385  0.00  0.00     0.018 A 
ATOM      9  C   UNL d   1     -51.802  26.488  33.360  0.00  0.00     0.014 A 
ATOM     10  O   UNL d   1     -53.499  23.215  33.400  0.00  0.00    -0.267 OA
ATOM     11  C   UNL d   1     -51.638  23.542  33.357  0.00  0.00     0.005 A 
ATOM     12  C   UNL d   1     -50.707  24.627  33.336  0.00  0.00     0.001 A 
ATOM     13  C   UNL d   1     -50.817  23.814  33.338  0.00  0.00     0.000 A 
ENDROOT
BRANCH   6  14
ATOM     14  S   UNL d   1     -50.430  26.242  33.329  0.00  0.00     0.287 S 
ATOM     15  O   UNL d   1     -50.688  27.021  33.310  0.00  0.00    -0.198 OA
ATOM     16  O   UNL d   1     -50.125  25.449  33.347  0.00  0.00    -0.198 OA
BRANCH  14  17
ATOM     17  N   UNL d   1     -49.642  26.519  33.311  0.00  0.00    -0.139 NA
BRANCH  17  18
ATOM     18  C   UNL d   1     -49.416  27.233  33.636  0.00  0.00     0.174 A 
ATOM     19  N   UNL d   1     -49.902  27.889  33.465  0.00  0.00    -0.225 NA
ATOM     20  C   UNL d   1     -49.714  28.628  33.771  0.00  0.00     0.101 A 
ATOM     21  C   UNL d   1     -49.036  28.712  34.252  0.00  0.00     0.021 A 
ATOM     22  C   UNL d   1     -48.546  28.057  34.426  0.00  0.00     0.005 A 
ATOM     23  C   UNL d   1     -48.738  27.317  34.117  0.00  0.00     0.037 A 
ATOM     24  C   UNL d   1     -48.495  26.348  34.048  0.00  0.00     0.003 C 
ENDBRANCH  17  18
ENDBRANCH  14  17
ENDBRANCH   6  14
BRANCH   1  25
ATOM     25  C   UNL d   1     -54.238  24.827  33.417  0.00  0.00     0.083 C 
ATOM     26  C   UNL d   1     -54.727  24.232  33.700  0.00  0.00     0.021 C 
ENDBRANCH   1  25
TORSDOF 4
ENDMDL
