MODEL 1
REMARK VINA RESULT:      24.7      0.000      0.000
REMARK  5 active torsions:
REMARK  status: ('A' for Active; 'I' for Inactive)
REMARK    1  A    between atoms: S_6  and  C_2 
REMARK    2  A    between atoms: C_11  and  S_6 
REMARK    3  A    between atoms: C_7  and  C_11 
REMARK       I    between atoms: N_8  and  C_7 
REMARK    4  A    between atoms: C_13  and  N_8 
REMARK    5  A    between atoms: C_14  and  C_13 
ROOT
ATOM      1  S   UNL d   1      13.476  11.780  -2.871  0.00  0.00    -0.080 SA
ENDROOT
BRANCH   1   2
ATOM      2  C   UNL d   1      13.536  11.804  -2.049  0.00  0.00     0.049 A 
ATOM      3  C   UNL d   1      12.912  11.781  -1.516  0.00  0.00     0.087 A 
ATOM      4  N   UNL d   1      13.229  11.820  -0.743  0.00  0.00    -0.302 N 
ATOM      5  C   UNL d   1      14.057  11.867  -0.815  0.00  0.00     0.065 A 
ATOM      6  C   UNL d   1      12.799  11.812  -0.040  0.00  0.00     0.100 C 
ATOM      7  C   UNL d   1      14.247  11.857  -1.618  0.00  0.00     0.024 A 
ATOM      8  C   UNL d   1      14.648  11.917  -0.243  0.00  0.00     0.018 A 
ATOM      9  C   UNL d   1      15.038  11.898  -1.849  0.00  0.00     0.002 A 
ATOM     10  C   UNL d   1      15.630  11.948  -1.285  0.00  0.00     0.000 A 
ATOM     11  C   UNL d   1      15.440  11.957  -0.482  0.00  0.00     0.002 A 
ENDBRANCH   1   2
BRANCH   1  12
ATOM     12  C   UNL d   1      12.785  12.051  -3.240  0.00  0.00     0.098 C 
BRANCH  12  13
ATOM     13  C   UNL d   1      12.838  12.510  -3.925  0.00  0.00     0.286 C 
ATOM     14  N   UNL d   1      12.887  13.330  -3.862  0.00  0.00    -0.204 NA
ATOM     15  O   UNL d   1      12.841  12.150  -4.665  0.00  0.00    -0.265 OA
BRANCH  14  16
ATOM     16  C   UNL d   1      12.939  13.791  -4.546  0.00  0.00     0.127 C 
BRANCH  16  17
ATOM     17  C   UNL d   1      13.279  14.527  -4.513  0.00  0.00     0.119 A 
ATOM     18  O   UNL d   1      13.643  14.870  -3.857  0.00  0.00    -0.304 OA
ATOM     19  C   UNL d   1      13.913  15.628  -4.074  0.00  0.00     0.123 A 
ATOM     20  C   UNL d   1      13.713  15.749  -4.865  0.00  0.00     0.029 A 
ATOM     21  C   UNL d   1      13.326  15.075  -5.132  0.00  0.00     0.028 A 
ENDBRANCH  16  17
ENDBRANCH  14  16
ENDBRANCH  12  13
ENDBRANCH   1  12
TORSDOF 5
ENDMDL
