MODEL 1
REMARK VINA RESULT:      -4.6      0.000      0.000
REMARK  4 active torsions:
REMARK  status: ('A' for Active; 'I' for Inactive)
REMARK    1  A    between atoms: C_4  and  C_3 
REMARK    2  A    between atoms: S_8  and  C_5 
REMARK    3  A    between atoms: C_13  and  S_8 
REMARK    4  A    between atoms: C_14  and  C_13 
ROOT
ATOM      1  N   UNL d   1      56.741   0.682  32.597  0.00  0.00    -0.146 NA
ATOM      2  N   UNL d   1      57.193   0.516  31.938  0.00  0.00    -0.141 NA
ATOM      3  C   UNL d   1      56.236   0.104  32.899  0.00  0.00     0.126 A 
ATOM      4  C   UNL d   1      57.153  -0.213  31.573  0.00  0.00     0.132 A 
ATOM      5  C   UNL d   1      56.190  -0.635  32.536  0.00  0.00     0.025 A 
ATOM      6  C   UNL d   1      56.643  -0.792  31.881  0.00  0.00     0.029 A 
ENDROOT
BRANCH   4   7
ATOM      7  S   UNL d   1      57.611  -0.375  30.908  0.00  0.00    -0.066 SA
BRANCH   7   8
ATOM      8  C   UNL d   1      58.058   0.215  30.559  0.00  0.00     0.037 C 
BRANCH   8   9
ATOM      9  C   UNL d   1      58.478   0.053  29.868  0.00  0.00     0.006 A 
ATOM     10  C   UNL d   1      59.251  -0.222  29.915  0.00  0.00     0.001 A 
ATOM     11  C   UNL d   1      59.673  -0.385  29.236  0.00  0.00     0.000 A 
ATOM     12  C   UNL d   1      59.314  -0.270  28.497  0.00  0.00     0.000 A 
ATOM     13  C   UNL d   1      58.546   0.004  28.458  0.00  0.00     0.000 A 
ATOM     14  C   UNL d   1      58.128   0.165  29.151  0.00  0.00     0.001 A 
ENDBRANCH   8   9
ENDBRANCH   7   8
ENDBRANCH   4   7
BRANCH   3  15
ATOM     15  C   UNL d   1      55.778   0.264  33.561  0.00  0.00     0.119 A 
ATOM     16  O   UNL d   1      56.052   0.481  34.305  0.00  0.00    -0.304 OA
ATOM     17  C   UNL d   1      55.409   0.587  34.807  0.00  0.00     0.123 A 
ATOM     18  C   UNL d   1      54.719   0.433  34.364  0.00  0.00     0.029 A 
ATOM     19  C   UNL d   1      54.946   0.233  33.595  0.00  0.00     0.028 A 
ENDBRANCH   3  15
TORSDOF 4
ENDMDL
MODEL 2
REMARK VINA RESULT:      -3.3      1.160      1.652
REMARK  4 active torsions:
REMARK  status: ('A' for Active; 'I' for Inactive)
REMARK    1  A    between atoms: C_4  and  C_3 
REMARK    2  A    between atoms: S_8  and  C_5 
REMARK    3  A    between atoms: C_13  and  S_8 
REMARK    4  A    between atoms: C_14  and  C_13 
ROOT
ATOM      1  N   UNL d   1      56.672  -0.365  31.055  0.00  0.00    -0.146 NA
ATOM      2  N   UNL d   1      57.252  -0.359  30.482  0.00  0.00    -0.141 NA
ATOM      3  C   UNL d   1      56.818  -0.010  31.784  0.00  0.00     0.126 A 
ATOM      4  C   UNL d   1      57.975  -0.007  30.619  0.00  0.00     0.132 A 
ATOM      5  C   UNL d   1      57.546   0.349  31.931  0.00  0.00     0.025 A 
ATOM      6  C   UNL d   1      58.119   0.351  31.355  0.00  0.00     0.029 A 
ENDROOT
BRANCH   4   7
ATOM      7  S   UNL d   1      58.558  -0.003  30.037  0.00  0.00    -0.066 SA
BRANCH   7   8
ATOM      8  C   UNL d   1      59.328  -0.210  30.222  0.00  0.00     0.037 C 
BRANCH   8   9
ATOM      9  C   UNL d   1      59.919  -0.132  29.651  0.00  0.00     0.006 A 
ATOM     10  C   UNL d   1      60.194  -0.796  29.254  0.00  0.00     0.001 A 
ATOM     11  C   UNL d   1      60.778  -0.727  28.688  0.00  0.00     0.000 A 
ATOM     12  C   UNL d   1      61.092   0.023  28.518  0.00  0.00     0.000 A 
ATOM     13  C   UNL d   1      60.814   0.678  28.917  0.00  0.00     0.000 A 
ATOM     14  C   UNL d   1      60.223   0.596  29.487  0.00  0.00     0.001 A 
ENDBRANCH   8   9
ENDBRANCH   7   8
ENDBRANCH   4   7
BRANCH   3  15
ATOM     15  C   UNL d   1      56.238  -0.012  32.366  0.00  0.00     0.119 A 
ATOM     16  O   UNL d   1      55.907  -0.673  32.725  0.00  0.00    -0.304 OA
ATOM     17  C   UNL d   1      55.348  -0.426  33.276  0.00  0.00     0.123 A 
ATOM     18  C   UNL d   1      55.333   0.408  33.260  0.00  0.00     0.029 A 
ATOM     19  C   UNL d   1      55.881   0.665  32.699  0.00  0.00     0.028 A 
ENDBRANCH   3  15
TORSDOF 4
ENDMDL
MODEL 3
REMARK VINA RESULT:      -2.4      9.802      9.998
REMARK  4 active torsions:
REMARK  status: ('A' for Active; 'I' for Inactive)
REMARK    1  A    between atoms: C_4  and  C_3 
REMARK    2  A    between atoms: S_8  and  C_5 
REMARK    3  A    between atoms: C_13  and  S_8 
REMARK    4  A    between atoms: C_14  and  C_13 
ROOT
ATOM      1  N   UNL d   1      58.883  -9.311  33.547  0.00  0.00    -0.146 NA
ATOM      2  N   UNL d   1      58.685  -9.504  32.779  0.00  0.00    -0.141 NA
ATOM      3  C   UNL d   1      59.677  -9.234  33.755  0.00  0.00     0.126 A 
ATOM      4  C   UNL d   1      59.262  -9.623  32.214  0.00  0.00     0.132 A 
ATOM      5  C   UNL d   1      60.266  -9.353  33.189  0.00  0.00     0.025 A 
ATOM      6  C   UNL d   1      60.062  -9.545  32.428  0.00  0.00     0.029 A 
ENDROOT
BRANCH   4   7
ATOM      7  S   UNL d   1      59.058  -9.818  31.440  0.00  0.00    -0.066 SA
BRANCH   7   8
ATOM      8  C   UNL d   1      58.274  -9.808  31.204  0.00  0.00     0.037 C 
BRANCH   8   9
ATOM      9  C   UNL d   1      58.091  -9.809  30.400  0.00  0.00     0.006 A 
ATOM     10  C   UNL d   1      58.695  -9.803  29.843  0.00  0.00     0.001 A 
ATOM     11  C   UNL d   1      58.522  -9.805  29.046  0.00  0.00     0.000 A 
ATOM     12  C   UNL d   1      57.728  -9.812  28.803  0.00  0.00     0.000 A 
ATOM     13  C   UNL d   1      57.133  -9.818  29.361  0.00  0.00     0.000 A 
ATOM     14  C   UNL d   1      57.320  -9.816  30.165  0.00  0.00     0.001 A 
ENDBRANCH   8   9
ENDBRANCH   7   8
ENDBRANCH   4   7
BRANCH   3  15
ATOM     15  C   UNL d   1      59.883  -9.040  34.526  0.00  0.00     0.119 A 
ATOM     16  O   UNL d   1      59.910  -8.286  34.850  0.00  0.00    -0.304 OA
ATOM     17  C   UNL d   1      60.143  -8.341  35.637  0.00  0.00     0.123 A 
ATOM     18  C   UNL d   1      60.264  -9.149  35.805  0.00  0.00     0.029 A 
ATOM     19  C   UNL d   1      60.104  -9.582  35.121  0.00  0.00     0.028 A 
ENDBRANCH   3  15
TORSDOF 4
ENDMDL
