MODEL 1
REMARK VINA RESULT:      -7.9      0.000      0.000
REMARK  7 active torsions:
REMARK  status: ('A' for Active; 'I' for Inactive)
REMARK    1  A    between atoms: C_2  and  S_1 
REMARK    2  A    between atoms: N_6  and  S_1 
REMARK    3  A    between atoms: O_14  and  C_5 
REMARK    4  A    between atoms: C_15  and  N_6 
REMARK    5  A    between atoms: O_16  and  C_7 
REMARK    6  A    between atoms: C_11  and  C_19 
REMARK    7  A    between atoms: C_19  and  C_15 
ROOT
ATOM      1  C   UNL d   1      51.999  33.331  53.000  0.00  0.00     0.112 C 
ENDROOT
BRANCH   1   2
ATOM      2  N   UNL d   1      52.719  33.188  53.369  0.00  0.00    -0.157 NA
BRANCH   2   3
ATOM      3  S   UNL d   1      53.018  32.420  53.424  0.00  0.00     0.285 S 
ATOM      4  O   UNL d   1      52.325  32.138  53.078  0.00  0.00    -0.198 OA
ATOM      5  O   UNL d   1      53.304  31.656  53.474  0.00  0.00    -0.198 OA
BRANCH   3   6
ATOM      6  C   UNL d   1      53.709  32.711  53.771  0.00  0.00     0.105 A 
ATOM      7  C   UNL d   1      53.736  32.878  54.581  0.00  0.00     0.013 A 
ATOM      8  C   UNL d   1      54.430  33.168  54.919  0.00  0.00     0.001 A 
ATOM      9  C   UNL d   1      54.459  33.335  55.725  0.00  0.00     0.000 C 
ATOM     10  C   UNL d   1      55.099  33.292  54.447  0.00  0.00     0.000 A 
ATOM     11  C   UNL d   1      55.070  33.125  53.641  0.00  0.00     0.001 A 
ATOM     12  C   UNL d   1      54.376  32.835  53.303  0.00  0.00     0.013 A 
ENDBRANCH   3   6
ENDBRANCH   2   3
ENDBRANCH   1   2
BRANCH   1  13
ATOM     13  C   UNL d   1      51.756  34.103  52.886  0.00  0.00     0.022 C 
BRANCH  13  14
ATOM     14  C   UNL d   1      51.030  34.251  52.539  0.00  0.00     0.004 A 
ATOM     15  C   UNL d   1      50.399  34.534  52.991  0.00  0.00     0.026 A 
ATOM     16  C   UNL d   1      49.669  34.682  52.638  0.00  0.00     0.116 A 
ATOM     17  C   UNL d   1      49.573  34.544  51.818  0.00  0.00     0.116 A 
ATOM     18  C   UNL d   1      50.197  34.265  51.377  0.00  0.00     0.026 A 
ATOM     19  C   UNL d   1      50.925  34.117  51.726  0.00  0.00     0.002 A 
BRANCH  16  20
ATOM     20  O   UNL d   1      49.041  34.965  53.093  0.00  0.00    -0.326 OA
ATOM     21  C   UNL d   1      49.038  35.632  53.654  0.00  0.00     0.181 C 
ENDBRANCH  16  20
BRANCH  17  22
ATOM     22  O   UNL d   1      48.869  34.683  51.460  0.00  0.00    -0.326 OA
ATOM     23  C   UNL d   1      48.757  34.513  50.672  0.00  0.00     0.181 C 
ENDBRANCH  17  22
ENDBRANCH  13  14
ENDBRANCH   1  13
TORSDOF 7
ENDMDL
MODEL 2
REMARK VINA RESULT:      -7.4      1.286      1.568
REMARK  7 active torsions:
REMARK  status: ('A' for Active; 'I' for Inactive)
REMARK    1  A    between atoms: C_2  and  S_1 
REMARK    2  A    between atoms: N_6  and  S_1 
REMARK    3  A    between atoms: O_14  and  C_5 
REMARK    4  A    between atoms: C_15  and  N_6 
REMARK    5  A    between atoms: O_16  and  C_7 
REMARK    6  A    between atoms: C_11  and  C_19 
REMARK    7  A    between atoms: C_19  and  C_15 
ROOT
ATOM      1  C   UNL d   1      51.599  34.477  53.233  0.00  0.00     0.112 C 
ENDROOT
BRANCH   1   2
ATOM      2  N   UNL d   1      52.253  34.149  53.607  0.00  0.00    -0.157 NA
BRANCH   2   3
ATOM      3  S   UNL d   1      52.937  34.596  53.728  0.00  0.00     0.285 S 
ATOM      4  O   UNL d   1      52.545  35.255  53.423  0.00  0.00    -0.198 OA
ATOM      5  O   UNL d   1      53.607  35.049  53.843  0.00  0.00    -0.198 OA
BRANCH   3   6
ATOM      6  C   UNL d   1      53.322  33.932  54.032  0.00  0.00     0.105 A 
ATOM      7  C   UNL d   1      53.591  33.334  53.527  0.00  0.00     0.013 A 
ATOM      8  C   UNL d   1      53.975  32.674  53.839  0.00  0.00     0.001 A 
ATOM      9  C   UNL d   1      54.244  32.078  53.338  0.00  0.00     0.000 C 
ATOM     10  C   UNL d   1      54.089  32.610  54.656  0.00  0.00     0.000 A 
ATOM     11  C   UNL d   1      53.820  33.206  55.157  0.00  0.00     0.001 A 
ATOM     12  C   UNL d   1      53.436  33.867  54.845  0.00  0.00     0.013 A 
ENDBRANCH   3   6
ENDBRANCH   2   3
ENDBRANCH   1   2
BRANCH   1  13
ATOM     13  C   UNL d   1      50.887  34.074  53.248  0.00  0.00     0.022 C 
BRANCH  13  14
ATOM     14  C   UNL d   1      50.274  34.319  52.765  0.00  0.00     0.004 A 
ATOM     15  C   UNL d   1      49.674  34.801  53.061  0.00  0.00     0.026 A 
ATOM     16  C   UNL d   1      49.057  35.046  52.571  0.00  0.00     0.116 A 
ATOM     17  C   UNL d   1      49.046  34.800  51.771  0.00  0.00     0.116 A 
ATOM     18  C   UNL d   1      49.640  34.324  51.483  0.00  0.00     0.026 A 
ATOM     19  C   UNL d   1      50.255  34.080  51.970  0.00  0.00     0.002 A 
BRANCH  16  20
ATOM     20  O   UNL d   1      48.458  35.529  52.871  0.00  0.00    -0.326 OA
ATOM     21  C   UNL d   1      48.400  35.888  53.663  0.00  0.00     0.181 C 
ENDBRANCH  16  20
BRANCH  17  22
ATOM     22  O   UNL d   1      48.454  35.029  51.282  0.00  0.00    -0.326 OA
ATOM     23  C   UNL d   1      48.203  34.552  50.672  0.00  0.00     0.181 C 
ENDBRANCH  17  22
ENDBRANCH  13  14
ENDBRANCH   1  13
TORSDOF 7
ENDMDL
MODEL 3
REMARK VINA RESULT:      -7.0      2.457      3.645
REMARK  7 active torsions:
REMARK  status: ('A' for Active; 'I' for Inactive)
REMARK    1  A    between atoms: C_2  and  S_1 
REMARK    2  A    between atoms: N_6  and  S_1 
REMARK    3  A    between atoms: O_14  and  C_5 
REMARK    4  A    between atoms: C_15  and  N_6 
REMARK    5  A    between atoms: O_16  and  C_7 
REMARK    6  A    between atoms: C_11  and  C_19 
REMARK    7  A    between atoms: C_19  and  C_15 
ROOT
ATOM      1  C   UNL d   1      53.725  32.309  53.958  0.00  0.00     0.112 C 
ENDROOT
BRANCH   1   2
ATOM      2  N   UNL d   1      53.585  31.503  53.886  0.00  0.00    -0.157 NA
BRANCH   2   3
ATOM      3  S   UNL d   1      54.039  31.041  53.373  0.00  0.00     0.285 S 
ATOM      4  O   UNL d   1      54.526  31.694  53.235  0.00  0.00    -0.198 OA
ATOM      5  O   UNL d   1      54.496  30.594  52.863  0.00  0.00    -0.198 OA
BRANCH   3   6
ATOM      6  C   UNL d   1      53.548  30.393  53.516  0.00  0.00     0.105 A 
ATOM      7  C   UNL d   1      53.710  29.871  54.136  0.00  0.00     0.013 A 
ATOM      8  C   UNL d   1      53.213  29.226  54.272  0.00  0.00     0.001 A 
ATOM      9  C   UNL d   1      53.373  28.705  54.890  0.00  0.00     0.000 C 
ATOM     10  C   UNL d   1      52.554  29.103  53.787  0.00  0.00     0.000 A 
ATOM     11  C   UNL d   1      52.394  29.624  53.170  0.00  0.00     0.001 A 
ATOM     12  C   UNL d   1      52.891  30.269  53.034  0.00  0.00     0.013 A 
ENDBRANCH   3   6
ENDBRANCH   2   3
ENDBRANCH   1   2
BRANCH   1  13
ATOM     13  C   UNL d   1      53.376  32.722  54.571  0.00  0.00     0.022 C 
BRANCH  13  14
ATOM     14  C   UNL d   1      53.250  33.527  54.497  0.00  0.00     0.004 A 
ATOM     15  C   UNL d   1      52.662  33.816  53.996  0.00  0.00     0.026 A 
ATOM     16  C   UNL d   1      52.538  34.628  53.925  0.00  0.00     0.116 A 
ATOM     17  C   UNL d   1      53.015  35.156  54.365  0.00  0.00     0.116 A 
ATOM     18  C   UNL d   1      53.595  34.868  54.858  0.00  0.00     0.026 A 
ATOM     19  C   UNL d   1      53.719  34.059  54.930  0.00  0.00     0.002 A 
BRANCH  16  20
ATOM     20  O   UNL d   1      51.948  34.913  53.423  0.00  0.00    -0.326 OA
ATOM     21  C   UNL d   1      51.372  34.457  52.953  0.00  0.00     0.181 C 
ENDBRANCH  16  20
BRANCH  17  22
ATOM     22  O   UNL d   1      52.908  35.949  54.307  0.00  0.00    -0.326 OA
ATOM     23  C   UNL d   1      53.320  36.465  54.782  0.00  0.00     0.181 C 
ENDBRANCH  17  22
ENDBRANCH  13  14
ENDBRANCH   1  13
TORSDOF 7
ENDMDL
MODEL 4
REMARK VINA RESULT:      -6.6      1.701      2.357
REMARK  7 active torsions:
REMARK  status: ('A' for Active; 'I' for Inactive)
REMARK    1  A    between atoms: C_2  and  S_1 
REMARK    2  A    between atoms: N_6  and  S_1 
REMARK    3  A    between atoms: O_14  and  C_5 
REMARK    4  A    between atoms: C_15  and  N_6 
REMARK    5  A    between atoms: O_16  and  C_7 
REMARK    6  A    between atoms: C_11  and  C_19 
REMARK    7  A    between atoms: C_19  and  C_15 
ROOT
ATOM      1  C   UNL d   1      50.290  34.498  52.471  0.00  0.00     0.112 C 
ENDROOT
BRANCH   1   2
ATOM      2  N   UNL d   1      50.998  34.291  52.833  0.00  0.00    -0.157 NA
BRANCH   2   3
ATOM      3  S   UNL d   1      51.665  34.112  52.380  0.00  0.00     0.285 S 
ATOM      4  O   UNL d   1      51.193  34.118  51.704  0.00  0.00    -0.198 OA
ATOM      5  O   UNL d   1      52.318  33.934  51.923  0.00  0.00    -0.198 OA
BRANCH   3   6
ATOM      6  C   UNL d   1      52.131  34.107  53.063  0.00  0.00     0.105 A 
ATOM      7  C   UNL d   1      52.436  34.812  53.368  0.00  0.00     0.013 A 
ATOM      8  C   UNL d   1      52.900  34.798  54.050  0.00  0.00     0.001 A 
ATOM      9  C   UNL d   1      53.206  35.500  54.356  0.00  0.00     0.000 C 
ATOM     10  C   UNL d   1      53.059  34.079  54.428  0.00  0.00     0.000 A 
ATOM     11  C   UNL d   1      52.753  33.378  54.122  0.00  0.00     0.001 A 
ATOM     12  C   UNL d   1      52.289  33.391  53.440  0.00  0.00     0.013 A 
ENDBRANCH   3   6
ENDBRANCH   2   3
ENDBRANCH   1   2
BRANCH   1  13
ATOM     13  C   UNL d   1      49.605  34.522  52.917  0.00  0.00     0.022 C 
BRANCH  13  14
ATOM     14  C   UNL d   1      48.971  34.971  52.662  0.00  0.00     0.004 A 
ATOM     15  C   UNL d   1      48.657  35.564  53.142  0.00  0.00     0.026 A 
ATOM     16  C   UNL d   1      48.017  36.014  52.881  0.00  0.00     0.116 A 
ATOM     17  C   UNL d   1      47.691  35.864  52.125  0.00  0.00     0.116 A 
ATOM     18  C   UNL d   1      48.003  35.279  51.655  0.00  0.00     0.026 A 
ATOM     19  C   UNL d   1      48.640  34.829  51.913  0.00  0.00     0.002 A 
BRANCH  16  20
ATOM     20  O   UNL d   1      47.705  36.606  53.364  0.00  0.00    -0.326 OA
ATOM     21  C   UNL d   1      47.803  36.709  54.224  0.00  0.00     0.181 C 
ENDBRANCH  16  20
BRANCH  17  22
ATOM     22  O   UNL d   1      47.069  36.294  51.857  0.00  0.00    -0.326 OA
ATOM     23  C   UNL d   1      46.521  35.970  51.349  0.00  0.00     0.181 C 
ENDBRANCH  17  22
ENDBRANCH  13  14
ENDBRANCH   1  13
TORSDOF 7
ENDMDL
MODEL 5
REMARK VINA RESULT:      -6.3      2.139      4.779
REMARK  7 active torsions:
REMARK  status: ('A' for Active; 'I' for Inactive)
REMARK    1  A    between atoms: C_2  and  S_1 
REMARK    2  A    between atoms: N_6  and  S_1 
REMARK    3  A    between atoms: O_14  and  C_5 
REMARK    4  A    between atoms: C_15  and  N_6 
REMARK    5  A    between atoms: O_16  and  C_7 
REMARK    6  A    between atoms: C_11  and  C_19 
REMARK    7  A    between atoms: C_19  and  C_15 
ROOT
ATOM      1  C   UNL d   1      53.150  32.469  53.433  0.00  0.00     0.112 C 
ENDROOT
BRANCH   1   2
ATOM      2  N   UNL d   1      52.748  33.089  53.075  0.00  0.00    -0.157 NA
BRANCH   2   3
ATOM      3  S   UNL d   1      52.716  33.832  53.435  0.00  0.00     0.285 S 
ATOM      4  O   UNL d   1      53.362  33.621  53.902  0.00  0.00    -0.198 OA
ATOM      5  O   UNL d   1      52.693  34.564  53.797  0.00  0.00    -0.198 OA
BRANCH   3   6
ATOM      6  C   UNL d   1      52.068  34.036  52.964  0.00  0.00     0.105 A 
ATOM      7  C   UNL d   1      51.306  34.062  53.285  0.00  0.00     0.013 A 
ATOM      8  C   UNL d   1      50.665  34.267  52.807  0.00  0.00     0.001 A 
ATOM      9  C   UNL d   1      49.905  34.293  53.125  0.00  0.00     0.000 C 
ATOM     10  C   UNL d   1      50.786  34.444  52.008  0.00  0.00     0.000 A 
ATOM     11  C   UNL d   1      51.545  34.417  51.690  0.00  0.00     0.001 A 
ATOM     12  C   UNL d   1      52.186  34.213  52.168  0.00  0.00     0.013 A 
ENDBRANCH   3   6
ENDBRANCH   2   3
ENDBRANCH   1   2
BRANCH   1  13
ATOM     13  C   UNL d   1      53.351  31.813  52.987  0.00  0.00     0.022 C 
BRANCH  13  14
ATOM     14  C   UNL d   1      53.278  31.066  53.311  0.00  0.00     0.004 A 
ATOM     15  C   UNL d   1      52.573  30.644  53.238  0.00  0.00     0.026 A 
ATOM     16  C   UNL d   1      52.504  29.890  53.566  0.00  0.00     0.116 A 
ATOM     17  C   UNL d   1      53.156  29.558  53.973  0.00  0.00     0.116 A 
ATOM     18  C   UNL d   1      53.849  29.977  54.042  0.00  0.00     0.026 A 
ATOM     19  C   UNL d   1      53.920  30.728  53.716  0.00  0.00     0.002 A 
BRANCH  16  20
ATOM     20  O   UNL d   1      51.797  29.471  53.492  0.00  0.00    -0.326 OA
ATOM     21  C   UNL d   1      50.982  29.781  53.497  0.00  0.00     0.181 C 
ENDBRANCH  16  20
BRANCH  17  22
ATOM     22  O   UNL d   1      53.105  28.827  54.298  0.00  0.00    -0.326 OA
ATOM     23  C   UNL d   1      53.639  28.577  54.859  0.00  0.00     0.181 C 
ENDBRANCH  17  22
ENDBRANCH  13  14
ENDBRANCH   1  13
TORSDOF 7
ENDMDL
MODEL 6
REMARK VINA RESULT:      -5.9      2.213      5.575
REMARK  7 active torsions:
REMARK  status: ('A' for Active; 'I' for Inactive)
REMARK    1  A    between atoms: C_2  and  S_1 
REMARK    2  A    between atoms: N_6  and  S_1 
REMARK    3  A    between atoms: O_14  and  C_5 
REMARK    4  A    between atoms: C_15  and  N_6 
REMARK    5  A    between atoms: O_16  and  C_7 
REMARK    6  A    between atoms: C_11  and  C_19 
REMARK    7  A    between atoms: C_19  and  C_15 
ROOT
ATOM      1  C   UNL d   1      49.551  34.561  52.220  0.00  0.00     0.112 C 
ENDROOT
BRANCH   1   2
ATOM      2  N   UNL d   1      48.859  35.000  52.156  0.00  0.00    -0.157 NA
BRANCH   2   3
ATOM      3  S   UNL d   1      48.456  35.048  51.437  0.00  0.00     0.285 S 
ATOM      4  O   UNL d   1      49.047  34.590  51.089  0.00  0.00    -0.198 OA
ATOM      5  O   UNL d   1      48.065  35.089  50.720  0.00  0.00    -0.198 OA
BRANCH   3   6
ATOM      6  C   UNL d   1      47.868  35.506  51.794  0.00  0.00     0.105 A 
ATOM      7  C   UNL d   1      47.091  35.227  51.845  0.00  0.00     0.013 A 
ATOM      8  C   UNL d   1      46.510  35.691  52.203  0.00  0.00     0.001 A 
ATOM      9  C   UNL d   1      45.735  35.415  52.254  0.00  0.00     0.000 C 
ATOM     10  C   UNL d   1      46.705  36.434  52.510  0.00  0.00     0.000 A 
ATOM     11  C   UNL d   1      47.480  36.710  52.458  0.00  0.00     0.001 A 
ATOM     12  C   UNL d   1      48.061  36.246  52.100  0.00  0.00     0.013 A 
ENDBRANCH   3   6
ENDBRANCH   2   3
ENDBRANCH   1   2
BRANCH   1  13
ATOM     13  C   UNL d   1      49.947  34.542  52.934  0.00  0.00     0.022 C 
BRANCH  13  14
ATOM     14  C   UNL d   1      50.654  34.134  52.995  0.00  0.00     0.004 A 
ATOM     15  C   UNL d   1      51.362  34.538  53.123  0.00  0.00     0.026 A 
ATOM     16  C   UNL d   1      52.072  34.122  53.183  0.00  0.00     0.116 A 
ATOM     17  C   UNL d   1      52.067  33.289  53.112  0.00  0.00     0.116 A 
ATOM     18  C   UNL d   1      51.367  32.894  52.986  0.00  0.00     0.026 A 
ATOM     19  C   UNL d   1      50.659  33.306  52.926  0.00  0.00     0.002 A 
BRANCH  16  20
ATOM     20  O   UNL d   1      52.778  34.530  53.311  0.00  0.00    -0.326 OA
ATOM     21  C   UNL d   1      52.916  35.225  53.819  0.00  0.00     0.181 C 
ENDBRANCH  16  20
BRANCH  17  22
ATOM     22  O   UNL d   1      52.750  32.871  53.169  0.00  0.00    -0.326 OA
ATOM     23  C   UNL d   1      52.765  32.069  53.025  0.00  0.00     0.181 C 
ENDBRANCH  17  22
ENDBRANCH  13  14
ENDBRANCH   1  13
TORSDOF 7
ENDMDL
