MODEL 1
REMARK VINA RESULT:      43.9      0.000      0.000
REMARK  4 active torsions:
REMARK  status: ('A' for Active; 'I' for Inactive)
REMARK    1  A    between atoms: N_2  and  S_1 
REMARK    2  A    between atoms: C_4  and  S_1 
REMARK    3  A    between atoms: C_11  and  C_3 
REMARK    4  A    between atoms: O_17  and  C_9 
ROOT
ATOM      1  S   UNL d   1     -51.003  25.303  33.547  0.00  0.00     0.273 S 
ATOM      2  O   UNL d   1     -50.251  25.561  33.787  0.00  0.00    -0.200 OA
ATOM      3  O   UNL d   1     -51.748  25.047  33.310  0.00  0.00    -0.200 OA
ENDROOT
BRANCH   1   4
ATOM      4  N   UNL d   1     -50.737  24.525  33.552  0.00  0.00    -0.213 N 
ATOM      5  C   UNL d   1     -51.189  23.858  33.720  0.00  0.00     0.157 A 
ATOM      6  N   UNL d   1     -50.703  23.194  33.661  0.00  0.00    -0.224 NA
ATOM      7  C   UNL d   1     -49.941  23.453  33.454  0.00  0.00     0.120 A 
ATOM      8  C   UNL d   1     -49.963  24.275  33.386  0.00  0.00     0.114 A 
BRANCH   5   9
ATOM      9  C   UNL d   1     -51.993  23.856  33.914  0.00  0.00     0.035 A 
ATOM     10  C   UNL d   1     -52.234  24.017  34.682  0.00  0.00     0.003 A 
ATOM     11  C   UNL d   1     -53.037  24.016  34.881  0.00  0.00     0.000 A 
ATOM     12  C   UNL d   1     -53.605  23.849  34.292  0.00  0.00     0.000 A 
ATOM     13  C   UNL d   1     -53.364  23.687  33.525  0.00  0.00     0.000 A 
ATOM     14  C   UNL d   1     -52.560  23.689  33.330  0.00  0.00     0.003 A 
ENDBRANCH   5   9
ENDBRANCH   1   4
BRANCH   1  15
ATOM     15  C   UNL d   1     -51.272  26.089  33.543  0.00  0.00     0.106 A 
ATOM     16  C   UNL d   1     -50.735  26.712  33.429  0.00  0.00     0.039 A 
ATOM     17  C   UNL d   1     -51.001  27.490  33.425  0.00  0.00     0.122 A 
ATOM     18  C   UNL d   1     -51.806  27.649  33.534  0.00  0.00     0.162 A 
ATOM     19  C   UNL d   1     -52.340  27.033  33.647  0.00  0.00     0.032 A 
ATOM     20  F   UNL d   1     -52.072  28.428  33.530  0.00  0.00    -0.202 F 
ATOM     21  C   UNL d   1     -52.071  26.256  33.651  0.00  0.00     0.015 A 
BRANCH  17  22
ATOM     22  O   UNL d   1     -50.466  28.106  33.312  0.00  0.00    -0.326 OA
ATOM     23  C   UNL d   1     -50.729  28.884  33.317  0.00  0.00     0.181 C 
ENDBRANCH  17  22
ENDBRANCH   1  15
TORSDOF 4
ENDMDL
