MODEL 1
REMARK VINA RESULT:      21.2      0.000      0.000
REMARK  4 active torsions:
REMARK  status: ('A' for Active; 'I' for Inactive)
REMARK    1  A    between atoms: C_2  and  S_1 
REMARK    2  A    between atoms: C_5  and  S_1 
REMARK    3  A    between atoms: C_7  and  C_5 
REMARK       I    between atoms: N_11  and  C_7 
REMARK    4  A    between atoms: C_14  and  N_11 
ROOT
ATOM      1  S   UNL d   1      23.798  12.091  -2.240  0.00  0.00     0.217 S 
ATOM      2  O   UNL d   1      24.559  11.784  -2.110  0.00  0.00    -0.217 OA
ATOM      3  O   UNL d   1      23.034  12.399  -2.368  0.00  0.00    -0.217 OA
ENDROOT
BRANCH   1   4
ATOM      4  C   UNL d   1      23.785  12.391  -1.469  0.00  0.00     0.109 A 
ATOM      5  C   UNL d   1      23.455  12.022  -0.810  0.00  0.00     0.110 A 
ATOM      6  N   UNL d   1      23.564  12.511  -0.160  0.00  0.00    -0.243 NA
ATOM      7  C   UNL d   1      23.965  13.188  -0.418  0.00  0.00     0.082 A 
ATOM      8  C   UNL d   1      24.098  13.107  -1.225  0.00  0.00     0.030 A 
ATOM      9  C   UNL d   1      24.223  13.862  -0.017  0.00  0.00     0.019 A 
ATOM     10  C   UNL d   1      24.491  13.703  -1.640  0.00  0.00     0.002 A 
ATOM     11  C   UNL d   1      24.749  14.377  -1.241  0.00  0.00     0.000 A 
ATOM     12  C   UNL d   1      24.615  14.454  -0.435  0.00  0.00     0.002 A 
ENDBRANCH   1   4
BRANCH   1  13
ATOM     13  C   UNL d   1      23.804  11.790  -3.022  0.00  0.00     0.161 C 
BRANCH  13  14
ATOM     14  C   UNL d   1      24.127  12.250  -3.630  0.00  0.00     0.291 C 
ATOM     15  N   UNL d   1      23.801  12.199  -4.387  0.00  0.00    -0.207 NA
ATOM     16  O   UNL d   1      24.759  12.749  -3.488  0.00  0.00    -0.264 OA
BRANCH  15  17
ATOM     17  C   UNL d   1      24.120  12.657  -4.998  0.00  0.00     0.085 A 
ATOM     18  C   UNL d   1      24.137  13.480  -4.943  0.00  0.00     0.019 A 
ATOM     19  C   UNL d   1      24.457  13.933  -5.556  0.00  0.00     0.002 A 
ATOM     20  C   UNL d   1      24.764  13.564  -6.233  0.00  0.00     0.000 A 
ATOM     21  C   UNL d   1      24.746  12.739  -6.285  0.00  0.00     0.002 A 
ATOM     22  C   UNL d   1      24.425  12.290  -5.670  0.00  0.00     0.019 A 
ENDBRANCH  15  17
ENDBRANCH  13  14
ENDBRANCH   1  13
TORSDOF 4
ENDMDL
