MODEL 1
REMARK VINA RESULT:     171.3      0.000      0.000
REMARK  4 active torsions:
REMARK  status: ('A' for Active; 'I' for Inactive)
REMARK    1  A    between atoms: C_9  and  C_3 
REMARK    2  A    between atoms: N_10  and  C_9 
REMARK    3  A    between atoms: C_19  and  C_9 
REMARK    4  A    between atoms: C_12  and  N_11 
ROOT
ATOM      1  C   UNL d   1     -58.027-100.008 -43.852  0.00  0.00     0.075 C 
ENDROOT
BRANCH   1   2
ATOM      2  C   UNL d   1     -57.381-100.509 -43.725  0.00  0.00     0.106 A 
ATOM      3  C   UNL d   1     -56.633-100.280 -43.438  0.00  0.00     0.289 A 
ATOM      4  N   UNL d   1     -56.158-100.953 -43.397  0.00  0.00    -0.169 N 
ATOM      5  O   UNL d   1     -56.408 -99.510 -43.230  0.00  0.00    -0.265 OA
ATOM      6  C   UNL d   1     -56.606-101.598 -43.658  0.00  0.00     0.200 A 
ATOM      7  N   UNL d   1     -55.411-101.232 -43.198  0.00  0.00    -0.141 NA
ATOM      8  S   UNL d   1     -57.358-101.326 -43.859  0.00  0.00    -0.042 SA
ATOM      9  N   UNL d   1     -56.132-102.270 -43.617  0.00  0.00    -0.200 NA
ATOM     10  C   UNL d   1     -55.391-102.046 -43.333  0.00  0.00     0.184 A 
ATOM     11  C   UNL d   1     -54.741-102.541 -43.204  0.00  0.00     0.044 C 
ENDBRANCH   1   2
BRANCH   1  12
ATOM     12  N   UNL d   1     -58.253 -99.827 -44.625  0.00  0.00    -0.301 N 
ATOM     13  C   UNL d   1     -59.037 -99.897 -44.858  0.00  0.00     0.100 A 
ATOM     14  C   UNL d   1     -59.258 -99.715 -45.635  0.00  0.00     0.100 A 
ATOM     15  N   UNL d   1     -58.695 -99.460 -46.188  0.00  0.00    -0.299 N 
ATOM     16  C   UNL d   1     -57.911 -99.393 -45.943  0.00  0.00     0.100 A 
ATOM     17  C   UNL d   1     -57.683 -99.574 -45.168  0.00  0.00     0.100 A 
BRANCH  15  18
ATOM     18  C   UNL d   1     -58.922 -99.283 -46.948  0.00  0.00     0.092 A 
ATOM     19  C   UNL d   1     -58.374 -99.221 -47.552  0.00  0.00     0.156 A 
ATOM     20  F   UNL d   1     -57.565 -99.343 -47.380  0.00  0.00    -0.203 F 
ATOM     21  C   UNL d   1     -58.613 -99.042 -48.319  0.00  0.00     0.031 A 
ATOM     22  C   UNL d   1     -59.411 -98.923 -48.480  0.00  0.00     0.002 A 
ATOM     23  C   UNL d   1     -59.959 -98.985 -47.876  0.00  0.00     0.002 A 
ATOM     24  C   UNL d   1     -59.723 -99.163 -47.115  0.00  0.00     0.020 A 
ENDBRANCH  15  18
ENDBRANCH   1  12
BRANCH   1  25
ATOM     25  C   UNL d   1     -58.437 -99.695 -43.213  0.00  0.00     0.017 A 
ATOM     26  C   UNL d   1     -58.084 -99.136 -42.736  0.00  0.00     0.002 A 
ATOM     27  C   UNL d   1     -58.493 -98.834 -42.110  0.00  0.00     0.000 A 
ATOM     28  C   UNL d   1     -59.276 -99.086 -41.944  0.00  0.00     0.000 A 
ATOM     29  C   UNL d   1     -59.619 -99.639 -42.420  0.00  0.00     0.000 A 
ATOM     30  C   UNL d   1     -59.209 -99.956 -43.065  0.00  0.00     0.002 A 
ENDBRANCH   1  25
TORSDOF 4
ENDMDL
