MODEL 1
REMARK VINA RESULT:      -7.3      0.000      0.000
REMARK  1 active torsions:
REMARK  status: ('A' for Active; 'I' for Inactive)
REMARK    1  A    between atoms: C_6  and  C_1 
ROOT
ATOM      1  C   UNL d   1      53.543  32.092  53.433  0.00  0.00     0.168 A 
ATOM      2  N   UNL d   1      53.003  32.419  52.872  0.00  0.00    -0.142 NA
ATOM      3  C   UNL d   1      53.429  31.282  53.461  0.00  0.00     0.045 A 
ATOM      4  N   UNL d   1      52.555  31.783  52.558  0.00  0.00    -0.148 NA
ATOM      5  C   UNL d   1      52.815  31.079  52.919  0.00  0.00     0.105 A 
ATOM      6  C   UNL d   1      53.682  30.586  53.815  0.00  0.00     0.003 A 
ATOM      7  C   UNL d   1      52.699  30.254  52.948  0.00  0.00     0.021 A 
ATOM      8  C   UNL d   1      53.257  29.947  53.523  0.00  0.00     0.002 A 
ENDROOT
BRANCH   1   9
ATOM      9  C   UNL d   1      54.083  32.512  53.870  0.00  0.00     0.231 C 
ATOM     10  O   UNL d   1      54.815  32.723  53.552  0.00  0.00    -0.643 OA
ATOM     11  O   UNL d   1      53.950  32.759  54.651  0.00  0.00    -0.643 OA
ENDBRANCH   1   9
TORSDOF 1
ENDMDL
MODEL 2
REMARK VINA RESULT:      -7.0      1.477      2.233
REMARK  1 active torsions:
REMARK  status: ('A' for Active; 'I' for Inactive)
REMARK    1  A    between atoms: C_6  and  C_1 
ROOT
ATOM      1  C   UNL d   1      53.035  31.075  53.154  0.00  0.00     0.168 A 
ATOM      2  N   UNL d   1      52.608  31.420  52.514  0.00  0.00    -0.142 NA
ATOM      3  C   UNL d   1      53.394  31.674  53.581  0.00  0.00     0.045 A 
ATOM      4  N   UNL d   1      52.716  32.251  52.562  0.00  0.00    -0.148 NA
ATOM      5  C   UNL d   1      53.201  32.412  53.220  0.00  0.00     0.105 A 
ATOM      6  C   UNL d   1      53.871  31.837  54.228  0.00  0.00     0.003 A 
ATOM      7  C   UNL d   1      53.566  33.022  53.654  0.00  0.00     0.021 A 
ATOM      8  C   UNL d   1      53.992  32.646  54.297  0.00  0.00     0.002 A 
ENDROOT
BRANCH   1   9
ATOM      9  C   UNL d   1      53.082  30.281  53.318  0.00  0.00     0.231 C 
ATOM     10  O   UNL d   1      52.408  29.846  53.510  0.00  0.00    -0.643 OA
ATOM     11  O   UNL d   1      53.792  29.850  53.307  0.00  0.00    -0.643 OA
ENDBRANCH   1   9
TORSDOF 1
ENDMDL
MODEL 3
REMARK VINA RESULT:      -6.9      2.666      3.163
REMARK  1 active torsions:
REMARK  status: ('A' for Active; 'I' for Inactive)
REMARK    1  A    between atoms: C_6  and  C_1 
ROOT
ATOM      1  C   UNL d   1      53.046  34.426  54.131  0.00  0.00     0.168 A 
ATOM      2  N   UNL d   1      53.230  35.018  54.703  0.00  0.00    -0.142 NA
ATOM      3  C   UNL d   1      53.493  33.760  54.292  0.00  0.00     0.045 A 
ATOM      4  N   UNL d   1      53.806  34.692  55.221  0.00  0.00    -0.148 NA
ATOM      5  C   UNL d   1      53.970  33.916  54.970  0.00  0.00     0.105 A 
ATOM      6  C   UNL d   1      53.659  32.994  54.047  0.00  0.00     0.003 A 
ATOM      7  C   UNL d   1      54.426  33.237  55.134  0.00  0.00     0.021 A 
ATOM      8  C   UNL d   1      54.220  32.654  54.539  0.00  0.00     0.002 A 
ENDROOT
BRANCH   1   9
ATOM      9  C   UNL d   1      52.514  34.507  53.522  0.00  0.00     0.231 C 
ATOM     10  O   UNL d   1      52.727  34.879  52.817  0.00  0.00    -0.643 OA
ATOM     11  O   UNL d   1      51.732  34.229  53.556  0.00  0.00    -0.643 OA
ENDBRANCH   1   9
TORSDOF 1
ENDMDL
MODEL 4
REMARK VINA RESULT:      -6.8      1.528      2.323
REMARK  1 active torsions:
REMARK  status: ('A' for Active; 'I' for Inactive)
REMARK    1  A    between atoms: C_6  and  C_1 
ROOT
ATOM      1  C   UNL d   1      53.394  32.717  53.516  0.00  0.00     0.168 A 
ATOM      2  N   UNL d   1      53.078  32.070  53.076  0.00  0.00    -0.142 NA
ATOM      3  C   UNL d   1      52.930  33.376  53.377  0.00  0.00     0.045 A 
ATOM      4  N   UNL d   1      52.405  32.355  52.662  0.00  0.00    -0.148 NA
ATOM      5  C   UNL d   1      52.311  33.162  52.846  0.00  0.00     0.105 A 
ATOM      6  C   UNL d   1      52.834  34.172  53.556  0.00  0.00     0.003 A 
ATOM      7  C   UNL d   1      51.839  33.834  52.705  0.00  0.00     0.021 A 
ATOM      8  C   UNL d   1      52.180  34.475  53.162  0.00  0.00     0.002 A 
ENDROOT
BRANCH   1   9
ATOM      9  C   UNL d   1      54.048  32.687  53.996  0.00  0.00     0.231 C 
ATOM     10  O   UNL d   1      54.805  32.803  53.692  0.00  0.00    -0.643 OA
ATOM     11  O   UNL d   1      54.012  32.541  54.813  0.00  0.00    -0.643 OA
ENDBRANCH   1   9
TORSDOF 1
ENDMDL
