MODEL 1
REMARK VINA RESULT:      -3.0      0.000      0.000
REMARK  6 active torsions:
REMARK  status: ('A' for Active; 'I' for Inactive)
REMARK    1  A    between atoms: C_2  and  S_1 
REMARK    2  A    between atoms: N_5  and  S_1 
REMARK    3  A    between atoms: C_15  and  N_5 
REMARK    4  A    between atoms: C_7  and  C_6 
REMARK    5  A    between atoms: C_20  and  C_15 
REMARK    6  A    between atoms: O_19  and  C_20 
ROOT
ATOM      1  C   UNL d   1      32.347  22.282 -20.854  0.00  0.00     0.105 A 
ATOM      2  C   UNL d   1      32.637  20.860 -21.652  0.00  0.00     0.000 A 
ATOM      3  C   UNL d   1      31.997  21.580 -20.588  0.00  0.00     0.013 A 
ATOM      4  C   UNL d   1      32.839  22.273 -21.516  0.00  0.00     0.013 A 
ATOM      5  C   UNL d   1      32.984  21.559 -21.916  0.00  0.00     0.001 A 
ATOM      6  C   UNL d   1      32.142  20.867 -20.988  0.00  0.00     0.001 A 
ENDROOT
BRANCH   1   7
ATOM      7  S   UNL d   1      32.207  22.995 -20.461  0.00  0.00     0.285 S 
ATOM      8  O   UNL d   1      32.072  23.702 -20.064  0.00  0.00    -0.198 OA
ATOM      9  O   UNL d   1      31.785  23.276 -21.105  0.00  0.00    -0.198 OA
BRANCH   7  10
ATOM     10  N   UNL d   1      32.631  22.719 -19.808  0.00  0.00    -0.155 NA
BRANCH  10  11
ATOM     11  C   UNL d   1      32.797  23.224 -19.176  0.00  0.00     0.138 C 
BRANCH  11  12
ATOM     12  C   UNL d   1      32.981  22.906 -18.437  0.00  0.00     0.138 C 
BRANCH  12  13
ATOM     13  O   UNL d   1      32.764  23.319 -17.743  0.00  0.00    -0.325 OA
ATOM     14  C   UNL d   1      33.121  23.129 -17.038  0.00  0.00     0.182 C 
ENDBRANCH  12  13
ENDBRANCH  11  12
ENDBRANCH  10  11
ENDBRANCH   7  10
ENDBRANCH   1   7
BRANCH   2  15
ATOM     15  C   UNL d   1      32.785  20.157 -22.054  0.00  0.00     0.000 A 
ATOM     16  C   UNL d   1      32.624  20.108 -22.861  0.00  0.00     0.001 A 
ATOM     17  C   UNL d   1      32.766  19.417 -23.274  0.00  0.00     0.011 A 
ATOM     18  C   UNL d   1      33.078  18.753 -22.874  0.00  0.00     0.058 A 
ATOM     19  C   UNL d   1      33.240  18.801 -22.067  0.00  0.00     0.011 A 
ATOM     20 CL   UNL d   1      33.223  18.058 -23.280  0.00  0.00    -0.082 Cl
ATOM     21  C   UNL d   1      33.094  19.503 -21.657  0.00  0.00     0.001 A 
ENDBRANCH   2  15
TORSDOF 6
ENDMDL
MODEL 2
REMARK VINA RESULT:      -2.8      4.801      6.186
REMARK  6 active torsions:
REMARK  status: ('A' for Active; 'I' for Inactive)
REMARK    1  A    between atoms: C_2  and  S_1 
REMARK    2  A    between atoms: N_5  and  S_1 
REMARK    3  A    between atoms: C_15  and  N_5 
REMARK    4  A    between atoms: C_7  and  C_6 
REMARK    5  A    between atoms: C_20  and  C_15 
REMARK    6  A    between atoms: O_19  and  C_20 
ROOT
ATOM      1  C   UNL d   1      31.705  17.173 -24.310  0.00  0.00     0.105 A 
ATOM      2  C   UNL d   1      30.165  16.601 -24.089  0.00  0.00     0.000 A 
ATOM      3  C   UNL d   1      31.057  17.616 -24.575  0.00  0.00     0.013 A 
ATOM      4  C   UNL d   1      31.583  16.447 -23.936  0.00  0.00     0.013 A 
ATOM      5  C   UNL d   1      30.811  16.161 -23.826  0.00  0.00     0.001 A 
ATOM      6  C   UNL d   1      30.285  17.330 -24.464  0.00  0.00     0.001 A 
ENDROOT
BRANCH   1   7
ATOM      7  S   UNL d   1      32.475  17.451 -24.416  0.00  0.00     0.285 S 
ATOM      8  O   UNL d   1      33.241  17.733 -24.516  0.00  0.00    -0.198 OA
ATOM      9  O   UNL d   1      32.552  17.003 -25.097  0.00  0.00    -0.198 OA
BRANCH   7  10
ATOM     10  N   UNL d   1      32.405  17.907 -23.731  0.00  0.00    -0.155 NA
BRANCH  10  11
ATOM     11  C   UNL d   1      33.047  18.352 -23.460  0.00  0.00     0.138 C 
BRANCH  11  12
ATOM     12  C   UNL d   1      33.115  18.522 -22.655  0.00  0.00     0.138 C 
BRANCH  12  13
ATOM     13  O   UNL d   1      32.907  19.280 -22.373  0.00  0.00    -0.325 OA
ATOM     14  C   UNL d   1      33.212  19.540 -21.666  0.00  0.00     0.182 C 
ENDBRANCH  12  13
ENDBRANCH  11  12
ENDBRANCH  10  11
ENDBRANCH   7  10
ENDBRANCH   1   7
BRANCH   2  15
ATOM     15  C   UNL d   1      29.404  16.310 -23.976  0.00  0.00     0.000 A 
ATOM     16  C   UNL d   1      28.952  16.590 -23.346  0.00  0.00     0.001 A 
ATOM     17  C   UNL d   1      28.193  16.311 -23.220  0.00  0.00     0.011 A 
ATOM     18  C   UNL d   1      27.873  15.737 -23.735  0.00  0.00     0.058 A 
ATOM     19  C   UNL d   1      28.325  15.457 -24.366  0.00  0.00     0.011 A 
ATOM     20 CL   UNL d   1      27.115  15.453 -23.617  0.00  0.00    -0.082 Cl
ATOM     21  C   UNL d   1      29.090  15.743 -24.486  0.00  0.00     0.001 A 
ENDBRANCH   2  15
TORSDOF 6
ENDMDL
MODEL 3
REMARK VINA RESULT:      -2.1      0.732      1.057
REMARK  6 active torsions:
REMARK  status: ('A' for Active; 'I' for Inactive)
REMARK    1  A    between atoms: C_2  and  S_1 
REMARK    2  A    between atoms: N_5  and  S_1 
REMARK    3  A    between atoms: C_15  and  N_5 
REMARK    4  A    between atoms: C_7  and  C_6 
REMARK    5  A    between atoms: C_20  and  C_15 
REMARK    6  A    between atoms: O_19  and  C_20 
ROOT
ATOM      1  C   UNL d   1      32.751  21.899 -21.600  0.00  0.00     0.105 A 
ATOM      2  C   UNL d   1      32.911  20.402 -22.292  0.00  0.00     0.000 A 
ATOM      3  C   UNL d   1      32.419  21.236 -21.231  0.00  0.00     0.013 A 
ATOM      4  C   UNL d   1      33.160  21.814 -22.311  0.00  0.00     0.013 A 
ATOM      5  C   UNL d   1      33.240  21.063 -22.658  0.00  0.00     0.001 A 
ATOM      6  C   UNL d   1      32.499  20.485 -21.578  0.00  0.00     0.001 A 
ENDROOT
BRANCH   1   7
ATOM      7  S   UNL d   1      32.675  22.648 -21.261  0.00  0.00     0.285 S 
ATOM      8  O   UNL d   1      32.602  23.391 -20.917  0.00  0.00    -0.198 OA
ATOM      9  O   UNL d   1      32.427  22.956 -21.978  0.00  0.00    -0.198 OA
BRANCH   7  10
ATOM     10  N   UNL d   1      32.925  22.345 -20.534  0.00  0.00    -0.155 NA
BRANCH  10  11
ATOM     11  C   UNL d   1      33.174  22.855 -19.934  0.00  0.00     0.138 C 
BRANCH  11  12
ATOM     12  C   UNL d   1      33.109  22.621 -19.145  0.00  0.00     0.138 C 
BRANCH  12  13
ATOM     13  O   UNL d   1      33.241  23.177 -18.536  0.00  0.00    -0.325 OA
ATOM     14  C   UNL d   1      33.015  22.998 -17.776  0.00  0.00     0.182 C 
ENDBRANCH  12  13
ENDBRANCH  11  12
ENDBRANCH  10  11
ENDBRANCH   7  10
ENDBRANCH   1   7
BRANCH   2  15
ATOM     15  C   UNL d   1      32.994  19.661 -22.641  0.00  0.00     0.000 A 
ATOM     16  C   UNL d   1      32.915  18.983 -22.180  0.00  0.00     0.001 A 
ATOM     17  C   UNL d   1      32.995  18.240 -22.513  0.00  0.00     0.011 A 
ATOM     18  C   UNL d   1      33.159  18.168 -23.329  0.00  0.00     0.058 A 
ATOM     19  C   UNL d   1      33.239  18.847 -23.791  0.00  0.00     0.011 A 
ATOM     20 CL   UNL d   1      33.241  17.429 -23.670  0.00  0.00    -0.082 Cl
ATOM     21  C   UNL d   1      33.156  19.593 -23.447  0.00  0.00     0.001 A 
ENDBRANCH   2  15
TORSDOF 6
ENDMDL
MODEL 4
REMARK VINA RESULT:      -0.6      1.880      2.883
REMARK  6 active torsions:
REMARK  status: ('A' for Active; 'I' for Inactive)
REMARK    1  A    between atoms: C_2  and  S_1 
REMARK    2  A    between atoms: N_5  and  S_1 
REMARK    3  A    between atoms: C_15  and  N_5 
REMARK    4  A    between atoms: C_7  and  C_6 
REMARK    5  A    between atoms: C_20  and  C_15 
REMARK    6  A    between atoms: O_19  and  C_20 
ROOT
ATOM      1  C   UNL d   1      33.122  20.382 -23.022  0.00  0.00     0.105 A 
ATOM      2  C   UNL d   1      33.046  18.743 -23.254  0.00  0.00     0.000 A 
ATOM      3  C   UNL d   1      33.241  20.066 -23.778  0.00  0.00     0.013 A 
ATOM      4  C   UNL d   1      32.966  19.882 -22.385  0.00  0.00     0.013 A 
ATOM      5  C   UNL d   1      32.928  19.060 -22.501  0.00  0.00     0.001 A 
ATOM      6  C   UNL d   1      33.202  19.244 -23.895  0.00  0.00     0.001 A 
ENDROOT
BRANCH   1   7
ATOM      7  S   UNL d   1      33.158  21.198 -22.899  0.00  0.00     0.285 S 
ATOM      8  O   UNL d   1      33.194  22.009 -22.768  0.00  0.00    -0.198 OA
ATOM      9  O   UNL d   1      33.239  21.324 -23.704  0.00  0.00    -0.198 OA
BRANCH   7  10
ATOM     10  N   UNL d   1      33.077  21.079 -22.086  0.00  0.00    -0.155 NA
BRANCH  10  11
ATOM     11  C   UNL d   1      33.240  21.693 -21.557  0.00  0.00     0.138 C 
BRANCH  11  12
ATOM     12  C   UNL d   1      32.788  21.772 -20.871  0.00  0.00     0.138 C 
BRANCH  12  13
ATOM     13  O   UNL d   1      33.109  22.165 -20.207  0.00  0.00    -0.325 OA
ATOM     14  C   UNL d   1      32.643  22.288 -19.553  0.00  0.00     0.182 C 
ENDBRANCH  12  13
ENDBRANCH  11  12
ENDBRANCH  10  11
ENDBRANCH   7  10
ENDBRANCH   1   7
BRANCH   2  15
ATOM     15  C   UNL d   1      33.006  17.928 -23.361  0.00  0.00     0.000 A 
ATOM     16  C   UNL d   1      32.730  17.625 -24.076  0.00  0.00     0.001 A 
ATOM     17  C   UNL d   1      32.685  16.818 -24.198  0.00  0.00     0.011 A 
ATOM     18  C   UNL d   1      32.922  16.294 -23.591  0.00  0.00     0.058 A 
ATOM     19  C   UNL d   1      33.198  16.597 -22.875  0.00  0.00     0.011 A 
ATOM     20 CL   UNL d   1      32.880  15.485 -23.705  0.00  0.00    -0.082 Cl
ATOM     21  C   UNL d   1      33.241  17.414 -22.760  0.00  0.00     0.001 A 
ENDBRANCH   2  15
TORSDOF 6
ENDMDL
