MODEL 1
REMARK VINA RESULT:      58.0      0.000      0.000
REMARK  5 active torsions:
REMARK  status: ('A' for Active; 'I' for Inactive)
REMARK    1  A    between atoms: C_10  and  C_3 
REMARK    2  A    between atoms: N_12  and  C_4 
REMARK    3  A    between atoms: N_11  and  C_15 
REMARK    4  A    between atoms: C_14  and  N_12 
REMARK    5  A    between atoms: C_15  and  C_14 
ROOT
ATOM      1  C   UNL d   1     -57.073 -98.830 -44.356  0.00  0.00     0.167 A 
ATOM      2  N   UNL d   1     -56.602 -98.863 -43.674  0.00  0.00    -0.195 N 
ATOM      3  C   UNL d   1     -57.854 -98.839 -44.117  0.00  0.00     0.057 A 
ATOM      4  C   UNL d   1     -55.785 -98.862 -43.743  0.00  0.00     0.167 A 
ATOM      5  N   UNL d   1     -57.104 -98.892 -43.030  0.00  0.00    -0.161 NA
ATOM      6  N   UNL d   1     -56.717 -98.796 -45.094  0.00  0.00    -0.227 NA
ATOM      7  C   UNL d   1     -55.432 -98.828 -44.491  0.00  0.00     0.058 A 
ATOM      8  C   UNL d   1     -57.867 -98.878 -43.293  0.00  0.00     0.124 A 
ATOM      9  C   UNL d   1     -55.892 -98.796 -45.158  0.00  0.00     0.086 A 
ATOM     10  C   UNL d   1     -55.523 -98.762 -45.901  0.00  0.00     0.021 C 
ENDROOT
BRANCH   4  11
ATOM     11  N   UNL d   1     -55.315 -98.895 -43.062  0.00  0.00    -0.224 NA
BRANCH  11  12
ATOM     12  C   UNL d   1     -54.902 -99.581 -42.885  0.00  0.00     0.120 C 
BRANCH  12  13
ATOM     13  C   UNL d   1     -54.713 -99.756 -42.098  0.00  0.00     0.101 C 
BRANCH  13  14
ATOM     14  N   UNL d   1     -54.717-100.538 -41.832  0.00  0.00    -0.298 N 
ATOM     15  C   UNL d   1     -54.728-100.688 -41.020  0.00  0.00     0.107 A 
ATOM     16  C   UNL d   1     -54.732-101.475 -40.748  0.00  0.00     0.142 A 
ATOM     17  O   UNL d   1     -54.726-102.094 -41.283  0.00  0.00    -0.300 OA
ATOM     18  C   UNL d   1     -54.716-101.938 -42.101  0.00  0.00     0.142 A 
ATOM     19  C   UNL d   1     -54.711-101.161 -42.371  0.00  0.00     0.107 A 
ENDBRANCH  13  14
ENDBRANCH  12  13
ENDBRANCH  11  12
ENDBRANCH   4  11
BRANCH   3  20
ATOM     20  C   UNL d   1     -58.463 -98.812 -44.675  0.00  0.00     0.004 A 
ATOM     21  C   UNL d   1     -58.275 -98.785 -45.484  0.00  0.00     0.000 A 
ATOM     22  C   UNL d   1     -58.871 -98.758 -46.041  0.00  0.00     0.000 A 
ATOM     23  C   UNL d   1     -59.668 -98.756 -45.801  0.00  0.00     0.000 A 
ATOM     24  C   UNL d   1     -59.853 -98.782 -45.005  0.00  0.00     0.000 A 
ATOM     25  C   UNL d   1     -59.249 -98.810 -44.443  0.00  0.00     0.000 A 
ENDBRANCH   3  20
TORSDOF 5
ENDMDL
MODEL 2
REMARK VINA RESULT:      58.5      3.156      6.436
REMARK  5 active torsions:
REMARK  status: ('A' for Active; 'I' for Inactive)
REMARK    1  A    between atoms: C_10  and  C_3 
REMARK    2  A    between atoms: N_12  and  C_4 
REMARK    3  A    between atoms: N_11  and  C_15 
REMARK    4  A    between atoms: C_14  and  N_12 
REMARK    5  A    between atoms: C_15  and  C_14 
ROOT
ATOM      1  C   UNL d   1     -55.992-102.840 -39.258  0.00  0.00     0.167 A 
ATOM      2  N   UNL d   1     -55.507-102.857 -39.931  0.00  0.00    -0.195 N 
ATOM      3  C   UNL d   1     -55.504-102.839 -38.603  0.00  0.00     0.057 A 
ATOM      4  C   UNL d   1     -55.847-102.861 -40.677  0.00  0.00     0.167 A 
ATOM      5  N   UNL d   1     -54.732-102.866 -39.675  0.00  0.00    -0.161 NA
ATOM      6  N   UNL d   1     -56.807-102.828 -39.345  0.00  0.00    -0.227 NA
ATOM      7  C   UNL d   1     -56.671-102.849 -40.759  0.00  0.00     0.058 A 
ATOM      8  C   UNL d   1     -54.722-102.856 -38.869  0.00  0.00     0.124 A 
ATOM      9  C   UNL d   1     -57.145-102.833 -40.101  0.00  0.00     0.086 A 
ATOM     10  C   UNL d   1     -57.970-102.821 -40.198  0.00  0.00     0.021 C 
ENDROOT
BRANCH   4  11
ATOM     11  N   UNL d   1     -55.363-102.878 -41.349  0.00  0.00    -0.224 NA
BRANCH  11  12
ATOM     12  C   UNL d   1     -55.180-102.178 -41.737  0.00  0.00     0.120 C 
BRANCH  12  13
ATOM     13  C   UNL d   1     -54.729-102.199 -42.431  0.00  0.00     0.101 C 
BRANCH  13  14
ATOM     14  N   UNL d   1     -54.924-101.714 -43.070  0.00  0.00    -0.298 N 
ATOM     15  C   UNL d   1     -54.882-100.895 -42.983  0.00  0.00     0.107 A 
ATOM     16  C   UNL d   1     -55.078-100.402 -43.625  0.00  0.00     0.142 A 
ATOM     17  O   UNL d   1     -55.311-100.730 -44.338  0.00  0.00    -0.300 OA
ATOM     18  C   UNL d   1     -55.352-101.558 -44.422  0.00  0.00     0.142 A 
ATOM     19  C   UNL d   1     -55.159-102.045 -43.787  0.00  0.00     0.107 A 
ENDBRANCH  13  14
ENDBRANCH  12  13
ENDBRANCH  11  12
ENDBRANCH   4  11
BRANCH   3  20
ATOM     20  C   UNL d   1     -55.825-102.824 -37.842  0.00  0.00     0.004 A 
ATOM     21  C   UNL d   1     -55.319-102.794 -37.184  0.00  0.00     0.000 A 
ATOM     22  C   UNL d   1     -55.630-102.779 -36.430  0.00  0.00     0.000 A 
ATOM     23  C   UNL d   1     -56.454-102.794 -36.317  0.00  0.00     0.000 A 
ATOM     24  C   UNL d   1     -56.954-102.823 -36.964  0.00  0.00     0.000 A 
ATOM     25  C   UNL d   1     -56.637-102.838 -37.727  0.00  0.00     0.000 A 
ENDBRANCH   3  20
TORSDOF 5
ENDMDL
