MODEL 1
REMARK VINA RESULT:       0.1      0.000      0.000
REMARK  5 active torsions:
REMARK  status: ('A' for Active; 'I' for Inactive)
REMARK    1  A    between atoms: C_7  and  C_1 
REMARK    2  A    between atoms: C_8  and  C_2 
REMARK    3  A    between atoms: O_16  and  C_8 
REMARK    4  A    between atoms: O_17  and  C_12 
REMARK    5  A    between atoms: C_21  and  O_16 
ROOT
ATOM      1  C   UNL d   1      31.204  16.865 -24.166  0.00  0.00     0.069 A 
ATOM      2  C   UNL d   1      31.279  17.669 -24.000  0.00  0.00     0.166 A 
ATOM      3  C   UNL d   1      30.453  16.524 -24.221  0.00  0.00     0.200 A 
ATOM      4  O   UNL d   1      30.609  18.144 -23.887  0.00  0.00    -0.301 OA
ATOM      5  C   UNL d   1      29.782  16.990 -24.110  0.00  0.00     0.062 A 
ATOM      6  C   UNL d   1      29.861  17.794 -23.944  0.00  0.00     0.106 A 
ATOM      7  C   UNL d   1      29.177  18.266 -23.831  0.00  0.00     0.067 A 
ATOM      8  C   UNL d   1      29.027  16.649 -24.165  0.00  0.00     0.009 A 
ATOM      9  O   UNL d   1      30.370  15.720 -24.387  0.00  0.00    -0.286 OA
ATOM     10  C   UNL d   1      28.431  17.924 -23.887  0.00  0.00     0.198 A 
ATOM     11  C   UNL d   1      28.355  17.112 -24.054  0.00  0.00     0.042 A 
ATOM     12  O   UNL d   1      27.759  18.386 -23.776  0.00  0.00    -0.286 OA
ENDROOT
BRANCH   1  13
ATOM     13  C   UNL d   1      31.877  16.403 -24.277  0.00  0.00     0.028 A 
ATOM     14  C   UNL d   1      32.136  15.917 -23.662  0.00  0.00     0.094 A 
ATOM     15  C   UNL d   1      32.809  15.454 -23.772  0.00  0.00     0.024 A 
ATOM     16  C   UNL d   1      33.223  15.474 -24.490  0.00  0.00     0.002 A 
ATOM     17  C   UNL d   1      32.955  15.963 -25.097  0.00  0.00     0.000 A 
ATOM     18  C   UNL d   1      32.280  16.430 -24.993  0.00  0.00     0.002 A 
BRANCH  14  19
ATOM     19  O   UNL d   1      31.728  15.897 -22.954  0.00  0.00    -0.328 OA
ATOM     20  C   UNL d   1      32.043  15.483 -22.314  0.00  0.00     0.181 C 
ENDBRANCH  14  19
ENDBRANCH   1  13
BRANCH   2  21
ATOM     21  C   UNL d   1      32.034  18.011 -23.945  0.00  0.00     0.323 C 
ATOM     22  O   UNL d   1      32.471  17.927 -23.247  0.00  0.00    -0.257 OA
BRANCH  21  23
ATOM     23  O   UNL d   1      32.346  18.432 -24.583  0.00  0.00    -0.270 OA
BRANCH  23  24
ATOM     24  C   UNL d   1      32.642  19.184 -24.464  0.00  0.00     0.126 C 
ATOM     25  C   UNL d   1      32.965  19.606 -25.094  0.00  0.00     0.029 C 
ENDBRANCH  23  24
ENDBRANCH  21  23
ENDBRANCH   2  21
TORSDOF 5
ENDMDL
MODEL 2
REMARK VINA RESULT:       0.5      1.049      2.460
REMARK  5 active torsions:
REMARK  status: ('A' for Active; 'I' for Inactive)
REMARK    1  A    between atoms: C_7  and  C_1 
REMARK    2  A    between atoms: C_8  and  C_2 
REMARK    3  A    between atoms: O_16  and  C_8 
REMARK    4  A    between atoms: O_17  and  C_12 
REMARK    5  A    between atoms: C_21  and  O_16 
ROOT
ATOM      1  C   UNL d   1      31.296  17.018 -24.035  0.00  0.00     0.069 A 
ATOM      2  C   UNL d   1      31.412  16.277 -23.691  0.00  0.00     0.166 A 
ATOM      3  C   UNL d   1      30.528  17.299 -24.159  0.00  0.00     0.200 A 
ATOM      4  O   UNL d   1      30.767  15.807 -23.466  0.00  0.00    -0.301 OA
ATOM      5  C   UNL d   1      29.882  16.836 -23.937  0.00  0.00     0.062 A 
ATOM      6  C   UNL d   1      30.002  16.097 -23.593  0.00  0.00     0.106 A 
ATOM      7  C   UNL d   1      29.343  15.629 -23.369  0.00  0.00     0.067 A 
ATOM      8  C   UNL d   1      29.110  17.118 -24.061  0.00  0.00     0.009 A 
ATOM      9  O   UNL d   1      30.404  18.038 -24.503  0.00  0.00    -0.286 OA
ATOM     10  C   UNL d   1      28.580  15.911 -23.493  0.00  0.00     0.198 A 
ATOM     11  C   UNL d   1      28.463  16.659 -23.840  0.00  0.00     0.042 A 
ATOM     12  O   UNL d   1      27.933  15.453 -23.273  0.00  0.00    -0.286 OA
ENDROOT
BRANCH   1  13
ATOM     13  C   UNL d   1      31.944  17.476 -24.255  0.00  0.00     0.028 A 
ATOM     14  C   UNL d   1      32.104  18.171 -23.841  0.00  0.00     0.094 A 
ATOM     15  C   UNL d   1      32.752  18.630 -24.060  0.00  0.00     0.024 A 
ATOM     16  C   UNL d   1      33.240  18.399 -24.690  0.00  0.00     0.002 A 
ATOM     17  C   UNL d   1      33.070  17.702 -25.097  0.00  0.00     0.000 A 
ATOM     18  C   UNL d   1      32.421  17.237 -24.881  0.00  0.00     0.002 A 
BRANCH  14  19
ATOM     19  O   UNL d   1      31.624  18.399 -23.221  0.00  0.00    -0.328 OA
ATOM     20  C   UNL d   1      31.886  18.976 -22.692  0.00  0.00     0.181 C 
ENDBRANCH  14  19
ENDBRANCH   1  13
BRANCH   2  21
ATOM     21  C   UNL d   1      32.184  15.995 -23.567  0.00  0.00     0.323 C 
ATOM     22  O   UNL d   1      32.584  15.616 -24.184  0.00  0.00    -0.257 OA
BRANCH  21  23
ATOM     23  O   UNL d   1      32.547  16.094 -22.833  0.00  0.00    -0.270 OA
BRANCH  23  24
ATOM     24  C   UNL d   1      32.592  15.464 -22.317  0.00  0.00     0.126 C 
ATOM     25  C   UNL d   1      33.141  15.469 -21.702  0.00  0.00     0.029 C 
ENDBRANCH  23  24
ENDBRANCH  21  23
ENDBRANCH   2  21
TORSDOF 5
ENDMDL
