MODEL 1
REMARK VINA RESULT:       0.8      0.000      0.000
REMARK  6 active torsions:
REMARK  status: ('A' for Active; 'I' for Inactive)
REMARK    1  A    between atoms: C_7  and  S_1 
REMARK    2  A    between atoms: N_9  and  S_1 
REMARK    3  A    between atoms: C_20  and  N_2 
REMARK    4  A    between atoms: C_10  and  N_9 
REMARK    5  A    between atoms: O_24  and  C_13 
REMARK    6  A    between atoms: O_25  and  C_19 
ROOT
ATOM      1  N   UNL d   1      60.095  -0.694  29.142  0.00  0.00    -0.273 N 
ATOM      2  C   UNL d   1      59.699  -1.689  29.039  0.00  0.00     0.265 A 
ATOM      3  C   UNL d   1      59.556  -0.335  29.629  0.00  0.00     0.067 A 
ATOM      4  C   UNL d   1      58.976  -0.885  29.812  0.00  0.00     0.021 A 
ATOM      5  C   UNL d   1      59.016  -1.653  29.504  0.00  0.00     0.058 A 
ATOM      6  C   UNL d   1      58.297   0.099  30.621  0.00  0.00     0.105 A 
ATOM      7  C   UNL d   1      58.346  -0.681  30.303  0.00  0.00     0.014 A 
ATOM      8  C   UNL d   1      59.518   0.431  29.935  0.00  0.00     0.018 A 
ATOM      9  C   UNL d   1      58.877   0.649  30.439  0.00  0.00     0.014 A 
ATOM     10  O   UNL d   1      59.896  -2.397  28.649  0.00  0.00    -0.267 OA
ATOM     11  C   UNL d   1      58.439  -2.200  29.685  0.00  0.00     0.005 A 
ATOM     12  C   UNL d   1      57.768  -1.228  30.485  0.00  0.00     0.001 A 
ATOM     13  C   UNL d   1      57.801  -1.999  30.181  0.00  0.00     0.000 A 
ENDROOT
BRANCH   6  14
ATOM     14  S   UNL d   1      57.665   0.306  31.115  0.00  0.00     0.285 S 
ATOM     15  O   UNL d   1      57.252   0.607  30.462  0.00  0.00    -0.198 OA
ATOM     16  O   UNL d   1      58.077   0.005  31.773  0.00  0.00    -0.198 OA
BRANCH  14  17
ATOM     17  N   UNL d   1      57.041   0.510  31.609  0.00  0.00    -0.156 NA
BRANCH  17  18
ATOM     18  C   UNL d   1      57.125   0.450  32.418  0.00  0.00     0.116 A 
ATOM     19  C   UNL d   1      56.512   0.163  32.863  0.00  0.00     0.114 A 
ATOM     20  C   UNL d   1      56.592   0.101  33.674  0.00  0.00     0.050 A 
ATOM     21  C   UNL d   1      57.275   0.321  34.055  0.00  0.00     0.096 A 
ATOM     22  C   UNL d   1      57.902   0.617  33.576  0.00  0.00     0.026 A 
ATOM     23  C   UNL d   1      57.827   0.681  32.766  0.00  0.00     0.024 A 
BRANCH  19  24
ATOM     24  O   UNL d   1      55.799  -0.069  32.490  0.00  0.00    -0.327 OA
ATOM     25  C   UNL d   1      55.103  -0.159  32.941  0.00  0.00     0.181 C 
ENDBRANCH  19  24
BRANCH  21  26
ATOM     26  O   UNL d   1      57.367   0.261  34.892  0.00  0.00    -0.328 OA
ATOM     27  C   UNL d   1      56.800   0.628  35.393  0.00  0.00     0.181 C 
ENDBRANCH  21  26
ENDBRANCH  17  18
ENDBRANCH  14  17
ENDBRANCH   6  14
BRANCH   1  28
ATOM     28  C   UNL d   1      60.751  -0.263  28.865  0.00  0.00     0.083 C 
ATOM     29  C   UNL d   1      60.648   0.478  28.542  0.00  0.00     0.021 C 
ENDBRANCH   1  28
TORSDOF 6
ENDMDL
MODEL 2
REMARK VINA RESULT:       1.6      3.215      4.505
REMARK  6 active torsions:
REMARK  status: ('A' for Active; 'I' for Inactive)
REMARK    1  A    between atoms: C_7  and  S_1 
REMARK    2  A    between atoms: N_9  and  S_1 
REMARK    3  A    between atoms: C_20  and  N_2 
REMARK    4  A    between atoms: C_10  and  N_9 
REMARK    5  A    between atoms: O_24  and  C_13 
REMARK    6  A    between atoms: O_25  and  C_19 
ROOT
ATOM      1  N   UNL d   1      60.343  -5.269  28.710  0.00  0.00    -0.273 N 
ATOM      2  C   UNL d   1      59.277  -5.397  28.631  0.00  0.00     0.265 A 
ATOM      3  C   UNL d   1      60.430  -4.464  28.681  0.00  0.00     0.067 A 
ATOM      4  C   UNL d   1      59.683  -4.132  28.607  0.00  0.00     0.021 A 
ATOM      5  C   UNL d   1      59.012  -4.616  28.575  0.00  0.00     0.058 A 
ATOM      6  C   UNL d   1      60.270  -2.813  28.594  0.00  0.00     0.105 A 
ATOM      7  C   UNL d   1      59.592  -3.314  28.563  0.00  0.00     0.014 A 
ATOM      8  C   UNL d   1      61.100  -3.984  28.712  0.00  0.00     0.018 A 
ATOM      9  C   UNL d   1      61.017  -3.145  28.668  0.00  0.00     0.014 A 
ATOM     10  O   UNL d   1      58.728  -6.022  28.615  0.00  0.00    -0.267 OA
ATOM     11  C   UNL d   1      58.269  -4.287  28.501  0.00  0.00     0.005 A 
ATOM     12  C   UNL d   1      58.849  -2.984  28.489  0.00  0.00     0.001 A 
ATOM     13  C   UNL d   1      58.171  -3.461  28.456  0.00  0.00     0.000 A 
ENDROOT
BRANCH   6  14
ATOM     14  S   UNL d   1      60.181  -1.991  28.550  0.00  0.00     0.285 S 
ATOM     15  O   UNL d   1      61.000  -1.906  28.456  0.00  0.00    -0.198 OA
ATOM     16  O   UNL d   1      59.358  -2.073  28.645  0.00  0.00    -0.198 OA
BRANCH  14  17
ATOM     17  N   UNL d   1      60.087  -1.176  28.507  0.00  0.00    -0.156 NA
BRANCH  17  18
ATOM     18  C   UNL d   1      60.165  -0.721  29.180  0.00  0.00     0.116 A 
ATOM     19  C   UNL d   1      59.826   0.015  29.205  0.00  0.00     0.114 A 
ATOM     20  C   UNL d   1      59.901   0.474  29.877  0.00  0.00     0.050 A 
ATOM     21  C   UNL d   1      60.308   0.215  30.529  0.00  0.00     0.096 A 
ATOM     22  C   UNL d   1      60.654  -0.553  30.485  0.00  0.00     0.026 A 
ATOM     23  C   UNL d   1      60.582  -1.015  29.817  0.00  0.00     0.024 A 
BRANCH  19  24
ATOM     24  O   UNL d   1      59.401   0.301  28.543  0.00  0.00    -0.327 OA
ATOM     25  C   UNL d   1      58.647   0.644  28.648  0.00  0.00     0.181 C 
ENDBRANCH  19  24
BRANCH  21  26
ATOM     26  O   UNL d   1      60.391   0.682  31.228  0.00  0.00    -0.328 OA
ATOM     27  C   UNL d   1      61.113   0.647  31.660  0.00  0.00     0.181 C 
ENDBRANCH  21  26
ENDBRANCH  17  18
ENDBRANCH  14  17
ENDBRANCH   6  14
BRANCH   1  28
ATOM     28  C   UNL d   1      61.015  -5.754  28.785  0.00  0.00     0.083 C 
ATOM     29  C   UNL d   1      61.015  -6.506  28.471  0.00  0.00     0.021 C 
ENDBRANCH   1  28
TORSDOF 6
ENDMDL
MODEL 3
REMARK VINA RESULT:       2.5      2.517      4.585
REMARK  6 active torsions:
REMARK  status: ('A' for Active; 'I' for Inactive)
REMARK    1  A    between atoms: C_7  and  S_1 
REMARK    2  A    between atoms: N_9  and  S_1 
REMARK    3  A    between atoms: C_20  and  N_2 
REMARK    4  A    between atoms: C_10  and  N_9 
REMARK    5  A    between atoms: O_24  and  C_13 
REMARK    6  A    between atoms: O_25  and  C_19 
ROOT
ATOM      1  N   UNL d   1      58.611  -5.436  28.461  0.00  0.00    -0.273 N 
ATOM      2  C   UNL d   1      59.651  -5.711  28.461  0.00  0.00     0.265 A 
ATOM      3  C   UNL d   1      58.638  -4.627  28.463  0.00  0.00     0.067 A 
ATOM      4  C   UNL d   1      59.426  -4.401  28.465  0.00  0.00     0.021 A 
ATOM      5  C   UNL d   1      60.025  -4.974  28.463  0.00  0.00     0.058 A 
ATOM      6  C   UNL d   1      59.029  -3.013  28.469  0.00  0.00     0.105 A 
ATOM      7  C   UNL d   1      59.633  -3.603  28.467  0.00  0.00     0.014 A 
ATOM      8  C   UNL d   1      58.040  -4.058  28.465  0.00  0.00     0.018 A 
ATOM      9  C   UNL d   1      58.241  -3.238  28.468  0.00  0.00     0.014 A 
ATOM     10  O   UNL d   1      60.109  -6.406  28.459  0.00  0.00    -0.267 OA
ATOM     11  C   UNL d   1      60.809  -4.749  28.464  0.00  0.00     0.005 A 
ATOM     12  C   UNL d   1      60.417  -3.378  28.468  0.00  0.00     0.001 A 
ATOM     13  C   UNL d   1      61.023  -3.944  28.467  0.00  0.00     0.000 A 
ENDROOT
BRANCH   6  14
ATOM     14  S   UNL d   1      59.234  -2.210  28.471  0.00  0.00     0.285 S 
ATOM     15  O   UNL d   1      60.037  -2.415  28.486  0.00  0.00    -0.198 OA
ATOM     16  O   UNL d   1      58.429  -2.002  28.456  0.00  0.00    -0.198 OA
BRANCH  14  17
ATOM     17  N   UNL d   1      59.433  -1.413  28.473  0.00  0.00    -0.156 NA
BRANCH  17  18
ATOM     18  C   UNL d   1      59.175  -0.931  29.080  0.00  0.00     0.116 A 
ATOM     19  C   UNL d   1      59.719  -0.568  29.558  0.00  0.00     0.114 A 
ATOM     20  C   UNL d   1      59.466  -0.083  30.166  0.00  0.00     0.050 A 
ATOM     21  C   UNL d   1      58.677   0.047  30.309  0.00  0.00     0.096 A 
ATOM     22  C   UNL d   1      58.126  -0.340  29.801  0.00  0.00     0.026 A 
ATOM     23  C   UNL d   1      58.374  -0.823  29.193  0.00  0.00     0.024 A 
BRANCH  19  24
ATOM     24  O   UNL d   1      60.537  -0.689  29.427  0.00  0.00    -0.327 OA
ATOM     25  C   UNL d   1      61.090  -0.463  30.011  0.00  0.00     0.181 C 
ENDBRANCH  19  24
BRANCH  21  26
ATOM     26  O   UNL d   1      58.406   0.545  30.935  0.00  0.00    -0.328 OA
ATOM     27  C   UNL d   1      57.806   0.260  31.452  0.00  0.00     0.181 C 
ENDBRANCH  21  26
ENDBRANCH  17  18
ENDBRANCH  14  17
ENDBRANCH   6  14
BRANCH   1  28
ATOM     28  C   UNL d   1      57.874  -5.824  28.460  0.00  0.00     0.083 C 
ATOM     29  C   UNL d   1      57.819  -6.602  28.697  0.00  0.00     0.021 C 
ENDBRANCH   1  28
TORSDOF 6
ENDMDL
MODEL 4
REMARK VINA RESULT:       3.6      0.857      1.716
REMARK  6 active torsions:
REMARK  status: ('A' for Active; 'I' for Inactive)
REMARK    1  A    between atoms: C_7  and  S_1 
REMARK    2  A    between atoms: N_9  and  S_1 
REMARK    3  A    between atoms: C_20  and  N_2 
REMARK    4  A    between atoms: C_10  and  N_9 
REMARK    5  A    between atoms: O_24  and  C_13 
REMARK    6  A    between atoms: O_25  and  C_19 
ROOT
ATOM      1  N   UNL d   1      59.373  -2.039  29.068  0.00  0.00    -0.273 N 
ATOM      2  C   UNL d   1      60.199  -1.372  28.890  0.00  0.00     0.265 A 
ATOM      3  C   UNL d   1      58.899  -1.610  29.565  0.00  0.00     0.067 A 
ATOM      4  C   UNL d   1      59.261  -0.886  29.697  0.00  0.00     0.021 A 
ATOM      5  C   UNL d   1      59.988  -0.711  29.340  0.00  0.00     0.058 A 
ATOM      6  C   UNL d   1      58.167  -0.494  30.554  0.00  0.00     0.105 A 
ATOM      7  C   UNL d   1      58.907  -0.324  30.186  0.00  0.00     0.014 A 
ATOM      8  C   UNL d   1      58.175  -1.786  29.920  0.00  0.00     0.018 A 
ATOM      9  C   UNL d   1      57.805  -1.217  30.422  0.00  0.00     0.014 A 
ATOM     10  O   UNL d   1      60.911  -1.368  28.459  0.00  0.00    -0.267 OA
ATOM     11  C   UNL d   1      60.349   0.009  29.471  0.00  0.00     0.005 A 
ATOM     12  C   UNL d   1      59.268   0.396  30.317  0.00  0.00     0.001 A 
ATOM     13  C   UNL d   1      59.996   0.580  29.964  0.00  0.00     0.000 A 
ENDROOT
BRANCH   6  14
ATOM     14  S   UNL d   1      57.810   0.069  31.045  0.00  0.00     0.285 S 
ATOM     15  O   UNL d   1      57.466  -0.538  31.492  0.00  0.00    -0.198 OA
ATOM     16  O   UNL d   1      58.154   0.682  30.598  0.00  0.00    -0.198 OA
BRANCH  14  17
ATOM     17  N   UNL d   1      57.458   0.632  31.530  0.00  0.00    -0.156 NA
BRANCH  17  18
ATOM     18  C   UNL d   1      57.177   0.417  32.265  0.00  0.00     0.116 A 
ATOM     19  C   UNL d   1      56.379   0.333  32.377  0.00  0.00     0.114 A 
ATOM     20  C   UNL d   1      56.092   0.117  33.112  0.00  0.00     0.050 A 
ATOM     21  C   UNL d   1      56.587  -0.017  33.742  0.00  0.00     0.096 A 
ATOM     22  C   UNL d   1      57.414   0.075  33.606  0.00  0.00     0.026 A 
ATOM     23  C   UNL d   1      57.704   0.290  32.875  0.00  0.00     0.024 A 
BRANCH  19  24
ATOM     24  O   UNL d   1      55.852   0.467  31.741  0.00  0.00    -0.327 OA
ATOM     25  C   UNL d   1      55.060   0.681  31.894  0.00  0.00     0.181 C 
ENDBRANCH  19  24
BRANCH  21  26
ATOM     26  O   UNL d   1      56.300  -0.240  34.504  0.00  0.00    -0.328 OA
ATOM     27  C   UNL d   1      55.621  -0.733  34.557  0.00  0.00     0.181 C 
ENDBRANCH  21  26
ENDBRANCH  17  18
ENDBRANCH  14  17
ENDBRANCH   6  14
BRANCH   1  28
ATOM     28  C   UNL d   1      59.142  -2.804  28.836  0.00  0.00     0.083 C 
ATOM     29  C   UNL d   1      59.688  -3.318  28.517  0.00  0.00     0.021 C 
ENDBRANCH   1  28
TORSDOF 6
ENDMDL
