MODEL 1
REMARK VINA RESULT:      21.2      0.000      0.000
REMARK  3 active torsions:
REMARK  status: ('A' for Active; 'I' for Inactive)
REMARK    1  A    between atoms: N_2  and  S_1 
REMARK    2  A    between atoms: N_3  and  S_1 
REMARK    3  A    between atoms: C_6  and  N_2 
ROOT
ATOM      1  C   UNL d   1      59.244  49.690  50.457  0.00  0.00     0.095 A 
ATOM      2  C   UNL d   1      57.573  49.687  50.521  0.00  0.00     0.000 A 
ATOM      3  C   UNL d   1      58.858  49.672  51.189  0.00  0.00     0.020 A 
ATOM      4  C   UNL d   1      58.803  49.707  49.764  0.00  0.00     0.020 A 
ATOM      5  C   UNL d   1      58.008  49.671  51.221  0.00  0.00     0.002 A 
ATOM      6  C   UNL d   1      57.953  49.705  49.797  0.00  0.00     0.002 A 
ATOM      7  C   UNL d   1      56.748  49.686  50.552  0.00  0.00     0.000 C 
ENDROOT
BRANCH   1   8
ATOM      8  N   UNL d   1      60.067  49.692  50.425  0.00  0.00    -0.144 NA
BRANCH   8   9
ATOM      9  S   UNL d   1      60.498  49.228  50.955  0.00  0.00     0.351 S 
ATOM     10  O   UNL d   1      60.256  49.707  51.577  0.00  0.00    -0.180 OA
ATOM     11  O   UNL d   1      60.750  49.065  51.723  0.00  0.00    -0.180 OA
BRANCH   9  12
ATOM     12  N   UNL d   1      60.924  48.579  50.677  0.00  0.00    -0.212 N 
ATOM     13  C   UNL d   1      61.360  48.644  49.979  0.00  0.00     0.113 C 
ATOM     14  C   UNL d   1      60.911  47.871  51.097  0.00  0.00     0.113 C 
ENDBRANCH   9  12
ENDBRANCH   8   9
ENDBRANCH   1   8
TORSDOF 3
ENDMDL
MODEL 2
REMARK VINA RESULT:      22.9      2.156      3.054
REMARK  3 active torsions:
REMARK  status: ('A' for Active; 'I' for Inactive)
REMARK    1  A    between atoms: N_2  and  S_1 
REMARK    2  A    between atoms: N_3  and  S_1 
REMARK    3  A    between atoms: C_6  and  N_2 
ROOT
ATOM      1  C   UNL d   1      58.536  49.699  50.513  0.00  0.00     0.095 A 
ATOM      2  C   UNL d   1      59.977  49.692  51.360  0.00  0.00     0.000 A 
ATOM      3  C   UNL d   1      58.529  49.704  51.341  0.00  0.00     0.020 A 
ATOM      4  C   UNL d   1      59.252  49.691  50.111  0.00  0.00     0.020 A 
ATOM      5  C   UNL d   1      59.262  49.700  51.771  0.00  0.00     0.002 A 
ATOM      6  C   UNL d   1      59.984  49.688  50.542  0.00  0.00     0.002 A 
ATOM      7  C   UNL d   1      60.689  49.689  51.778  0.00  0.00     0.000 C 
ENDROOT
BRANCH   1   8
ATOM      8  N   UNL d   1      57.825  49.703  50.095  0.00  0.00    -0.144 NA
BRANCH   8   9
ATOM      9  S   UNL d   1      57.218  49.189  50.317  0.00  0.00     0.351 S 
ATOM     10  O   UNL d   1      57.157  49.567  51.043  0.00  0.00    -0.180 OA
ATOM     11  O   UNL d   1      56.662  48.933  50.870  0.00  0.00    -0.180 OA
BRANCH   9  12
ATOM     12  N   UNL d   1      56.968  48.603  49.794  0.00  0.00    -0.212 N 
ATOM     13  C   UNL d   1      56.547  48.812  49.115  0.00  0.00     0.113 C 
ATOM     14  C   UNL d   1      57.139  47.813  49.952  0.00  0.00     0.113 C 
ENDBRANCH   9  12
ENDBRANCH   8   9
ENDBRANCH   1   8
TORSDOF 3
ENDMDL
