MODEL 1
REMARK VINA RESULT:      -7.6      0.000      0.000
REMARK  7 active torsions:
REMARK  status: ('A' for Active; 'I' for Inactive)
REMARK    1  A    between atoms: N_2  and  S_1 
REMARK    2  A    between atoms: C_5  and  S_1 
REMARK    3  A    between atoms: C_3  and  N_2 
REMARK    4  A    between atoms: C_4  and  C_3 
REMARK    5  A    between atoms: C_8  and  C_3 
REMARK    6  A    between atoms: C_17  and  C_8 
REMARK    7  A    between atoms: C_9  and  C_10 
ROOT
ATOM      1  S   UNL d   1     -48.630  11.949  23.326  0.00  0.00     0.285 S 
ATOM      2  O   UNL d   1     -48.217  11.328  23.663  0.00  0.00    -0.198 OA
ATOM      3  O   UNL d   1     -49.350  11.597  23.559  0.00  0.00    -0.198 OA
ENDROOT
BRANCH   1   4
ATOM      4  N   UNL d   1     -49.043  12.570  22.989  0.00  0.00    -0.152 NA
BRANCH   4   5
ATOM      5  C   UNL d   1     -49.839  12.653  23.122  0.00  0.00     0.158 C 
BRANCH   5   6
ATOM      6  C   UNL d   1     -50.376  12.179  22.726  0.00  0.00     0.230 C 
ATOM      7  O   UNL d   1     -50.362  12.132  21.916  0.00  0.00    -0.643 OA
ATOM      8  O   UNL d   1     -50.934  11.748  23.153  0.00  0.00    -0.643 OA
ENDBRANCH   5   6
BRANCH   5   9
ATOM      9  C   UNL d   1     -50.109  13.219  23.658  0.00  0.00     0.026 C 
BRANCH   9  10
ATOM     10  C   UNL d   1     -50.273  13.987  23.408  0.00  0.00     0.002 A 
ATOM     11  C   UNL d   1     -49.830  14.628  23.693  0.00  0.00     0.000 A 
ATOM     12  C   UNL d   1     -49.995  15.393  23.442  0.00  0.00     0.000 A 
ATOM     13  C   UNL d   1     -50.604  15.526  22.904  0.00  0.00     0.000 A 
ATOM     14  C   UNL d   1     -51.063  14.881  22.606  0.00  0.00     0.000 A 
ATOM     15  C   UNL d   1     -50.878  14.120  22.873  0.00  0.00     0.000 A 
ENDBRANCH   9  10
ENDBRANCH   5   9
ENDBRANCH   4   5
ENDBRANCH   1   4
BRANCH   1  16
ATOM     16  C   UNL d   1     -47.924  12.295  23.098  0.00  0.00     0.105 A 
ATOM     17  C   UNL d   1     -47.752  12.383  22.296  0.00  0.00     0.013 A 
ATOM     18  C   UNL d   1     -47.046  12.729  22.067  0.00  0.00    -0.004 A 
ATOM     19  C   UNL d   1     -46.512  12.986  22.641  0.00  0.00    -0.023 A 
ATOM     20  C   UNL d   1     -46.679  12.899  23.459  0.00  0.00    -0.004 A 
ATOM     21  C   UNL d   1     -47.390  12.552  23.671  0.00  0.00     0.013 A 
BRANCH  19  22
ATOM     22  C   UNL d   1     -45.805  13.332  22.385  0.00  0.00     0.019 C 
ATOM     23  C   UNL d   1     -45.632  12.644  21.975  0.00  0.00     0.004 C 
ATOM     24  C   UNL d   1     -45.111  13.667  22.132  0.00  0.00     0.004 C 
ATOM     25  C   UNL d   1     -45.988  14.014  22.798  0.00  0.00     0.004 C 
ENDBRANCH  19  22
ENDBRANCH   1  16
TORSDOF 7
ENDMDL
MODEL 2
REMARK VINA RESULT:      -7.1      1.695      2.388
REMARK  7 active torsions:
REMARK  status: ('A' for Active; 'I' for Inactive)
REMARK    1  A    between atoms: N_2  and  S_1 
REMARK    2  A    between atoms: C_5  and  S_1 
REMARK    3  A    between atoms: C_3  and  N_2 
REMARK    4  A    between atoms: C_4  and  C_3 
REMARK    5  A    between atoms: C_8  and  C_3 
REMARK    6  A    between atoms: C_17  and  C_8 
REMARK    7  A    between atoms: C_9  and  C_10 
ROOT
ATOM      1  S   UNL d   1     -47.918  14.508  22.591  0.00  0.00     0.285 S 
ATOM      2  O   UNL d   1     -47.453  15.166  22.738  0.00  0.00    -0.198 OA
ATOM      3  O   UNL d   1     -48.603  14.985  22.628  0.00  0.00    -0.198 OA
ENDROOT
BRANCH   1   4
ATOM      4  N   UNL d   1     -48.383  13.852  22.445  0.00  0.00    -0.152 NA
BRANCH   4   5
ATOM      5  C   UNL d   1     -49.188  13.888  22.544  0.00  0.00     0.158 C 
BRANCH   5   6
ATOM      6  C   UNL d   1     -49.672  14.098  21.919  0.00  0.00     0.230 C 
ATOM      7  O   UNL d   1     -50.210  14.700  22.001  0.00  0.00    -0.643 OA
ATOM      8  O   UNL d   1     -49.614  13.695  21.202  0.00  0.00    -0.643 OA
ENDBRANCH   5   6
BRANCH   5   9
ATOM      9  C   UNL d   1     -49.519  13.714  23.279  0.00  0.00     0.026 C 
BRANCH   9  10
ATOM     10  C   UNL d   1     -49.880  12.984  23.411  0.00  0.00     0.002 A 
ATOM     11  C   UNL d   1     -50.706  12.912  23.393  0.00  0.00     0.000 A 
ATOM     12  C   UNL d   1     -51.064  12.184  23.524  0.00  0.00     0.000 A 
ATOM     13  C   UNL d   1     -50.602  11.521  23.676  0.00  0.00     0.000 A 
ATOM     14  C   UNL d   1     -49.758  11.581  23.698  0.00  0.00     0.000 A 
ATOM     15  C   UNL d   1     -49.421  12.324  23.562  0.00  0.00     0.000 A 
ENDBRANCH   9  10
ENDBRANCH   5   9
ENDBRANCH   4   5
ENDBRANCH   1   4
BRANCH   1  16
ATOM     16  C   UNL d   1     -47.247  14.041  22.555  0.00  0.00     0.105 A 
ATOM     17  C   UNL d   1     -46.742  13.999  23.206  0.00  0.00     0.013 A 
ATOM     18  C   UNL d   1     -46.071  13.531  23.170  0.00  0.00    -0.004 A 
ATOM     19  C   UNL d   1     -45.905  13.106  22.483  0.00  0.00    -0.023 A 
ATOM     20  C   UNL d   1     -46.414  13.144  21.816  0.00  0.00    -0.004 A 
ATOM     21  C   UNL d   1     -47.081  13.616  21.868  0.00  0.00     0.013 A 
BRANCH  19  22
ATOM     22  C   UNL d   1     -45.221  12.641  22.470  0.00  0.00     0.019 C 
ATOM     23  C   UNL d   1     -44.861  13.205  21.998  0.00  0.00     0.004 C 
ATOM     24  C   UNL d   1     -44.548  12.188  22.456  0.00  0.00     0.004 C 
ATOM     25  C   UNL d   1     -45.590  12.084  22.943  0.00  0.00     0.004 C 
ENDBRANCH  19  22
ENDBRANCH   1  16
TORSDOF 7
ENDMDL
MODEL 3
REMARK VINA RESULT:      -6.9      2.156      4.470
REMARK  7 active torsions:
REMARK  status: ('A' for Active; 'I' for Inactive)
REMARK    1  A    between atoms: N_2  and  S_1 
REMARK    2  A    between atoms: C_5  and  S_1 
REMARK    3  A    between atoms: C_3  and  N_2 
REMARK    4  A    between atoms: C_4  and  C_3 
REMARK    5  A    between atoms: C_8  and  C_3 
REMARK    6  A    between atoms: C_17  and  C_8 
REMARK    7  A    between atoms: C_9  and  C_10 
ROOT
ATOM      1  S   UNL d   1     -47.292  14.203  22.727  0.00  0.00     0.285 S 
ATOM      2  O   UNL d   1     -47.538  14.955  22.936  0.00  0.00    -0.198 OA
ATOM      3  O   UNL d   1     -46.519  14.385  22.985  0.00  0.00    -0.198 OA
ENDROOT
BRANCH   1   4
ATOM      4  N   UNL d   1     -47.045  13.451  22.520  0.00  0.00    -0.152 NA
BRANCH   4   5
ATOM      5  C   UNL d   1     -46.301  13.194  22.717  0.00  0.00     0.158 C 
BRANCH   5   6
ATOM      6  C   UNL d   1     -45.676  13.305  22.201  0.00  0.00     0.230 C 
ATOM      7  O   UNL d   1     -45.071  13.810  22.392  0.00  0.00    -0.643 OA
ATOM      8  O   UNL d   1     -45.661  12.899  21.482  0.00  0.00    -0.643 OA
ENDBRANCH   5   6
BRANCH   5   9
ATOM      9  C   UNL d   1     -46.174  12.820  23.441  0.00  0.00     0.026 C 
BRANCH   9  10
ATOM     10  C   UNL d   1     -46.109  11.998  23.480  0.00  0.00     0.002 A 
ATOM     11  C   UNL d   1     -46.771  11.531  23.656  0.00  0.00     0.000 A 
ATOM     12  C   UNL d   1     -46.704  10.713  23.695  0.00  0.00     0.000 A 
ATOM     13  C   UNL d   1     -45.977  10.353  23.559  0.00  0.00     0.000 A 
ATOM     14  C   UNL d   1     -45.294  10.819  23.379  0.00  0.00     0.000 A 
ATOM     15  C   UNL d   1     -45.386  11.641  23.345  0.00  0.00     0.000 A 
ENDBRANCH   9  10
ENDBRANCH   5   9
ENDBRANCH   4   5
ENDBRANCH   1   4
BRANCH   1  16
ATOM     16  C   UNL d   1     -48.050  14.024  22.475  0.00  0.00     0.105 A 
ATOM     17  C   UNL d   1     -48.204  13.942  21.669  0.00  0.00     0.013 A 
ATOM     18  C   UNL d   1     -48.962  13.763  21.416  0.00  0.00    -0.004 A 
ATOM     19  C   UNL d   1     -49.565  13.667  21.969  0.00  0.00    -0.023 A 
ATOM     20  C   UNL d   1     -49.417  13.749  22.791  0.00  0.00    -0.004 A 
ATOM     21  C   UNL d   1     -48.654  13.928  23.028  0.00  0.00     0.013 A 
BRANCH  19  22
ATOM     22  C   UNL d   1     -50.323  13.487  21.689  0.00  0.00     0.019 C 
ATOM     23  C   UNL d   1     -50.077  12.717  21.556  0.00  0.00     0.004 C 
ATOM     24  C   UNL d   1     -51.064  13.306  21.414  0.00  0.00     0.004 C 
ATOM     25  C   UNL d   1     -50.558  14.258  21.827  0.00  0.00     0.004 C 
ENDBRANCH  19  22
ENDBRANCH   1  16
TORSDOF 7
ENDMDL
MODEL 4
REMARK VINA RESULT:      -6.7      9.185     10.575
REMARK  7 active torsions:
REMARK  status: ('A' for Active; 'I' for Inactive)
REMARK    1  A    between atoms: N_2  and  S_1 
REMARK    2  A    between atoms: C_5  and  S_1 
REMARK    3  A    between atoms: C_3  and  N_2 
REMARK    4  A    between atoms: C_4  and  C_3 
REMARK    5  A    between atoms: C_8  and  C_3 
REMARK    6  A    between atoms: C_17  and  C_8 
REMARK    7  A    between atoms: C_9  and  C_10 
ROOT
ATOM      1  S   UNL d   1     -40.021  15.276  19.506  0.00  0.00     0.285 S 
ATOM      2  O   UNL d   1     -40.192  15.922  19.981  0.00  0.00    -0.198 OA
ATOM      3  O   UNL d   1     -40.333  15.680  18.845  0.00  0.00    -0.198 OA
ENDROOT
BRANCH   1   4
ATOM      4  N   UNL d   1     -39.851  14.632  19.032  0.00  0.00    -0.152 NA
BRANCH   4   5
ATOM      5  C   UNL d   1     -39.968  14.671  18.230  0.00  0.00     0.158 C 
BRANCH   5   6
ATOM      6  C   UNL d   1     -40.688  14.456  17.906  0.00  0.00     0.230 C 
ATOM      7  O   UNL d   1     -41.082  14.963  17.410  0.00  0.00    -0.643 OA
ATOM      8  O   UNL d   1     -41.014  13.720  18.085  0.00  0.00    -0.643 OA
ENDBRANCH   5   6
BRANCH   5   9
ATOM      9  C   UNL d   1     -39.358  14.928  17.738  0.00  0.00     0.026 C 
BRANCH   9  10
ATOM     10  C   UNL d   1     -38.930  14.388  17.285  0.00  0.00     0.002 A 
ATOM     11  C   UNL d   1     -38.591  13.717  17.636  0.00  0.00     0.000 A 
ATOM     12  C   UNL d   1     -38.166  13.180  17.183  0.00  0.00     0.000 A 
ATOM     13  C   UNL d   1     -38.074  13.306  16.375  0.00  0.00     0.000 A 
ATOM     14  C   UNL d   1     -38.415  13.986  16.004  0.00  0.00     0.000 A 
ATOM     15  C   UNL d   1     -38.839  14.513  16.481  0.00  0.00     0.000 A 
ENDBRANCH   9  10
ENDBRANCH   5   9
ENDBRANCH   4   5
ENDBRANCH   1   4
BRANCH   1  16
ATOM     16  C   UNL d   1     -39.716  14.880  20.154  0.00  0.00     0.105 A 
ATOM     17  C   UNL d   1     -38.922  14.978  20.356  0.00  0.00     0.013 A 
ATOM     18  C   UNL d   1     -38.616  14.581  21.004  0.00  0.00    -0.004 A 
ATOM     19  C   UNL d   1     -39.104  14.088  21.450  0.00  0.00    -0.023 A 
ATOM     20  C   UNL d   1     -39.913  13.983  21.251  0.00  0.00    -0.004 A 
ATOM     21  C   UNL d   1     -40.204  14.387  20.600  0.00  0.00     0.013 A 
BRANCH  19  22
ATOM     22  C   UNL d   1     -38.772  13.698  22.100  0.00  0.00     0.019 C 
ATOM     23  C   UNL d   1     -39.229  14.163  22.596  0.00  0.00     0.004 C 
ATOM     24  C   UNL d   1     -38.449  13.319  22.740  0.00  0.00     0.004 C 
ATOM     25  C   UNL d   1     -38.320  13.240  21.595  0.00  0.00     0.004 C 
ENDBRANCH  19  22
ENDBRANCH   1  16
TORSDOF 7
ENDMDL
MODEL 5
REMARK VINA RESULT:      -6.4      8.292     10.176
REMARK  7 active torsions:
REMARK  status: ('A' for Active; 'I' for Inactive)
REMARK    1  A    between atoms: N_2  and  S_1 
REMARK    2  A    between atoms: C_5  and  S_1 
REMARK    3  A    between atoms: C_3  and  N_2 
REMARK    4  A    between atoms: C_4  and  C_3 
REMARK    5  A    between atoms: C_8  and  C_3 
REMARK    6  A    between atoms: C_17  and  C_8 
REMARK    7  A    between atoms: C_9  and  C_10 
ROOT
ATOM      1  S   UNL d   1     -40.406  15.383  19.132  0.00  0.00     0.285 S 
ATOM      2  O   UNL d   1     -40.616  15.922  18.552  0.00  0.00    -0.198 OA
ATOM      3  O   UNL d   1     -40.843  15.819  19.695  0.00  0.00    -0.198 OA
ENDROOT
BRANCH   1   4
ATOM      4  N   UNL d   1     -40.197  14.845  19.712  0.00  0.00    -0.152 NA
BRANCH   4   5
ATOM      5  C   UNL d   1     -40.419  14.965  20.483  0.00  0.00     0.158 C 
BRANCH   5   6
ATOM      6  C   UNL d   1     -41.172  14.765  20.731  0.00  0.00     0.230 C 
ATOM      7  O   UNL d   1     -41.644  15.316  21.095  0.00  0.00    -0.643 OA
ATOM      8  O   UNL d   1     -41.454  13.999  20.612  0.00  0.00    -0.643 OA
ENDBRANCH   5   6
BRANCH   5   9
ATOM      9  C   UNL d   1     -39.883  15.290  21.019  0.00  0.00     0.026 C 
BRANCH   9  10
ATOM     10  C   UNL d   1     -39.342  14.808  21.413  0.00  0.00     0.002 A 
ATOM     11  C   UNL d   1     -39.595  14.118  21.799  0.00  0.00     0.000 A 
ATOM     12  C   UNL d   1     -39.055  13.639  22.191  0.00  0.00     0.000 A 
ATOM     13  C   UNL d   1     -38.258  13.843  22.203  0.00  0.00     0.000 A 
ATOM     14  C   UNL d   1     -37.987  14.544  21.814  0.00  0.00     0.000 A 
ATOM     15  C   UNL d   1     -38.550  15.010  21.425  0.00  0.00     0.000 A 
ENDBRANCH   9  10
ENDBRANCH   5   9
ENDBRANCH   4   5
ENDBRANCH   1   4
BRANCH   1  16
ATOM     16  C   UNL d   1     -39.978  14.956  18.580  0.00  0.00     0.105 A 
ATOM     17  C   UNL d   1     -39.213  15.193  18.383  0.00  0.00     0.013 A 
ATOM     18  C   UNL d   1     -38.785  14.765  17.831  0.00  0.00    -0.004 A 
ATOM     19  C   UNL d   1     -39.122  14.102  17.477  0.00  0.00    -0.023 A 
ATOM     20  C   UNL d   1     -39.900  13.854  17.672  0.00  0.00    -0.004 A 
ATOM     21  C   UNL d   1     -40.315  14.292  18.226  0.00  0.00     0.013 A 
BRANCH  19  22
ATOM     22  C   UNL d   1     -38.670  13.686  16.922  0.00  0.00     0.019 C 
ATOM     23  C   UNL d   1     -38.605  13.069  17.457  0.00  0.00     0.004 C 
ATOM     24  C   UNL d   1     -38.226  13.276  16.381  0.00  0.00     0.004 C 
ATOM     25  C   UNL d   1     -38.742  14.309  16.396  0.00  0.00     0.004 C 
ENDBRANCH  19  22
ENDBRANCH   1  16
TORSDOF 7
ENDMDL
MODEL 6
REMARK VINA RESULT:      -5.0      2.273      3.057
REMARK  7 active torsions:
REMARK  status: ('A' for Active; 'I' for Inactive)
REMARK    1  A    between atoms: N_2  and  S_1 
REMARK    2  A    between atoms: C_5  and  S_1 
REMARK    3  A    between atoms: C_3  and  N_2 
REMARK    4  A    between atoms: C_4  and  C_3 
REMARK    5  A    between atoms: C_8  and  C_3 
REMARK    6  A    between atoms: C_17  and  C_8 
REMARK    7  A    between atoms: C_9  and  C_10 
ROOT
ATOM      1  S   UNL d   1     -46.152  13.520  22.544  0.00  0.00     0.285 S 
ATOM      2  O   UNL d   1     -45.378  13.773  22.463  0.00  0.00    -0.198 OA
ATOM      3  O   UNL d   1     -46.423  14.272  22.301  0.00  0.00    -0.198 OA
ENDROOT
BRANCH   1   4
ATOM      4  N   UNL d   1     -46.926  13.267  22.624  0.00  0.00    -0.152 NA
BRANCH   4   5
ATOM      5  C   UNL d   1     -47.539  13.743  22.387  0.00  0.00     0.158 C 
BRANCH   5   6
ATOM      6  C   UNL d   1     -47.807  14.345  22.872  0.00  0.00     0.230 C 
ATOM      7  O   UNL d   1     -48.066  14.182  23.623  0.00  0.00    -0.643 OA
ATOM      8  O   UNL d   1     -47.813  15.122  22.595  0.00  0.00    -0.643 OA
ENDBRANCH   5   6
BRANCH   5   9
ATOM      9  C   UNL d   1     -47.895  13.619  21.653  0.00  0.00     0.026 C 
BRANCH   9  10
ATOM     10  C   UNL d   1     -48.624  13.237  21.602  0.00  0.00     0.002 A 
ATOM     11  C   UNL d   1     -48.665  12.409  21.564  0.00  0.00     0.000 A 
ATOM     12  C   UNL d   1     -49.392  12.030  21.513  0.00  0.00     0.000 A 
ATOM     13  C   UNL d   1     -50.086  12.472  21.499  0.00  0.00     0.000 A 
ATOM     14  C   UNL d   1     -50.058  13.318  21.536  0.00  0.00     0.000 A 
ATOM     15  C   UNL d   1     -49.314  13.676  21.587  0.00  0.00     0.000 A 
ENDBRANCH   9  10
ENDBRANCH   5   9
ENDBRANCH   4   5
ENDBRANCH   1   4
BRANCH   1  16
ATOM     16  C   UNL d   1     -45.887  12.783  22.782  0.00  0.00     0.105 A 
ATOM     17  C   UNL d   1     -45.280  12.412  22.365  0.00  0.00     0.013 A 
ATOM     18  C   UNL d   1     -45.015  11.675  22.603  0.00  0.00    -0.004 A 
ATOM     19  C   UNL d   1     -45.357  11.309  23.258  0.00  0.00    -0.023 A 
ATOM     20  C   UNL d   1     -45.975  11.680  23.688  0.00  0.00    -0.004 A 
ATOM     21  C   UNL d   1     -46.229  12.417  23.437  0.00  0.00     0.013 A 
BRANCH  19  22
ATOM     22  C   UNL d   1     -45.072  10.564  23.480  0.00  0.00     0.019 C 
ATOM     23  C   UNL d   1     -44.308  10.834  23.357  0.00  0.00     0.004 C 
ATOM     24  C   UNL d   1     -44.788   9.836  23.696  0.00  0.00     0.004 C 
ATOM     25  C   UNL d   1     -45.839  10.305  23.599  0.00  0.00     0.004 C 
ENDBRANCH  19  22
ENDBRANCH   1  16
TORSDOF 7
ENDMDL
