MODEL 1
REMARK VINA RESULT:      61.8      0.000      0.000
REMARK  4 active torsions:
REMARK  status: ('A' for Active; 'I' for Inactive)
REMARK    1  A    between atoms: S_2  and  C_1 
REMARK    2  A    between atoms: C_10  and  S_2 
REMARK    3  A    between atoms: N_7  and  C_5 
REMARK    4  A    between atoms: C_11  and  N_7 
ROOT
ATOM      1  C   UNL d   1     -49.165  28.189  34.227  0.00  0.00     0.187 A 
ATOM      2  N   UNL d   1     -49.130  27.369  34.183  0.00  0.00    -0.208 NA
ATOM      3  C   UNL d   1     -49.729  28.456  33.687  0.00  0.00     0.118 A 
ATOM      4  C   UNL d   1     -49.672  27.128  33.615  0.00  0.00     0.196 A 
ATOM      5  S   UNL d   1     -50.037  27.789  33.313  0.00  0.00    -0.035 SA
ATOM      6 CL   UNL d   1     -49.941  29.231  33.549  0.00  0.00    -0.073 Cl
ENDROOT
BRANCH   1   7
ATOM      7  S   UNL d   1     -48.714  28.668  34.726  0.00  0.00     0.228 S 
ATOM      8  O   UNL d   1     -48.524  29.099  34.054  0.00  0.00    -0.216 OA
ATOM      9  O   UNL d   1     -48.910  28.232  35.393  0.00  0.00    -0.216 OA
BRANCH   7  10
ATOM     10  C   UNL d   1     -48.244  29.192  35.156  0.00  0.00     0.089 A 
ATOM     11  C   UNL d   1     -48.090  29.954  34.857  0.00  0.00     0.011 A 
ATOM     12  C   UNL d   1     -47.615  30.479  35.294  0.00  0.00     0.001 A 
ATOM     13  C   UNL d   1     -47.296  30.250  36.020  0.00  0.00     0.000 A 
ATOM     14  C   UNL d   1     -47.455  29.482  36.314  0.00  0.00     0.001 A 
ATOM     15  C   UNL d   1     -47.925  28.959  35.884  0.00  0.00     0.011 A 
ENDBRANCH   7  10
ENDBRANCH   1   7
BRANCH   4  16
ATOM     16  N   UNL d   1     -49.817  26.348  33.394  0.00  0.00    -0.221 NA
BRANCH  16  17
ATOM     17  C   UNL d   1     -50.589  26.068  33.365  0.00  0.00     0.087 A 
ATOM     18  C   UNL d   1     -50.728  25.266  33.364  0.00  0.00     0.061 A 
ATOM     19  C   UNL d   1     -51.497  24.982  33.335  0.00  0.00     0.197 A 
ATOM     20  O   UNL d   1     -51.634  24.172  33.335  0.00  0.00    -0.286 OA
ATOM     21  C   UNL d   1     -52.130  25.509  33.306  0.00  0.00     0.042 A 
ATOM     22  C   UNL d   1     -51.984  26.321  33.307  0.00  0.00     0.005 A 
ATOM     23  C   UNL d   1     -51.217  26.604  33.336  0.00  0.00     0.019 A 
ENDBRANCH  16  17
ENDBRANCH   4  16
TORSDOF 4
ENDMDL
