MODEL 1
REMARK VINA RESULT:      -3.7      0.000      0.000
REMARK  3 active torsions:
REMARK  status: ('A' for Active; 'I' for Inactive)
REMARK    1  A    between atoms: C_4  and  C_1 
REMARK    2  A    between atoms: C_9  and  N_2 
REMARK    3  A    between atoms: C_8  and  C_13 
ROOT
ATOM      1  N   UNL d   1      32.647  18.778 -23.130  0.00  0.00    -0.273 N 
ATOM      2  C   UNL d   1      32.871  19.787 -22.267  0.00  0.00     0.056 A 
ATOM      3  C   UNL d   1      33.033  18.466 -22.460  0.00  0.00     0.265 A 
ATOM      4  C   UNL d   1      32.550  19.585 -23.008  0.00  0.00     0.086 A 
ATOM      5  C   UNL d   1      33.170  19.085 -21.933  0.00  0.00     0.066 A 
ATOM      6  O   UNL d   1      33.240  17.670 -22.353  0.00  0.00    -0.267 OA
ENDROOT
BRANCH   1   7
ATOM      7  C   UNL d   1      32.424  18.327 -23.766  0.00  0.00     0.067 A 
ATOM      8  C   UNL d   1      31.714  17.920 -23.750  0.00  0.00     0.021 A 
ATOM      9  C   UNL d   1      31.472  17.454 -24.395  0.00  0.00     0.073 A 
ATOM     10  C   UNL d   1      31.967  17.403 -25.070  0.00  0.00     0.004 A 
ATOM     11  C   UNL d   1      32.677  17.810 -25.086  0.00  0.00     0.001 A 
ATOM     12  C   UNL d   1      32.909  18.274 -24.434  0.00  0.00     0.018 A 
BRANCH   9  13
ATOM     13  C   UNL d   1      30.765  17.057 -24.363  0.00  0.00     0.419 C 
ATOM     14  F   UNL d   1      30.033  16.653 -24.332  0.00  0.00    -0.166 F 
ATOM     15  F   UNL d   1      31.161  16.348 -24.240  0.00  0.00    -0.166 F 
ATOM     16  F   UNL d   1      30.352  17.763 -24.487  0.00  0.00    -0.166 F 
ENDBRANCH   9  13
ENDBRANCH   1   7
BRANCH   2  17
ATOM     17  C   UNL d   1      32.867  20.551 -21.971  0.00  0.00     0.142 A 
ATOM     18  N   UNL d   1      33.203  21.212 -22.265  0.00  0.00    -0.227 NA
ATOM     19  C   UNL d   1      33.036  21.847 -21.755  0.00  0.00     0.099 A 
ATOM     20  C   UNL d   1      33.240  22.638 -21.787  0.00  0.00     0.021 A 
ATOM     21  C   UNL d   1      32.586  21.552 -21.138  0.00  0.00     0.076 A 
ATOM     22  C   UNL d   1      32.980  23.142 -21.176  0.00  0.00     0.002 A 
ATOM     23  C   UNL d   1      32.531  22.848 -20.560  0.00  0.00     0.002 A 
ATOM     24  C   UNL d   1      32.327  22.040 -20.535  0.00  0.00     0.019 A 
ATOM     25  N   UNL d   1      32.481  20.740 -21.275  0.00  0.00    -0.338 N 
ATOM     26  H   UNL d   1      32.056  20.205 -20.789  0.00  0.00     0.167 HD
ENDBRANCH   2  17
TORSDOF 3
ENDMDL
MODEL 2
REMARK VINA RESULT:      -2.8      2.682      5.161
REMARK  3 active torsions:
REMARK  status: ('A' for Active; 'I' for Inactive)
REMARK    1  A    between atoms: C_4  and  C_1 
REMARK    2  A    between atoms: C_9  and  N_2 
REMARK    3  A    between atoms: C_8  and  C_13 
ROOT
ATOM      1  N   UNL d   1      32.941  21.000 -22.035  0.00  0.00    -0.273 N 
ATOM      2  C   UNL d   1      32.937  19.724 -22.468  0.00  0.00     0.056 A 
ATOM      3  C   UNL d   1      33.102  20.504 -21.385  0.00  0.00     0.265 A 
ATOM      4  C   UNL d   1      32.840  20.520 -22.695  0.00  0.00     0.086 A 
ATOM      5  C   UNL d   1      33.099  19.724 -21.651  0.00  0.00     0.066 A 
ATOM      6  O   UNL d   1      33.240  20.761 -20.609  0.00  0.00    -0.267 OA
ENDROOT
BRANCH   1   7
ATOM      7  C   UNL d   1      32.900  21.808 -21.981  0.00  0.00     0.067 A 
ATOM      8  C   UNL d   1      32.529  22.155 -21.338  0.00  0.00     0.021 A 
ATOM      9  C   UNL d   1      32.479  22.983 -21.269  0.00  0.00     0.073 A 
ATOM     10  C   UNL d   1      32.814  23.464 -21.867  0.00  0.00     0.004 A 
ATOM     11  C   UNL d   1      33.185  23.117 -22.508  0.00  0.00     0.001 A 
ATOM     12  C   UNL d   1      33.229  22.287 -22.569  0.00  0.00     0.018 A 
BRANCH   9  13
ATOM     13  C   UNL d   1      32.108  23.312 -20.626  0.00  0.00     0.419 C 
ATOM     14  F   UNL d   1      31.719  23.650 -19.966  0.00  0.00    -0.166 F 
ATOM     15  F   UNL d   1      32.833  23.447 -20.267  0.00  0.00    -0.166 F 
ATOM     16  F   UNL d   1      31.368  23.182 -20.974  0.00  0.00    -0.166 F 
ENDBRANCH   9  13
ENDBRANCH   1   7
BRANCH   2  17
ATOM     17  C   UNL d   1      32.872  19.099 -22.993  0.00  0.00     0.142 A 
ATOM     18  N   UNL d   1      33.235  18.984 -23.694  0.00  0.00    -0.227 NA
ATOM     19  C   UNL d   1      32.980  18.259 -24.011  0.00  0.00     0.099 A 
ATOM     20  C   UNL d   1      33.170  17.873 -24.707  0.00  0.00     0.021 A 
ATOM     21  C   UNL d   1      32.448  17.934 -23.481  0.00  0.00     0.076 A 
ATOM     22  C   UNL d   1      32.812  17.139 -24.867  0.00  0.00     0.002 A 
ATOM     23  C   UNL d   1      32.280  16.814 -24.337  0.00  0.00     0.002 A 
ATOM     24  C   UNL d   1      32.092  17.214 -23.631  0.00  0.00     0.019 A 
ATOM     25  N   UNL d   1      32.382  18.462 -22.843  0.00  0.00    -0.338 N 
ATOM     26  H   UNL d   1      31.899  18.362 -22.165  0.00  0.00     0.167 HD
ENDBRANCH   2  17
TORSDOF 3
ENDMDL
MODEL 3
REMARK VINA RESULT:      -2.6      2.585      5.273
REMARK  3 active torsions:
REMARK  status: ('A' for Active; 'I' for Inactive)
REMARK    1  A    between atoms: C_4  and  C_1 
REMARK    2  A    between atoms: C_9  and  N_2 
REMARK    3  A    between atoms: C_8  and  C_13 
ROOT
ATOM      1  N   UNL d   1      31.776  17.448 -24.049  0.00  0.00    -0.273 N 
ATOM      2  C   UNL d   1      30.729  16.602 -24.094  0.00  0.00     0.056 A 
ATOM      3  C   UNL d   1      32.053  16.706 -24.309  0.00  0.00     0.265 A 
ATOM      4  C   UNL d   1      30.967  17.380 -23.920  0.00  0.00     0.086 A 
ATOM      5  C   UNL d   1      31.411  16.189 -24.336  0.00  0.00     0.066 A 
ATOM      6  O   UNL d   1      32.839  16.528 -24.503  0.00  0.00    -0.267 OA
ENDROOT
BRANCH   1   7
ATOM      7  C   UNL d   1      32.256  18.095 -23.956  0.00  0.00     0.067 A 
ATOM      8  C   UNL d   1      32.360  18.422 -23.213  0.00  0.00     0.021 A 
ATOM      9  C   UNL d   1      32.850  19.085 -23.101  0.00  0.00     0.073 A 
ATOM     10  C   UNL d   1      33.240  19.421 -23.763  0.00  0.00     0.004 A 
ATOM     11  C   UNL d   1      33.135  19.094 -24.505  0.00  0.00     0.001 A 
ATOM     12  C   UNL d   1      32.643  18.430 -24.606  0.00  0.00     0.018 A 
BRANCH   9  13
ATOM     13  C   UNL d   1      32.943  19.398 -22.358  0.00  0.00     0.419 C 
ATOM     14  F   UNL d   1      33.037  19.726 -21.593  0.00  0.00    -0.166 F 
ATOM     15  F   UNL d   1      33.211  18.674 -22.079  0.00  0.00    -0.166 F 
ATOM     16  F   UNL d   1      32.675  20.135 -22.623  0.00  0.00    -0.166 F 
ENDBRANCH   9  13
ENDBRANCH   1   7
BRANCH   2  17
ATOM     17  C   UNL d   1      29.955  16.345 -24.024  0.00  0.00     0.142 A 
ATOM     18  N   UNL d   1      29.397  16.248 -24.586  0.00  0.00    -0.227 NA
ATOM     19  C   UNL d   1      28.700  15.975 -24.228  0.00  0.00     0.099 A 
ATOM     20  C   UNL d   1      27.967  15.786 -24.538  0.00  0.00     0.021 A 
ATOM     21  C   UNL d   1      28.848  15.907 -23.426  0.00  0.00     0.076 A 
ATOM     22  C   UNL d   1      27.370  15.522 -24.020  0.00  0.00     0.002 A 
ATOM     23  C   UNL d   1      27.518  15.454 -23.219  0.00  0.00     0.002 A 
ATOM     24  C   UNL d   1      28.268  15.648 -22.911  0.00  0.00     0.019 A 
ATOM     25  N   UNL d   1      29.635  16.140 -23.300  0.00  0.00    -0.338 N 
ATOM     26  H   UNL d   1      30.034  16.161 -22.562  0.00  0.00     0.167 HD
ENDBRANCH   2  17
TORSDOF 3
ENDMDL
MODEL 4
REMARK VINA RESULT:      -2.3      1.416      2.292
REMARK  3 active torsions:
REMARK  status: ('A' for Active; 'I' for Inactive)
REMARK    1  A    between atoms: C_4  and  C_1 
REMARK    2  A    between atoms: C_9  and  N_2 
REMARK    3  A    between atoms: C_8  and  C_13 
ROOT
ATOM      1  N   UNL d   1      31.782  17.100 -23.994  0.00  0.00    -0.273 N 
ATOM      2  C   UNL d   1      32.519  18.107 -23.485  0.00  0.00     0.056 A 
ATOM      3  C   UNL d   1      32.573  16.992 -24.237  0.00  0.00     0.265 A 
ATOM      4  C   UNL d   1      31.754  17.782 -23.535  0.00  0.00     0.086 A 
ATOM      5  C   UNL d   1      33.022  17.609 -23.924  0.00  0.00     0.066 A 
ATOM      6  O   UNL d   1      32.848  16.370 -24.710  0.00  0.00    -0.267 OA
ENDROOT
BRANCH   1   7
ATOM      7  C   UNL d   1      31.180  16.596 -24.198  0.00  0.00     0.067 A 
ATOM      8  C   UNL d   1      30.431  16.710 -23.889  0.00  0.00     0.021 A 
ATOM      9  C   UNL d   1      29.804  16.201 -24.089  0.00  0.00     0.073 A 
ATOM     10  C   UNL d   1      29.946  15.565 -24.616  0.00  0.00     0.004 A 
ATOM     11  C   UNL d   1      30.695  15.453 -24.925  0.00  0.00     0.001 A 
ATOM     12  C   UNL d   1      31.316  15.967 -24.718  0.00  0.00     0.018 A 
BRANCH   9  13
ATOM     13  C   UNL d   1      29.066  16.326 -23.774  0.00  0.00     0.419 C 
ATOM     14  F   UNL d   1      28.307  16.452 -23.443  0.00  0.00    -0.166 F 
ATOM     15  F   UNL d   1      28.843  16.746 -24.443  0.00  0.00    -0.166 F 
ATOM     16  F   UNL d   1      29.276  15.906 -23.092  0.00  0.00    -0.166 F 
ENDBRANCH   9  13
ENDBRANCH   1   7
BRANCH   2  17
ATOM     17  C   UNL d   1      32.688  18.790 -23.067  0.00  0.00     0.142 A 
ATOM     18  N   UNL d   1      32.785  19.537 -23.331  0.00  0.00    -0.227 NA
ATOM     19  C   UNL d   1      32.948  20.030 -22.682  0.00  0.00     0.099 A 
ATOM     20  C   UNL d   1      33.093  20.834 -22.634  0.00  0.00     0.021 A 
ATOM     21  C   UNL d   1      32.948  19.561 -22.012  0.00  0.00     0.076 A 
ATOM     22  C   UNL d   1      33.241  21.169 -21.886  0.00  0.00     0.002 A 
ATOM     23  C   UNL d   1      33.241  20.700 -21.215  0.00  0.00     0.002 A 
ATOM     24  C   UNL d   1      33.092  19.882 -21.274  0.00  0.00     0.019 A 
ATOM     25  N   UNL d   1      32.785  18.784 -22.255  0.00  0.00    -0.338 N 
ATOM     26  H   UNL d   1      32.728  18.110 -21.759  0.00  0.00     0.167 HD
ENDBRANCH   2  17
TORSDOF 3
ENDMDL
MODEL 5
REMARK VINA RESULT:      -2.2      2.477      5.156
REMARK  3 active torsions:
REMARK  status: ('A' for Active; 'I' for Inactive)
REMARK    1  A    between atoms: C_4  and  C_1 
REMARK    2  A    between atoms: C_9  and  N_2 
REMARK    3  A    between atoms: C_8  and  C_13 
ROOT
ATOM      1  N   UNL d   1      32.854  19.844 -22.457  0.00  0.00    -0.273 N 
ATOM      2  C   UNL d   1      32.698  18.795 -23.288  0.00  0.00     0.056 A 
ATOM      3  C   UNL d   1      33.019  20.100 -23.233  0.00  0.00     0.265 A 
ATOM      4  C   UNL d   1      32.659  19.046 -22.495  0.00  0.00     0.086 A 
ATOM      5  C   UNL d   1      32.923  19.456 -23.740  0.00  0.00     0.066 A 
ATOM      6  O   UNL d   1      33.240  20.870 -23.447  0.00  0.00    -0.267 OA
ENDROOT
BRANCH   1   7
ATOM      7  C   UNL d   1      32.892  20.330 -21.809  0.00  0.00     0.067 A 
ATOM      8  C   UNL d   1      32.622  21.101 -21.862  0.00  0.00     0.021 A 
ATOM      9  C   UNL d   1      32.655  21.612 -21.206  0.00  0.00     0.073 A 
ATOM     10  C   UNL d   1      32.970  21.329 -20.483  0.00  0.00     0.004 A 
ATOM     11  C   UNL d   1      33.240  20.559 -20.431  0.00  0.00     0.001 A 
ATOM     12  C   UNL d   1      33.203  20.055 -21.094  0.00  0.00     0.018 A 
BRANCH   9  13
ATOM     13  C   UNL d   1      32.383  22.374 -21.274  0.00  0.00     0.419 C 
ATOM     14  F   UNL d   1      32.108  23.162 -21.347  0.00  0.00    -0.166 F 
ATOM     15  F   UNL d   1      31.636  22.137 -21.030  0.00  0.00    -0.166 F 
ATOM     16  F   UNL d   1      33.131  22.629 -21.523  0.00  0.00    -0.166 F 
ENDBRANCH   9  13
ENDBRANCH   1   7
BRANCH   2  17
ATOM     17  C   UNL d   1      32.536  18.027 -23.521  0.00  0.00     0.142 A 
ATOM     18  N   UNL d   1      33.024  17.471 -23.820  0.00  0.00    -0.227 NA
ATOM     19  C   UNL d   1      32.586  16.781 -23.967  0.00  0.00     0.099 A 
ATOM     20  C   UNL d   1      32.805  16.053 -24.269  0.00  0.00     0.021 A 
ATOM     21  C   UNL d   1      31.812  16.931 -23.749  0.00  0.00     0.076 A 
ATOM     22  C   UNL d   1      32.222  15.463 -24.350  0.00  0.00     0.002 A 
ATOM     23  C   UNL d   1      31.448  15.613 -24.132  0.00  0.00     0.002 A 
ATOM     24  C   UNL d   1      31.234  16.358 -23.825  0.00  0.00     0.019 A 
ATOM     25  N   UNL d   1      31.782  17.713 -23.469  0.00  0.00    -0.338 N 
ATOM     26  H   UNL d   1      31.102  18.112 -23.184  0.00  0.00     0.167 HD
ENDBRANCH   2  17
TORSDOF 3
ENDMDL
