MODEL 1
REMARK VINA RESULT:      96.5      0.000      0.000
REMARK  5 active torsions:
REMARK  status: ('A' for Active; 'I' for Inactive)
REMARK    1  A    between atoms: N_10  and  C_4 
REMARK    2  A    between atoms: C_11  and  N_5 
REMARK    3  A    between atoms: C_14  and  N_10 
REMARK    4  A    between atoms: C_15  and  C_11 
REMARK    5  A    between atoms: C_18  and  C_14 
ROOT
ATOM      1  C   UNL d   1     -47.924  29.686  35.642  0.00  0.00     0.191 A 
ATOM      2  C   UNL d   1     -47.571  30.316  35.337  0.00  0.00     0.174 A 
ATOM      3  N   UNL d   1     -48.470  29.277  35.233  0.00  0.00    -0.042 NA
ATOM      4  C   UNL d   1     -48.654  29.514  34.509  0.00  0.00     0.722 A 
ATOM      5  N   UNL d   1     -48.296  30.162  34.183  0.00  0.00    -0.132 N 
ATOM      6  N   UNL d   1     -47.736  29.441  36.385  0.00  0.00    -0.239 N 
ATOM      7  C   UNL d   1     -47.197  29.830  36.812  0.00  0.00     0.358 A 
ATOM      8  N   UNL d   1     -46.839  30.471  36.501  0.00  0.00    -0.152 NA
ATOM      9  C   UNL d   1     -47.023  30.714  35.766  0.00  0.00     0.303 A 
ATOM     10  O   UNL d   1     -47.010  29.585  37.554  0.00  0.00    -0.244 OA
ATOM     11  O   UNL d   1     -46.655  31.371  35.448  0.00  0.00    -0.263 OA
ATOM     12  C   UNL d   1     -48.099  28.793  36.699  0.00  0.00     0.105 C 
ENDROOT
BRANCH   4  13
ATOM     13  N   UNL d   1     -49.196  29.117  34.086  0.00  0.00    -0.137 N 
ATOM     14  C   UNL d   1     -49.952  29.287  33.802  0.00  0.00     0.118 C 
BRANCH  13  15
ATOM     15  C   UNL d   1     -49.043  28.350  33.835  0.00  0.00     0.098 C 
BRANCH  15  16
ATOM     16  C   UNL d   1     -49.669  27.838  33.658  0.00  0.00     0.018 A 
ATOM     17  C   UNL d   1     -49.535  27.018  33.639  0.00  0.00     0.002 A 
ATOM     18  C   UNL d   1     -50.162  26.506  33.462  0.00  0.00     0.000 A 
ATOM     19  C   UNL d   1     -50.915  26.814  33.306  0.00  0.00     0.000 A 
ATOM     20  C   UNL d   1     -51.042  27.635  33.327  0.00  0.00     0.000 A 
ATOM     21  C   UNL d   1     -50.415  28.147  33.504  0.00  0.00     0.002 A 
ENDBRANCH  15  16
ENDBRANCH  13  15
ENDBRANCH   4  13
BRANCH   5  22
ATOM     22  C   UNL d   1     -48.195  30.689  33.556  0.00  0.00     0.098 C 
BRANCH  22  23
ATOM     23  C   UNL d   1     -48.326  31.497  33.667  0.00  0.00     0.018 A 
ATOM     24  C   UNL d   1     -47.750  32.027  33.427  0.00  0.00     0.002 A 
ATOM     25  C   UNL d   1     -47.881  32.835  33.537  0.00  0.00     0.000 A 
ATOM     26  C   UNL d   1     -47.454  33.522  33.377  0.00  0.00     0.000 C 
ATOM     27  C   UNL d   1     -48.586  33.101  33.886  0.00  0.00     0.000 A 
ATOM     28  C   UNL d   1     -49.154  32.549  34.121  0.00  0.00     0.000 A 
ATOM     29  C   UNL d   1     -49.024  31.748  34.012  0.00  0.00     0.002 A 
ENDBRANCH  22  23
ENDBRANCH   5  22
TORSDOF 5
ENDMDL
MODEL 2
REMARK VINA RESULT:      98.2      3.435      5.880
REMARK  5 active torsions:
REMARK  status: ('A' for Active; 'I' for Inactive)
REMARK    1  A    between atoms: N_10  and  C_4 
REMARK    2  A    between atoms: C_11  and  N_5 
REMARK    3  A    between atoms: C_14  and  N_10 
REMARK    4  A    between atoms: C_15  and  C_11 
REMARK    5  A    between atoms: C_18  and  C_14 
ROOT
ATOM      1  C   UNL d   1     -50.065  27.231  35.403  0.00  0.00     0.191 A 
ATOM      2  C   UNL d   1     -50.182  27.117  34.636  0.00  0.00     0.174 A 
ATOM      3  N   UNL d   1     -50.576  26.953  35.946  0.00  0.00    -0.042 NA
ATOM      4  C   UNL d   1     -51.208  26.558  35.701  0.00  0.00     0.722 A 
ATOM      5  N   UNL d   1     -51.338  26.434  34.912  0.00  0.00    -0.132 N 
ATOM      6  N   UNL d   1     -49.419  27.636  35.655  0.00  0.00    -0.239 N 
ATOM      7  C   UNL d   1     -48.896  27.922  35.136  0.00  0.00     0.358 A 
ATOM      8  N   UNL d   1     -49.014  27.806  34.356  0.00  0.00    -0.152 NA
ATOM      9  C   UNL d   1     -49.654  27.406  34.105  0.00  0.00     0.303 A 
ATOM     10  O   UNL d   1     -48.250  28.327  35.389  0.00  0.00    -0.244 OA
ATOM     11  O   UNL d   1     -49.775  27.287  33.306  0.00  0.00    -0.263 OA
ATOM     12  C   UNL d   1     -49.299  27.753  36.444  0.00  0.00     0.105 C 
ENDROOT
BRANCH   4  13
ATOM     13  N   UNL d   1     -51.728  26.273  36.229  0.00  0.00    -0.137 N 
ATOM     14  C   UNL d   1     -52.383  25.773  36.191  0.00  0.00     0.118 C 
BRANCH  13  15
ATOM     15  C   UNL d   1     -51.666  26.481  37.022  0.00  0.00     0.098 C 
BRANCH  15  16
ATOM     16  C   UNL d   1     -52.026  26.013  37.603  0.00  0.00     0.018 A 
ATOM     17  C   UNL d   1     -52.853  25.933  37.610  0.00  0.00     0.002 A 
ATOM     18  C   UNL d   1     -53.214  25.465  38.191  0.00  0.00     0.000 A 
ATOM     19  C   UNL d   1     -52.748  25.082  38.759  0.00  0.00     0.000 A 
ATOM     20  C   UNL d   1     -51.922  25.166  38.746  0.00  0.00     0.000 A 
ATOM     21  C   UNL d   1     -51.561  25.634  38.165  0.00  0.00     0.002 A 
ENDBRANCH  15  16
ENDBRANCH  13  15
ENDBRANCH   4  13
BRANCH   5  22
ATOM     22  C   UNL d   1     -51.793  26.124  34.299  0.00  0.00     0.098 C 
BRANCH  22  23
ATOM     23  C   UNL d   1     -51.600  25.393  33.966  0.00  0.00     0.018 A 
ATOM     24  C   UNL d   1     -52.160  24.796  33.971  0.00  0.00     0.002 A 
ATOM     25  C   UNL d   1     -51.966  24.065  33.638  0.00  0.00     0.000 A 
ATOM     26  C   UNL d   1     -52.360  23.348  33.537  0.00  0.00     0.000 C 
ATOM     27  C   UNL d   1     -51.215  23.942  33.306  0.00  0.00     0.000 A 
ATOM     28  C   UNL d   1     -50.665  24.559  33.311  0.00  0.00     0.000 A 
ATOM     29  C   UNL d   1     -50.856  25.282  33.640  0.00  0.00     0.002 A 
ENDBRANCH  22  23
ENDBRANCH   5  22
TORSDOF 5
ENDMDL
MODEL 3
REMARK VINA RESULT:      98.6      1.145      3.049
REMARK  5 active torsions:
REMARK  status: ('A' for Active; 'I' for Inactive)
REMARK    1  A    between atoms: N_10  and  C_4 
REMARK    2  A    between atoms: C_11  and  N_5 
REMARK    3  A    between atoms: C_14  and  N_10 
REMARK    4  A    between atoms: C_15  and  C_11 
REMARK    5  A    between atoms: C_18  and  C_14 
ROOT
ATOM      1  C   UNL d   1     -48.453  31.432  34.037  0.00  0.00     0.191 A 
ATOM      2  C   UNL d   1     -47.758  31.408  34.400  0.00  0.00     0.174 A 
ATOM      3  N   UNL d   1     -48.912  30.785  33.978  0.00  0.00    -0.042 NA
ATOM      4  C   UNL d   1     -48.659  30.113  34.291  0.00  0.00     0.722 A 
ATOM      5  N   UNL d   1     -47.944  30.077  34.668  0.00  0.00    -0.132 N 
ATOM      6  N   UNL d   1     -48.714  32.121  33.715  0.00  0.00    -0.239 N 
ATOM      7  C   UNL d   1     -48.277  32.777  33.761  0.00  0.00     0.358 A 
ATOM      8  N   UNL d   1     -47.571  32.753  34.130  0.00  0.00    -0.152 NA
ATOM      9  C   UNL d   1     -47.310  32.072  34.449  0.00  0.00     0.303 A 
ATOM     10  O   UNL d   1     -48.538  33.465  33.439  0.00  0.00    -0.244 OA
ATOM     11  O   UNL d   1     -46.587  32.047  34.828  0.00  0.00    -0.263 OA
ATOM     12  C   UNL d   1     -49.428  32.145  33.342  0.00  0.00     0.105 C 
ENDROOT
BRANCH   4  13
ATOM     13  N   UNL d   1     -49.105  29.458  34.241  0.00  0.00    -0.137 N 
ATOM     14  C   UNL d   1     -49.333  28.867  34.769  0.00  0.00     0.118 C 
BRANCH  13  15
ATOM     15  C   UNL d   1     -49.456  29.252  33.526  0.00  0.00     0.098 C 
BRANCH  15  16
ATOM     16  C   UNL d   1     -49.858  28.532  33.454  0.00  0.00     0.018 A 
ATOM     17  C   UNL d   1     -50.687  28.531  33.395  0.00  0.00     0.002 A 
ATOM     18  C   UNL d   1     -51.090  27.810  33.322  0.00  0.00     0.000 A 
ATOM     19  C   UNL d   1     -50.665  27.099  33.311  0.00  0.00     0.000 A 
ATOM     20  C   UNL d   1     -49.837  27.108  33.371  0.00  0.00     0.000 A 
ATOM     21  C   UNL d   1     -49.434  27.829  33.443  0.00  0.00     0.002 A 
ENDBRANCH  15  16
ENDBRANCH  13  15
ENDBRANCH   4  13
BRANCH   5  22
ATOM     22  C   UNL d   1     -47.369  29.652  35.079  0.00  0.00     0.098 C 
BRANCH  22  23
ATOM     23  C   UNL d   1     -47.310  29.719  35.900  0.00  0.00     0.018 A 
ATOM     24  C   UNL d   1     -46.620  30.018  36.224  0.00  0.00     0.002 A 
ATOM     25  C   UNL d   1     -46.561  30.085  37.045  0.00  0.00     0.000 A 
ATOM     26  C   UNL d   1     -45.981  30.349  37.568  0.00  0.00     0.000 C 
ATOM     27  C   UNL d   1     -47.193  29.854  37.531  0.00  0.00     0.000 A 
ATOM     28  C   UNL d   1     -47.882  29.555  37.183  0.00  0.00     0.000 A 
ATOM     29  C   UNL d   1     -47.940  29.488  36.370  0.00  0.00     0.002 A 
ENDBRANCH  22  23
ENDBRANCH   5  22
TORSDOF 5
ENDMDL
MODEL 4
REMARK VINA RESULT:      99.2      3.278      5.293
REMARK  5 active torsions:
REMARK  status: ('A' for Active; 'I' for Inactive)
REMARK    1  A    between atoms: N_10  and  C_4 
REMARK    2  A    between atoms: C_11  and  N_5 
REMARK    3  A    between atoms: C_14  and  N_10 
REMARK    4  A    between atoms: C_15  and  C_11 
REMARK    5  A    between atoms: C_18  and  C_14 
ROOT
ATOM      1  C   UNL d   1     -49.724  26.917  34.543  0.00  0.00     0.191 A 
ATOM      2  C   UNL d   1     -49.888  27.330  35.189  0.00  0.00     0.174 A 
ATOM      3  N   UNL d   1     -50.253  26.414  34.226  0.00  0.00    -0.042 NA
ATOM      4  C   UNL d   1     -50.951  26.334  34.572  0.00  0.00     0.722 A 
ATOM      5  N   UNL d   1     -51.132  26.755  35.239  0.00  0.00    -0.132 N 
ATOM      6  N   UNL d   1     -49.008  26.997  34.186  0.00  0.00    -0.239 N 
ATOM      7  C   UNL d   1     -48.465  27.490  34.482  0.00  0.00     0.358 A 
ATOM      8  N   UNL d   1     -48.633  27.909  35.138  0.00  0.00    -0.152 NA
ATOM      9  C   UNL d   1     -49.340  27.831  35.492  0.00  0.00     0.303 A 
ATOM     10  O   UNL d   1     -47.749  27.570  34.125  0.00  0.00    -0.244 OA
ATOM     11  O   UNL d   1     -49.512  28.261  36.165  0.00  0.00    -0.263 OA
ATOM     12  C   UNL d   1     -48.839  26.572  33.522  0.00  0.00     0.105 C 
ENDROOT
BRANCH   4  13
ATOM     13  N   UNL d   1     -51.491  25.837  34.270  0.00  0.00    -0.137 N 
ATOM     14  C   UNL d   1     -52.307  25.744  34.348  0.00  0.00     0.118 C 
BRANCH  13  15
ATOM     15  C   UNL d   1     -51.260  25.247  33.746  0.00  0.00     0.098 C 
BRANCH  15  16
ATOM     16  C   UNL d   1     -51.760  24.603  33.599  0.00  0.00     0.018 A 
ATOM     17  C   UNL d   1     -51.438  23.840  33.539  0.00  0.00     0.002 A 
ATOM     18  C   UNL d   1     -51.939  23.196  33.392  0.00  0.00     0.000 A 
ATOM     19  C   UNL d   1     -52.754  23.318  33.306  0.00  0.00     0.000 A 
ATOM     20  C   UNL d   1     -53.068  24.085  33.367  0.00  0.00     0.000 A 
ATOM     21  C   UNL d   1     -52.568  24.728  33.514  0.00  0.00     0.002 A 
ENDBRANCH  15  16
ENDBRANCH  13  15
ENDBRANCH   4  13
BRANCH   5  22
ATOM     22  C   UNL d   1     -51.658  26.957  35.842  0.00  0.00     0.098 C 
BRANCH  22  23
ATOM     23  C   UNL d   1     -51.539  26.675  36.609  0.00  0.00     0.018 A 
ATOM     24  C   UNL d   1     -52.070  26.133  36.918  0.00  0.00     0.002 A 
ATOM     25  C   UNL d   1     -51.950  25.851  37.685  0.00  0.00     0.000 A 
ATOM     26  C   UNL d   1     -52.344  25.321  38.179  0.00  0.00     0.000 C 
ATOM     27  C   UNL d   1     -51.303  26.115  38.132  0.00  0.00     0.000 A 
ATOM     28  C   UNL d   1     -50.779  26.663  37.801  0.00  0.00     0.000 A 
ATOM     29  C   UNL d   1     -50.897  26.942  37.041  0.00  0.00     0.002 A 
ENDBRANCH  22  23
ENDBRANCH   5  22
TORSDOF 5
ENDMDL
MODEL 5
REMARK VINA RESULT:      99.2      2.950      5.816
REMARK  5 active torsions:
REMARK  status: ('A' for Active; 'I' for Inactive)
REMARK    1  A    between atoms: N_10  and  C_4 
REMARK    2  A    between atoms: C_11  and  N_5 
REMARK    3  A    between atoms: C_14  and  N_10 
REMARK    4  A    between atoms: C_15  and  C_11 
REMARK    5  A    between atoms: C_18  and  C_14 
ROOT
ATOM      1  C   UNL d   1     -51.031  26.721  36.131  0.00  0.00     0.191 A 
ATOM      2  C   UNL d   1     -51.619  26.286  35.848  0.00  0.00     0.174 A 
ATOM      3  N   UNL d   1     -50.507  27.075  35.648  0.00  0.00    -0.042 NA
ATOM      4  C   UNL d   1     -50.586  26.982  34.874  0.00  0.00     0.722 A 
ATOM      5  N   UNL d   1     -51.188  26.534  34.571  0.00  0.00    -0.132 N 
ATOM      6  N   UNL d   1     -50.949  26.818  36.925  0.00  0.00    -0.239 N 
ATOM      7  C   UNL d   1     -51.456  26.477  37.426  0.00  0.00     0.358 A 
ATOM      8  N   UNL d   1     -52.053  26.034  37.138  0.00  0.00    -0.152 NA
ATOM      9  C   UNL d   1     -52.136  25.937  36.353  0.00  0.00     0.303 A 
ATOM     10  O   UNL d   1     -51.374  26.574  38.219  0.00  0.00    -0.244 OA
ATOM     11  O   UNL d   1     -52.748  25.483  36.059  0.00  0.00    -0.263 OA
ATOM     12  C   UNL d   1     -50.345  27.266  37.215  0.00  0.00     0.105 C 
ENDROOT
BRANCH   4  13
ATOM     13  N   UNL d   1     -50.072  27.328  34.377  0.00  0.00    -0.137 N 
ATOM     14  C   UNL d   1     -50.138  27.744  33.667  0.00  0.00     0.118 C 
BRANCH  13  15
ATOM     15  C   UNL d   1     -49.267  27.310  34.539  0.00  0.00     0.098 C 
BRANCH  15  16
ATOM     16  C   UNL d   1     -48.856  28.016  34.677  0.00  0.00     0.018 A 
ATOM     17  C   UNL d   1     -48.238  28.029  35.233  0.00  0.00     0.002 A 
ATOM     18  C   UNL d   1     -47.827  28.734  35.371  0.00  0.00     0.000 A 
ATOM     19  C   UNL d   1     -48.034  29.420  34.954  0.00  0.00     0.000 A 
ATOM     20  C   UNL d   1     -48.652  29.400  34.400  0.00  0.00     0.000 A 
ATOM     21  C   UNL d   1     -49.063  28.694  34.262  0.00  0.00     0.002 A 
ENDBRANCH  15  16
ENDBRANCH  13  15
ENDBRANCH   4  13
BRANCH   5  22
ATOM     22  C   UNL d   1     -51.592  26.214  33.927  0.00  0.00     0.098 C 
BRANCH  22  23
ATOM     23  C   UNL d   1     -51.480  25.422  33.719  0.00  0.00     0.018 A 
ATOM     24  C   UNL d   1     -52.135  24.934  33.655  0.00  0.00     0.002 A 
ATOM     25  C   UNL d   1     -52.023  24.143  33.447  0.00  0.00     0.000 A 
ATOM     26  C   UNL d   1     -52.520  23.495  33.330  0.00  0.00     0.000 C 
ATOM     27  C   UNL d   1     -51.259  23.850  33.306  0.00  0.00     0.000 A 
ATOM     28  C   UNL d   1     -50.612  24.361  33.376  0.00  0.00     0.000 A 
ATOM     29  C   UNL d   1     -50.722  25.145  33.582  0.00  0.00     0.002 A 
ENDBRANCH  22  23
ENDBRANCH   5  22
TORSDOF 5
ENDMDL
