MODEL 1
REMARK VINA RESULT:      38.2      0.000      0.000
REMARK  3 active torsions:
REMARK  status: ('A' for Active; 'I' for Inactive)
REMARK       I    between atoms: C_6  and  N_9 
REMARK    1  A    between atoms: C_7  and  C_6 
REMARK    2  A    between atoms: N_9  and  C_17 
REMARK    3  A    between atoms: C_17  and  C_16 
ROOT
ATOM      1  N   UNL d   1      56.700  49.528  50.131  0.00  0.00    -0.304 N 
ATOM      2  C   UNL d   1      56.702  49.447  49.314  0.00  0.00     0.064 A 
ATOM      3  C   UNL d   1      57.479  49.581  50.387  0.00  0.00     0.064 A 
ATOM      4  C   UNL d   1      57.962  49.533  49.721  0.00  0.00     0.018 A 
ATOM      5  C   UNL d   1      57.484  49.451  49.064  0.00  0.00     0.019 A 
ATOM      6  C   UNL d   1      57.807  49.667  51.137  0.00  0.00     0.018 A 
ATOM      7  C   UNL d   1      58.790  49.571  49.808  0.00  0.00     0.003 A 
ATOM      8  C   UNL d   1      59.121  49.657  50.559  0.00  0.00     0.019 A 
ATOM      9  C   UNL d   1      58.627  49.706  51.227  0.00  0.00     0.003 A 
ATOM     10  C   UNL d   1      56.033  49.552  50.616  0.00  0.00     0.099 C 
ATOM     11  C   UNL d   1      56.040  49.376  48.829  0.00  0.00     0.019 C 
ENDROOT
BRANCH   8  12
ATOM     12  C   UNL d   1      59.938  49.695  50.647  0.00  0.00     0.102 C 
BRANCH  12  13
ATOM     13  N   UNL d   1      60.276  49.684  51.389  0.00  0.00    -0.206 NA
ATOM     14  C   UNL d   1      61.088  49.683  51.482  0.00  0.00     0.285 C 
ATOM     15  O   UNL d   1      61.574  49.693  50.817  0.00  0.00    -0.265 OA
BRANCH  14  16
ATOM     16  C   UNL d   1      61.432  49.672  52.233  0.00  0.00     0.087 A 
ATOM     17  S   UNL d   1      62.237  49.625  52.404  0.00  0.00    -0.082 SA
ATOM     18  C   UNL d   1      62.321  49.631  53.222  0.00  0.00     0.036 A 
ATOM     19  C   UNL d   1      61.569  49.682  53.568  0.00  0.00     0.008 A 
ATOM     20  C   UNL d   1      61.021  49.707  52.951  0.00  0.00     0.012 A 
ENDBRANCH  14  16
ENDBRANCH  12  13
ENDBRANCH   8  12
TORSDOF 3
ENDMDL
