MODEL 1
REMARK VINA RESULT:      32.1      0.000      0.000
REMARK  3 active torsions:
REMARK  status: ('A' for Active; 'I' for Inactive)
REMARK       I    between atoms: C_6  and  N_1 
REMARK    1  A    between atoms: C_7  and  C_3 
REMARK    2  A    between atoms: C_8  and  C_4 
REMARK    3  A    between atoms: C_20  and  C_18 
ROOT
ATOM      1  N   UNL d   1      15.021  12.857  -1.229  0.00  0.00    -0.193 N 
ATOM      2  N   UNL d   1      14.685  12.366  -1.786  0.00  0.00    -0.163 NA
ATOM      3  C   UNL d   1      14.901  13.640  -1.464  0.00  0.00     0.110 A 
ATOM      4  C   UNL d   1      14.356  12.846  -2.369  0.00  0.00     0.103 A 
ATOM      5  C   UNL d   1      14.491  13.619  -2.167  0.00  0.00     0.042 A 
ATOM      6  C   UNL d   1      15.427  12.610  -0.522  0.00  0.00     0.281 C 
ATOM      7  O   UNL d   1      15.732  13.157  -0.019  0.00  0.00    -0.265 OA
ATOM      8  C   UNL d   1      15.499  11.802  -0.369  0.00  0.00     0.068 C 
ENDROOT
BRANCH   4   9
ATOM      9  C   UNL d   1      13.960  12.582  -3.041  0.00  0.00     0.019 A 
ATOM     10  C   UNL d   1      13.196  12.849  -3.207  0.00  0.00     0.002 A 
ATOM     11  C   UNL d   1      12.799  12.585  -3.878  0.00  0.00     0.000 A 
ATOM     12  C   UNL d   1      13.168  12.047  -4.391  0.00  0.00     0.000 A 
ATOM     13  C   UNL d   1      13.929  11.779  -4.227  0.00  0.00     0.000 A 
ATOM     14  C   UNL d   1      14.328  12.044  -3.553  0.00  0.00     0.002 A 
BRANCH  12  15
ATOM     15  C   UNL d   1      12.770  11.782  -5.064  0.00  0.00     0.000 C 
ATOM     16  C   UNL d   1      13.095  11.901  -5.812  0.00  0.00     0.000 C 
ENDBRANCH  12  15
ENDBRANCH   4   9
BRANCH   3  17
ATOM     17  C   UNL d   1      15.156  14.312  -1.050  0.00  0.00     0.118 A 
ATOM     18  O   UNL d   1      15.757  14.332  -0.491  0.00  0.00    -0.304 OA
ATOM     19  C   UNL d   1      15.839  15.116  -0.207  0.00  0.00     0.123 A 
ATOM     20  C   UNL d   1      15.278  15.580  -0.602  0.00  0.00     0.029 A 
ATOM     21  C   UNL d   1      14.862  15.065  -1.123  0.00  0.00     0.028 A 
ENDBRANCH   3  17
TORSDOF 3
ENDMDL
