MODEL 1
REMARK VINA RESULT:      42.4      0.000      0.000
REMARK  6 active torsions:
REMARK  status: ('A' for Active; 'I' for Inactive)
REMARK    1  A    between atoms: S_9  and  C_4 
REMARK    2  A    between atoms: C_15  and  S_9 
REMARK    3  A    between atoms: C_11  and  C_15 
REMARK    4  A    between atoms: O_14  and  C_11 
REMARK    5  A    between atoms: C_17  and  O_14 
REMARK    6  A    between atoms: C_18  and  C_17 
ROOT
ATOM      1  C   UNL d   1     -51.586  24.178  33.401  0.00  0.00     0.104 A 
ATOM      2  N   UNL d   1     -50.452  25.040  33.340  0.00  0.00    -0.251 N 
ATOM      3  C   UNL d   1     -50.779  24.275  33.370  0.00  0.00     0.274 A 
ATOM      4  C   UNL d   1     -50.951  25.697  33.341  0.00  0.00     0.182 A 
ATOM      5  C   UNL d   1     -52.085  24.835  33.402  0.00  0.00     0.095 A 
ATOM      6  N   UNL d   1     -51.777  25.588  33.373  0.00  0.00    -0.222 NA
ATOM      7  S   UNL d   1     -52.056  23.504  33.435  0.00  0.00    -0.081 SA
ATOM      8  C   UNL d   1     -52.864  24.566  33.436  0.00  0.00     0.026 A 
ATOM      9  O   UNL d   1     -50.279  23.618  33.369  0.00  0.00    -0.266 OA
ATOM     10  C   UNL d   1     -52.848  23.749  33.456  0.00  0.00     0.031 A 
ATOM     11  C   UNL d   1     -49.628  25.143  33.308  0.00  0.00     0.104 C 
ATOM     12  C   UNL d   1     -53.512  23.261  33.492  0.00  0.00     0.007 C 
ENDROOT
BRANCH   4  13
ATOM     13  S   UNL d   1     -50.635  26.468  33.310  0.00  0.00    -0.044 SA
BRANCH  13  14
ATOM     14  C   UNL d   1     -50.236  26.771  33.967  0.00  0.00     0.107 C 
BRANCH  14  15
ATOM     15  C   UNL d   1     -49.952  27.546  33.955  0.00  0.00     0.307 C 
ATOM     16  O   UNL d   1     -50.219  28.075  33.380  0.00  0.00    -0.258 OA
BRANCH  15  17
ATOM     17  O   UNL d   1     -49.401  27.792  34.518  0.00  0.00    -0.271 OA
BRANCH  17  18
ATOM     18  C   UNL d   1     -48.972  28.487  34.398  0.00  0.00     0.126 C 
BRANCH  18  19
ATOM     19  C   UNL d   1     -48.496  28.783  34.998  0.00  0.00     0.025 A 
ATOM     20  C   UNL d   1     -47.846  29.256  34.813  0.00  0.00     0.002 A 
ATOM     21  C   UNL d   1     -47.368  29.554  35.416  0.00  0.00     0.000 A 
ATOM     22  C   UNL d   1     -47.541  29.379  36.204  0.00  0.00     0.000 A 
ATOM     23  C   UNL d   1     -48.187  28.911  36.383  0.00  0.00     0.000 A 
ATOM     24  C   UNL d   1     -48.665  28.613  35.780  0.00  0.00     0.002 A 
ENDBRANCH  18  19
ENDBRANCH  17  18
ENDBRANCH  15  17
ENDBRANCH  14  15
ENDBRANCH  13  14
ENDBRANCH   4  13
TORSDOF 6
ENDMDL
