MODEL 1
REMARK VINA RESULT:      -2.7      0.000      0.000
REMARK  5 active torsions:
REMARK  status: ('A' for Active; 'I' for Inactive)
REMARK    1  A    between atoms: N_2  and  S_1 
REMARK    2  A    between atoms: C_3  and  S_1 
REMARK    3  A    between atoms: C_14  and  C_5 
REMARK    4  A    between atoms: O_15  and  C_8 
REMARK    5  A    between atoms: C_18  and  C_14 
ROOT
ATOM      1  C   UNL d   1     -41.538-123.086 -51.977  0.00  0.00     0.104 A 
ATOM      2  C   UNL d   1     -41.750-122.425 -52.424  0.00  0.00     0.015 A 
ATOM      3  C   UNL d   1     -41.651-122.430 -53.244  0.00  0.00     0.023 A 
ATOM      4  C   UNL d   1     -41.340-123.096 -53.619  0.00  0.00     0.094 A 
ATOM      5  C   UNL d   1     -41.228-123.752 -52.353  0.00  0.00     0.015 A 
ATOM      6  C   UNL d   1     -41.129-123.757 -53.173  0.00  0.00     0.025 A 
ENDROOT
BRANCH   1   7
ATOM      7  S   UNL d   1     -41.637-123.081 -51.157  0.00  0.00     0.272 S 
ATOM      8  O   UNL d   1     -42.049-123.796 -51.203  0.00  0.00    -0.200 OA
ATOM      9  O   UNL d   1     -41.225-122.366 -51.112  0.00  0.00    -0.200 OA
BRANCH   7  10
ATOM     10  N   UNL d   1     -41.736-123.076 -50.340  0.00  0.00    -0.225 N 
ATOM     11  C   UNL d   1     -41.262-123.555 -49.864  0.00  0.00     0.118 A 
ATOM     12  C   UNL d   1     -41.361-123.550 -49.043  0.00  0.00     0.142 A 
ATOM     13  O   UNL d   1     -41.934-123.067 -48.699  0.00  0.00    -0.300 OA
ATOM     14  C   UNL d   1     -42.408-122.588 -49.175  0.00  0.00     0.142 A 
ATOM     15  C   UNL d   1     -42.309-122.593 -49.996  0.00  0.00     0.118 A 
ENDBRANCH   7  10
ENDBRANCH   1   7
BRANCH   3  16
ATOM     16  C   UNL d   1     -41.862-121.770 -53.690  0.00  0.00     0.002 C 
ATOM     17  C   UNL d   1     -41.519-121.037 -53.526  0.00  0.00     0.000 C 
BRANCH  16  18
ATOM     18  C   UNL d   1     -42.414-121.841 -54.300  0.00  0.00     0.000 C 
ATOM     19  C   UNL d   1     -42.643-121.175 -54.731  0.00  0.00     0.000 C 
ENDBRANCH  16  18
ENDBRANCH   3  16
BRANCH   4  20
ATOM     20  O   UNL d   1     -41.241-123.101 -54.439  0.00  0.00    -0.328 OA
ATOM     21  C   UNL d   1     -41.172-123.817 -54.844  0.00  0.00     0.181 C 
ENDBRANCH   4  20
TORSDOF 5
ENDMDL
MODEL 2
REMARK VINA RESULT:      -2.4      1.222      1.719
REMARK  5 active torsions:
REMARK  status: ('A' for Active; 'I' for Inactive)
REMARK    1  A    between atoms: N_2  and  S_1 
REMARK    2  A    between atoms: C_3  and  S_1 
REMARK    3  A    between atoms: C_14  and  C_5 
REMARK    4  A    between atoms: O_15  and  C_8 
REMARK    5  A    between atoms: C_18  and  C_14 
ROOT
ATOM      1  C   UNL d   1     -41.740-123.168 -50.621  0.00  0.00     0.104 A 
ATOM      2  C   UNL d   1     -41.727-122.408 -50.944  0.00  0.00     0.015 A 
ATOM      3  C   UNL d   1     -41.522-122.299 -51.736  0.00  0.00     0.023 A 
ATOM      4  C   UNL d   1     -41.328-122.948 -52.208  0.00  0.00     0.094 A 
ATOM      5  C   UNL d   1     -41.547-123.817 -51.092  0.00  0.00     0.015 A 
ATOM      6  C   UNL d   1     -41.341-123.707 -51.885  0.00  0.00     0.025 A 
ENDROOT
BRANCH   1   7
ATOM      7  S   UNL d   1     -41.946-123.278 -49.828  0.00  0.00     0.272 S 
ATOM      8  O   UNL d   1     -41.170-123.506 -49.659  0.00  0.00    -0.200 OA
ATOM      9  O   UNL d   1     -42.722-123.049 -49.998  0.00  0.00    -0.200 OA
BRANCH   7  10
ATOM     10  N   UNL d   1     -42.151-123.387 -49.039  0.00  0.00    -0.225 N 
ATOM     11  C   UNL d   1     -41.563-123.499 -48.471  0.00  0.00     0.118 A 
ATOM     12  C   UNL d   1     -41.769-123.609 -47.678  0.00  0.00     0.142 A 
ATOM     13  O   UNL d   1     -42.563-123.607 -47.453  0.00  0.00    -0.300 OA
ATOM     14  C   UNL d   1     -43.150-123.496 -48.021  0.00  0.00     0.142 A 
ATOM     15  C   UNL d   1     -42.945-123.386 -48.814  0.00  0.00     0.118 A 
ENDBRANCH   7  10
ENDBRANCH   1   7
BRANCH   3  16
ATOM     16  C   UNL d   1     -41.508-121.540 -52.059  0.00  0.00     0.002 C 
ATOM     17  C   UNL d   1     -41.566-121.442 -52.876  0.00  0.00     0.000 C 
BRANCH  16  18
ATOM     18  C   UNL d   1     -41.438-120.881 -51.566  0.00  0.00     0.000 C 
ATOM     19  C   UNL d   1     -41.280-120.138 -51.889  0.00  0.00     0.000 C 
ENDBRANCH  16  18
ENDBRANCH   3  16
BRANCH   4  20
ATOM     20  O   UNL d   1     -41.123-122.838 -53.000  0.00  0.00    -0.328 OA
ATOM     21  C   UNL d   1     -41.152-123.472 -53.527  0.00  0.00     0.181 C 
ENDBRANCH   4  20
TORSDOF 5
ENDMDL
MODEL 3
REMARK VINA RESULT:      -1.9      1.175      4.253
REMARK  5 active torsions:
REMARK  status: ('A' for Active; 'I' for Inactive)
REMARK    1  A    between atoms: N_2  and  S_1 
REMARK    2  A    between atoms: C_3  and  S_1 
REMARK    3  A    between atoms: C_14  and  C_5 
REMARK    4  A    between atoms: O_15  and  C_8 
REMARK    5  A    between atoms: C_18  and  C_14 
ROOT
ATOM      1  C   UNL d   1     -41.736-122.826 -50.804  0.00  0.00     0.104 A 
ATOM      2  C   UNL d   1     -42.377-123.196 -50.438  0.00  0.00     0.015 A 
ATOM      3  C   UNL d   1     -42.404-123.258 -49.615  0.00  0.00     0.023 A 
ATOM      4  C   UNL d   1     -41.790-122.950 -49.156  0.00  0.00     0.094 A 
ATOM      5  C   UNL d   1     -41.123-122.519 -50.346  0.00  0.00     0.015 A 
ATOM      6  C   UNL d   1     -41.150-122.581 -49.522  0.00  0.00     0.025 A 
ENDROOT
BRANCH   1   7
ATOM      7  S   UNL d   1     -41.709-122.764 -51.628  0.00  0.00     0.272 S 
ATOM      8  O   UNL d   1     -41.218-123.428 -51.661  0.00  0.00    -0.200 OA
ATOM      9  O   UNL d   1     -42.200-122.100 -51.594  0.00  0.00    -0.200 OA
BRANCH   7  10
ATOM     10  N   UNL d   1     -41.682-122.702 -52.448  0.00  0.00    -0.225 N 
ATOM     11  C   UNL d   1     -42.155-122.150 -52.836  0.00  0.00     0.118 A 
ATOM     12  C   UNL d   1     -42.128-122.088 -53.661  0.00  0.00     0.142 A 
ATOM     13  O   UNL d   1     -41.627-122.578 -54.095  0.00  0.00    -0.300 OA
ATOM     14  C   UNL d   1     -41.154-123.131 -53.707  0.00  0.00     0.142 A 
ATOM     15  C   UNL d   1     -41.181-123.193 -52.883  0.00  0.00     0.118 A 
ENDBRANCH   7  10
ENDBRANCH   1   7
BRANCH   3  16
ATOM     16  C   UNL d   1     -43.044-123.626 -49.248  0.00  0.00     0.002 C 
ATOM     17  C   UNL d   1     -43.002-123.817 -48.447  0.00  0.00     0.000 C 
BRANCH  16  18
ATOM     18  C   UNL d   1     -43.724-123.805 -49.682  0.00  0.00     0.000 C 
ATOM     19  C   UNL d   1     -44.461-123.809 -49.312  0.00  0.00     0.000 C 
ENDBRANCH  16  18
ENDBRANCH   3  16
BRANCH   4  20
ATOM     20  O   UNL d   1     -41.818-123.012 -48.333  0.00  0.00    -0.328 OA
ATOM     21  C   UNL d   1     -41.151-122.831 -47.882  0.00  0.00     0.181 C 
ENDBRANCH   4  20
TORSDOF 5
ENDMDL
