MODEL 1
REMARK VINA RESULT:       0.4      0.000      0.000
REMARK  9 active torsions:
REMARK  status: ('A' for Active; 'I' for Inactive)
REMARK    1  A    between atoms: C_21  and  N_1 
REMARK    2  A    between atoms: S_17  and  C_3 
REMARK    3  A    between atoms: C_16  and  C_32 
REMARK       I    between atoms: N_19  and  C_16 
REMARK    4  A    between atoms: C_29  and  S_17 
REMARK    5  A    between atoms: C_22  and  N_19 
REMARK    6  A    between atoms: C_31  and  C_21 
REMARK    7  A    between atoms: C_23  and  C_22 
REMARK    8  A    between atoms: O_30  and  C_24 
REMARK    9  A    between atoms: C_32  and  C_31 
ROOT
ATOM      1  N   UNL d   1      61.133  -3.657  30.447  0.00  0.00    -0.195 NA
ATOM      2  C   UNL d   1      61.091  -3.120  29.825  0.00  0.00     0.086 C 
ATOM      3  C   UNL d   1      61.063  -2.583  29.197  0.00  0.00     0.170 C 
ENDROOT
BRANCH   3   4
ATOM      4  S   UNL d   1      60.357  -2.196  29.020  0.00  0.00    -0.060 SA
BRANCH   4   5
ATOM      5  C   UNL d   1      59.648  -2.645  28.902  0.00  0.00     0.178 A 
ATOM      6  N   UNL d   1      58.948  -2.251  28.782  0.00  0.00    -0.253 N 
ATOM      7  C   UNL d   1      58.249  -2.680  28.665  0.00  0.00     0.268 A 
ATOM      8  C   UNL d   1      58.258  -3.513  28.670  0.00  0.00     0.076 A 
ATOM      9  O   UNL d   1      57.540  -2.281  28.544  0.00  0.00    -0.267 OA
ATOM     10  C   UNL d   1      57.560  -3.939  28.553  0.00  0.00     0.033 A 
ATOM     11  C   UNL d   1      58.958  -3.907  28.789  0.00  0.00     0.090 A 
ATOM     12  C   UNL d   1      57.563  -4.783  28.557  0.00  0.00     0.119 A 
ATOM     13  O   UNL d   1      56.962  -5.369  28.457  0.00  0.00    -0.300 OA
ATOM     14  C   UNL d   1      58.265  -5.173  28.677  0.00  0.00     0.121 A 
ATOM     15  C   UNL d   1      57.293  -6.126  28.515  0.00  0.00     0.304 A 
ATOM     16  O   UNL d   1      58.096  -5.996  28.651  0.00  0.00    -0.299 OA
ATOM     17  C   UNL d   1      58.966  -4.739  28.794  0.00  0.00     0.046 A 
ATOM     18  N   UNL d   1      59.659  -3.473  28.906  0.00  0.00    -0.222 NA
BRANCH   6  19
ATOM     19  C   UNL d   1      58.948  -1.403  28.779  0.00  0.00     0.085 C 
BRANCH  19  20
ATOM     20  C   UNL d   1      58.293  -1.003  29.076  0.00  0.00     0.024 C 
BRANCH  20  21
ATOM     21  C   UNL d   1      58.382  -0.218  29.322  0.00  0.00     0.064 C 
BRANCH  21  22
ATOM     22  C   UNL d   1      57.719   0.268  29.387  0.00  0.00     0.279 C 
ATOM     23  N   UNL d   1      57.333   0.340  30.111  0.00  0.00    -0.206 NA
ATOM     24  O   UNL d   1      57.443   0.682  28.725  0.00  0.00    -0.265 OA
BRANCH  23  25
ATOM     25  C   UNL d   1      57.610  -0.073  30.765  0.00  0.00     0.102 C 
BRANCH  25  26
ATOM     26  C   UNL d   1      57.097  -0.210  31.406  0.00  0.00     0.019 A 
ATOM     27  C   UNL d   1      57.046  -0.948  31.738  0.00  0.00     0.004 A 
ATOM     28  C   UNL d   1      56.539  -1.076  32.369  0.00  0.00     0.024 A 
ATOM     29  C   UNL d   1      56.080  -0.465  32.671  0.00  0.00     0.094 A 
ATOM     30  C   UNL d   1      56.134   0.283  32.331  0.00  0.00     0.024 A 
ATOM     31  C   UNL d   1      56.647   0.420  31.690  0.00  0.00     0.004 A 
BRANCH  29  32
ATOM     32  O   UNL d   1      55.571  -0.593  33.305  0.00  0.00    -0.328 OA
ATOM     33  C   UNL d   1      55.826  -0.391  34.062  0.00  0.00     0.181 C 
ENDBRANCH  29  32
ENDBRANCH  25  26
ENDBRANCH  23  25
ENDBRANCH  21  22
ENDBRANCH  20  21
ENDBRANCH  19  20
ENDBRANCH   6  19
ENDBRANCH   4   5
ENDBRANCH   3   4
TORSDOF 9
ENDMDL
