MODEL 1
REMARK VINA RESULT:       9.0      0.000      0.000
REMARK  5 active torsions:
REMARK  status: ('A' for Active; 'I' for Inactive)
REMARK    1  A    between atoms: C_3  and  C_1 
REMARK    2  A    between atoms: C_7  and  C_3 
REMARK    3  A    between atoms: N_9  and  C_3 
REMARK    4  A    between atoms: C_17  and  C_8 
REMARK    5  A    between atoms: C_10  and  N_9 
ROOT
ATOM      1  C   UNL d   1     -41.787-121.741 -51.727  0.00  0.00     0.111 C 
ENDROOT
BRANCH   1   2
ATOM      2  C   UNL d   1     -41.859-122.047 -52.500  0.00  0.00     0.160 A 
ATOM      3  C   UNL d   1     -41.540-122.782 -52.693  0.00  0.00     0.258 A 
ATOM      4  C   UNL d   1     -41.622-123.069 -53.469  0.00  0.00     0.238 A 
ATOM      5  O   UNL d   1     -41.133-123.250 -52.122  0.00  0.00    -0.281 OA
ATOM      6  O   UNL d   1     -41.299-123.815 -53.664  0.00  0.00    -0.283 OA
ATOM      7  C   UNL d   1     -42.015-122.634 -54.049  0.00  0.00     0.073 A 
ATOM      8  C   UNL d   1     -42.334-121.899 -53.857  0.00  0.00     0.146 A 
ATOM      9  O   UNL d   1     -42.255-121.610 -53.087  0.00  0.00    -0.299 OA
BRANCH   8  10
ATOM     10  C   UNL d   1     -42.729-121.475 -54.463  0.00  0.00     0.259 C 
ATOM     11  O   UNL d   1     -42.302-121.121 -55.069  0.00  0.00    -0.281 OA
ENDBRANCH   8  10
ENDBRANCH   1   2
BRANCH   1  12
ATOM     12  C   UNL d   1     -42.407-121.880 -51.178  0.00  0.00     0.047 A 
ATOM     13  C   UNL d   1     -42.244-122.240 -50.454  0.00  0.00     0.142 A 
ATOM     14  F   UNL d   1     -41.779-122.388 -50.312  0.00  0.00    -0.204 F 
ATOM     15  C   UNL d   1     -42.843-122.382 -49.906  0.00  0.00     0.030 A 
ATOM     16  C   UNL d   1     -43.617-122.161 -50.084  0.00  0.00     0.002 A 
ATOM     17  C   UNL d   1     -43.779-121.801 -50.808  0.00  0.00     0.000 A 
ATOM     18  C   UNL d   1     -43.181-121.659 -51.356  0.00  0.00     0.004 A 
ENDBRANCH   1  12
BRANCH   1  19
ATOM     19  N   UNL d   1     -41.124-121.312 -51.506  0.00  0.00    -0.225 NA
BRANCH  19  20
ATOM     20  C   UNL d   1     -41.138-120.473 -51.512  0.00  0.00     0.163 A 
ATOM     21  N   UNL d   1     -41.124-120.063 -52.217  0.00  0.00    -0.225 NA
ATOM     22  C   UNL d   1     -41.137-119.248 -52.222  0.00  0.00     0.101 A 
ATOM     23  C   UNL d   1     -41.167-118.822 -51.496  0.00  0.00     0.021 A 
ATOM     24  C   UNL d   1     -41.182-119.232 -50.790  0.00  0.00     0.005 A 
ATOM     25  C   UNL d   1     -41.168-120.067 -50.783  0.00  0.00     0.039 A 
ENDBRANCH  19  20
ENDBRANCH   1  19
TORSDOF 5
ENDMDL
MODEL 2
REMARK VINA RESULT:      11.8      1.199      2.516
REMARK  5 active torsions:
REMARK  status: ('A' for Active; 'I' for Inactive)
REMARK    1  A    between atoms: C_3  and  C_1 
REMARK    2  A    between atoms: C_7  and  C_3 
REMARK    3  A    between atoms: N_9  and  C_3 
REMARK    4  A    between atoms: C_17  and  C_8 
REMARK    5  A    between atoms: C_10  and  N_9 
ROOT
ATOM      1  C   UNL d   1     -42.144-122.593 -51.523  0.00  0.00     0.111 C 
ENDROOT
BRANCH   1   2
ATOM      2  C   UNL d   1     -42.104-122.639 -52.356  0.00  0.00     0.160 A 
ATOM      3  C   UNL d   1     -41.634-123.208 -52.723  0.00  0.00     0.258 A 
ATOM      4  C   UNL d   1     -41.607-123.237 -53.553  0.00  0.00     0.238 A 
ATOM      5  O   UNL d   1     -41.180-123.761 -52.277  0.00  0.00    -0.281 OA
ATOM      6  O   UNL d   1     -41.131-123.814 -53.926  0.00  0.00    -0.283 OA
ATOM      7  C   UNL d   1     -42.041-122.709 -54.017  0.00  0.00     0.073 A 
ATOM      8  C   UNL d   1     -42.510-122.140 -53.650  0.00  0.00     0.146 A 
ATOM      9  O   UNL d   1     -42.540-122.108 -52.825  0.00  0.00    -0.299 OA
BRANCH   8  10
ATOM     10  C   UNL d   1     -42.942-121.615 -54.140  0.00  0.00     0.259 C 
ATOM     11  O   UNL d   1     -42.548-121.097 -54.643  0.00  0.00    -0.281 OA
ENDBRANCH   8  10
ENDBRANCH   1   2
BRANCH   1  12
ATOM     12  C   UNL d   1     -41.879-121.894 -51.144  0.00  0.00     0.047 A 
ATOM     13  C   UNL d   1     -41.395-121.944 -50.478  0.00  0.00     0.142 A 
ATOM     14  F   UNL d   1     -41.241-122.384 -50.274  0.00  0.00    -0.204 F 
ATOM     15  C   UNL d   1     -41.126-121.265 -50.095  0.00  0.00     0.030 A 
ATOM     16  C   UNL d   1     -41.345-120.524 -50.382  0.00  0.00     0.002 A 
ATOM     17  C   UNL d   1     -41.828-120.474 -51.047  0.00  0.00     0.000 A 
ATOM     18  C   UNL d   1     -42.097-121.153 -51.431  0.00  0.00     0.004 A 
ENDBRANCH   1  12
BRANCH   1  19
ATOM     19  N   UNL d   1     -42.439-123.219 -51.083  0.00  0.00    -0.225 NA
BRANCH  19  20
ATOM     20  C   UNL d   1     -43.147-123.133 -50.641  0.00  0.00     0.163 A 
ATOM     21  N   UNL d   1     -43.614-122.471 -50.732  0.00  0.00    -0.225 NA
ATOM     22  C   UNL d   1     -44.302-122.387 -50.302  0.00  0.00     0.101 A 
ATOM     23  C   UNL d   1     -44.535-122.987 -49.759  0.00  0.00     0.021 A 
ATOM     24  C   UNL d   1     -44.067-123.650 -49.667  0.00  0.00     0.005 A 
ATOM     25  C   UNL d   1     -43.363-123.737 -50.107  0.00  0.00     0.039 A 
ENDBRANCH  19  20
ENDBRANCH   1  19
TORSDOF 5
ENDMDL
