MODEL 1
REMARK VINA RESULT:      -3.3      0.000      0.000
REMARK  4 active torsions:
REMARK  status: ('A' for Active; 'I' for Inactive)
REMARK    1  A    between atoms: C_7  and  N_1 
REMARK    2  A    between atoms: C_8  and  C_7 
REMARK       I    between atoms: N_11  and  C_8 
REMARK    3  A    between atoms: C_13  and  N_11 
REMARK    4  A    between atoms: C_15  and  C_13 
ROOT
ATOM      1  C   UNL d   1      32.790  18.264 -23.701  0.00  0.00     0.148 C 
ENDROOT
BRANCH   1   2
ATOM      2  N   UNL d   1      32.264  17.640 -23.819  0.00  0.00    -0.235 N 
ATOM      3  C   UNL d   1      31.505  17.792 -24.114  0.00  0.00     0.273 A 
ATOM      4  C   UNL d   1      30.983  17.174 -24.231  0.00  0.00     0.086 A 
ATOM      5  O   UNL d   1      31.279  18.568 -24.290  0.00  0.00    -0.266 OA
ATOM      6  C   UNL d   1      30.222  17.328 -24.528  0.00  0.00     0.012 C 
ATOM      7  S   UNL d   1      31.199  16.403 -24.059  0.00  0.00    -0.077 SA
ATOM      8  C   UNL d   1      31.949  16.248 -23.766  0.00  0.00     0.086 A 
ATOM      9  C   UNL d   1      32.487  16.861 -23.643  0.00  0.00     0.273 A 
ATOM     10  C   UNL d   1      32.173  15.474 -23.591  0.00  0.00     0.012 C 
ATOM     11  O   UNL d   1      33.241  16.709 -23.350  0.00  0.00    -0.266 OA
ENDBRANCH   1   2
BRANCH   1  12
ATOM     12  C   UNL d   1      32.928  18.546 -22.940  0.00  0.00     0.297 C 
ATOM     13  N   UNL d   1      32.867  19.348 -22.773  0.00  0.00    -0.205 NA
ATOM     14  O   UNL d   1      33.129  18.017 -22.340  0.00  0.00    -0.264 OA
BRANCH  13  15
ATOM     15  C   UNL d   1      33.002  19.636 -22.018  0.00  0.00     0.102 C 
BRANCH  15  16
ATOM     16  C   UNL d   1      32.914  20.439 -21.845  0.00  0.00     0.019 A 
ATOM     17  C   UNL d   1      32.499  20.667 -21.169  0.00  0.00     0.004 A 
ATOM     18  C   UNL d   1      32.409  21.471 -20.992  0.00  0.00     0.030 A 
ATOM     19  C   UNL d   1      32.733  22.035 -21.493  0.00  0.00     0.140 A 
ATOM     20  C   UNL d   1      33.148  21.808 -22.169  0.00  0.00     0.030 A 
ATOM     21  F   UNL d   1      32.648  22.842 -21.324  0.00  0.00    -0.204 F 
ATOM     22  C   UNL d   1      33.241  21.002 -22.349  0.00  0.00     0.004 A 
ENDBRANCH  15  16
ENDBRANCH  13  15
ENDBRANCH   1  12
TORSDOF 4
ENDMDL
MODEL 2
REMARK VINA RESULT:      -3.1      2.955      5.231
REMARK  4 active torsions:
REMARK  status: ('A' for Active; 'I' for Inactive)
REMARK    1  A    between atoms: C_7  and  N_1 
REMARK    2  A    between atoms: C_8  and  C_7 
REMARK       I    between atoms: N_11  and  C_8 
REMARK    3  A    between atoms: C_13  and  N_11 
REMARK    4  A    between atoms: C_15  and  C_13 
ROOT
ATOM      1  C   UNL d   1      32.165  21.191 -21.295  0.00  0.00     0.148 C 
ENDROOT
BRANCH   1   2
ATOM      2  N   UNL d   1      32.437  21.953 -21.133  0.00  0.00    -0.235 N 
ATOM      3  C   UNL d   1      32.665  22.449 -21.756  0.00  0.00     0.273 A 
ATOM      4  C   UNL d   1      32.934  23.204 -21.596  0.00  0.00     0.086 A 
ATOM      5  O   UNL d   1      32.621  22.179 -22.536  0.00  0.00    -0.266 OA
ATOM      6  C   UNL d   1      33.164  23.701 -22.222  0.00  0.00     0.012 C 
ATOM      7  S   UNL d   1      32.982  23.480 -20.826  0.00  0.00    -0.077 SA
ATOM      8  C   UNL d   1      32.757  22.992 -20.207  0.00  0.00     0.086 A 
ATOM      9  C   UNL d   1      32.483  22.227 -20.352  0.00  0.00     0.273 A 
ATOM     10  C   UNL d   1      32.802  23.262 -19.429  0.00  0.00     0.012 C 
ATOM     11  O   UNL d   1      32.256  21.735 -19.732  0.00  0.00    -0.266 OA
ENDBRANCH   1   2
BRANCH   1  12
ATOM     12  C   UNL d   1      32.702  20.569 -21.356  0.00  0.00     0.297 C 
ATOM     13  N   UNL d   1      32.705  20.082 -22.017  0.00  0.00    -0.205 NA
ATOM     14  O   UNL d   1      33.241  20.435 -20.746  0.00  0.00    -0.264 OA
BRANCH  13  15
ATOM     15  C   UNL d   1      33.236  19.461 -22.085  0.00  0.00     0.102 C 
BRANCH  15  16
ATOM     16  C   UNL d   1      33.161  18.898 -22.685  0.00  0.00     0.019 A 
ATOM     17  C   UNL d   1      33.231  18.097 -22.503  0.00  0.00     0.004 A 
ATOM     18  C   UNL d   1      33.157  17.529 -23.101  0.00  0.00     0.030 A 
ATOM     19  C   UNL d   1      33.012  17.771 -23.873  0.00  0.00     0.140 A 
ATOM     20  C   UNL d   1      32.941  18.572 -24.055  0.00  0.00     0.030 A 
ATOM     21  F   UNL d   1      32.935  17.211 -24.478  0.00  0.00    -0.204 F 
ATOM     22  C   UNL d   1      33.015  19.144 -23.457  0.00  0.00     0.004 A 
ENDBRANCH  15  16
ENDBRANCH  13  15
ENDBRANCH   1  12
TORSDOF 4
ENDMDL
MODEL 3
REMARK VINA RESULT:      -2.8      0.562      1.426
REMARK  4 active torsions:
REMARK  status: ('A' for Active; 'I' for Inactive)
REMARK    1  A    between atoms: C_7  and  N_1 
REMARK    2  A    between atoms: C_8  and  C_7 
REMARK       I    between atoms: N_11  and  C_8 
REMARK    3  A    between atoms: C_13  and  N_11 
REMARK    4  A    between atoms: C_15  and  C_13 
ROOT
ATOM      1  C   UNL d   1      33.222  18.555 -23.487  0.00  0.00     0.148 C 
ENDROOT
BRANCH   1   2
ATOM      2  N   UNL d   1      32.645  18.023 -23.740  0.00  0.00    -0.235 N 
ATOM      3  C   UNL d   1      32.631  17.253 -23.435  0.00  0.00     0.273 A 
ATOM      4  C   UNL d   1      32.059  16.727 -23.685  0.00  0.00     0.086 A 
ATOM      5  O   UNL d   1      33.197  17.021 -22.877  0.00  0.00    -0.266 OA
ATOM      6  C   UNL d   1      32.047  15.954 -23.377  0.00  0.00     0.012 C 
ATOM      7  S   UNL d   1      31.495  16.948 -24.236  0.00  0.00    -0.077 SA
ATOM      8  C   UNL d   1      31.505  17.709 -24.542  0.00  0.00     0.086 A 
ATOM      9  C   UNL d   1      32.076  18.253 -24.299  0.00  0.00     0.273 A 
ATOM     10  C   UNL d   1      30.940  17.939 -25.097  0.00  0.00     0.012 C 
ATOM     11  O   UNL d   1      32.088  19.017 -24.604  0.00  0.00    -0.266 OA
ENDBRANCH   1   2
BRANCH   1  12
ATOM     12  C   UNL d   1      33.194  18.857 -22.722  0.00  0.00     0.297 C 
ATOM     13  N   UNL d   1      33.194  19.667 -22.591  0.00  0.00    -0.205 NA
ATOM     14  O   UNL d   1      33.166  18.338 -22.081  0.00  0.00    -0.264 OA
BRANCH  13  15
ATOM     15  C   UNL d   1      33.166  19.975 -21.832  0.00  0.00     0.102 C 
BRANCH  15  16
ATOM     16  C   UNL d   1      32.926  20.753 -21.695  0.00  0.00     0.019 A 
ATOM     17  C   UNL d   1      32.469  20.929 -21.031  0.00  0.00     0.004 A 
ATOM     18  C   UNL d   1      32.226  21.708 -20.891  0.00  0.00     0.030 A 
ATOM     19  C   UNL d   1      32.444  22.301 -21.415  0.00  0.00     0.140 A 
ATOM     20  C   UNL d   1      32.901  22.126 -22.080  0.00  0.00     0.030 A 
ATOM     21  F   UNL d   1      32.206  23.083 -21.283  0.00  0.00    -0.204 F 
ATOM     22  C   UNL d   1      33.146  21.346 -22.223  0.00  0.00     0.004 A 
ENDBRANCH  15  16
ENDBRANCH  13  15
ENDBRANCH   1  12
TORSDOF 4
ENDMDL
MODEL 4
REMARK VINA RESULT:      -2.6      1.013      1.429
REMARK  4 active torsions:
REMARK  status: ('A' for Active; 'I' for Inactive)
REMARK    1  A    between atoms: C_7  and  N_1 
REMARK    2  A    between atoms: C_8  and  C_7 
REMARK       I    between atoms: N_11  and  C_8 
REMARK    3  A    between atoms: C_13  and  N_11 
REMARK    4  A    between atoms: C_15  and  C_13 
ROOT
ATOM      1  C   UNL d   1      32.067  17.242 -24.458  0.00  0.00     0.148 C 
ENDROOT
BRANCH   1   2
ATOM      2  N   UNL d   1      31.298  17.008 -24.272  0.00  0.00    -0.235 N 
ATOM      3  C   UNL d   1      30.654  17.444 -24.558  0.00  0.00     0.273 A 
ATOM      4  C   UNL d   1      29.893  17.212 -24.374  0.00  0.00     0.086 A 
ATOM      5  O   UNL d   1      30.785  18.112 -25.028  0.00  0.00    -0.266 OA
ATOM      6  C   UNL d   1      29.248  17.652 -24.663  0.00  0.00     0.012 C 
ATOM      7  S   UNL d   1      29.754  16.553 -23.910  0.00  0.00    -0.077 SA
ATOM      8  C   UNL d   1      30.388  16.118 -23.624  0.00  0.00     0.086 A 
ATOM      9  C   UNL d   1      31.163  16.339 -23.801  0.00  0.00     0.273 A 
ATOM     10  C   UNL d   1      30.256  15.453 -23.156  0.00  0.00     0.012 C 
ATOM     11  O   UNL d   1      31.801  15.905 -23.516  0.00  0.00    -0.266 OA
ENDBRANCH   1   2
BRANCH   1  12
ATOM     12  C   UNL d   1      32.570  17.506 -23.862  0.00  0.00     0.297 C 
ATOM     13  N   UNL d   1      32.674  18.309 -23.725  0.00  0.00    -0.205 NA
ATOM     14  O   UNL d   1      32.973  16.956 -23.397  0.00  0.00    -0.264 OA
BRANCH  13  15
ATOM     15  C   UNL d   1      33.173  18.579 -23.134  0.00  0.00     0.102 C 
BRANCH  15  16
ATOM     16  C   UNL d   1      33.123  19.353 -22.853  0.00  0.00     0.019 A 
ATOM     17  C   UNL d   1      32.955  19.488 -22.057  0.00  0.00     0.004 A 
ATOM     18  C   UNL d   1      32.903  20.264 -21.771  0.00  0.00     0.030 A 
ATOM     19  C   UNL d   1      33.020  20.893 -22.285  0.00  0.00     0.140 A 
ATOM     20  C   UNL d   1      33.189  20.759 -23.081  0.00  0.00     0.030 A 
ATOM     21  F   UNL d   1      32.971  21.672 -22.008  0.00  0.00    -0.204 F 
ATOM     22  C   UNL d   1      33.241  19.982 -23.371  0.00  0.00     0.004 A 
ENDBRANCH  15  16
ENDBRANCH  13  15
ENDBRANCH   1  12
TORSDOF 4
ENDMDL
MODEL 5
REMARK VINA RESULT:      -2.2      2.375      4.575
REMARK  4 active torsions:
REMARK  status: ('A' for Active; 'I' for Inactive)
REMARK    1  A    between atoms: C_7  and  N_1 
REMARK    2  A    between atoms: C_8  and  C_7 
REMARK       I    between atoms: N_11  and  C_8 
REMARK    3  A    between atoms: C_13  and  N_11 
REMARK    4  A    between atoms: C_15  and  C_13 
ROOT
ATOM      1  C   UNL d   1      32.906  17.595 -23.819  0.00  0.00     0.148 C 
ENDROOT
BRANCH   1   2
ATOM      2  N   UNL d   1      32.934  18.411 -23.703  0.00  0.00    -0.235 N 
ATOM      3  C   UNL d   1      32.827  18.723 -22.943  0.00  0.00     0.273 A 
ATOM      4  C   UNL d   1      32.854  19.532 -22.828  0.00  0.00     0.086 A 
ATOM      5  O   UNL d   1      32.693  18.215 -22.304  0.00  0.00    -0.266 OA
ATOM      6  C   UNL d   1      32.746  19.843 -22.064  0.00  0.00     0.012 C 
ATOM      7  S   UNL d   1      32.986  20.042 -23.455  0.00  0.00    -0.077 SA
ATOM      8  C   UNL d   1      33.093  19.737 -24.209  0.00  0.00     0.086 A 
ATOM      9  C   UNL d   1      33.068  18.923 -24.341  0.00  0.00     0.273 A 
ATOM     10  C   UNL d   1      33.226  20.245 -24.845  0.00  0.00     0.012 C 
ATOM     11  O   UNL d   1      33.174  18.615 -25.097  0.00  0.00    -0.266 OA
ENDBRANCH   1   2
BRANCH   1  12
ATOM     12  C   UNL d   1      32.309  17.266 -24.280  0.00  0.00     0.297 C 
ATOM     13  N   UNL d   1      31.587  17.060 -23.947  0.00  0.00    -0.205 NA
ATOM     14  O   UNL d   1      32.437  17.144 -25.085  0.00  0.00    -0.264 OA
BRANCH  13  15
ATOM     15  C   UNL d   1      30.987  16.733 -24.399  0.00  0.00     0.102 C 
BRANCH  15  16
ATOM     16  C   UNL d   1      30.248  16.564 -24.072  0.00  0.00     0.019 A 
ATOM     17  C   UNL d   1      29.594  17.018 -24.286  0.00  0.00     0.004 A 
ATOM     18  C   UNL d   1      28.851  16.852 -23.959  0.00  0.00     0.030 A 
ATOM     19  C   UNL d   1      28.773  16.235 -23.424  0.00  0.00     0.140 A 
ATOM     20  C   UNL d   1      29.427  15.780 -23.209  0.00  0.00     0.030 A 
ATOM     21  F   UNL d   1      28.034  16.061 -23.092  0.00  0.00    -0.204 F 
ATOM     22  C   UNL d   1      30.173  15.944 -23.535  0.00  0.00     0.004 A 
ENDBRANCH  15  16
ENDBRANCH  13  15
ENDBRANCH   1  12
TORSDOF 4
ENDMDL
