MODEL 1
REMARK VINA RESULT:      -2.3      0.000      0.000
REMARK  7 active torsions:
REMARK  status: ('A' for Active; 'I' for Inactive)
REMARK    1  A    between atoms: N_7  and  C_1 
REMARK    2  A    between atoms: N_8  and  C_4 
REMARK    3  A    between atoms: N_9  and  C_5 
REMARK    4  A    between atoms: C_14  and  N_8 
REMARK    5  A    between atoms: C_13  and  N_9 
REMARK    6  A    between atoms: C_20  and  C_14 
REMARK    7  A    between atoms: O_21  and  C_15 
ROOT
ATOM      1  C   UNL d   1     -42.867-122.478 -50.441  0.00  0.00     0.201 A 
ATOM      2  N   UNL d   1     -41.608-122.962 -50.793  0.00  0.00    -0.038 NA
ATOM      3  N   UNL d   1     -42.381-122.257 -51.784  0.00  0.00    -0.036 NA
ATOM      4  C   UNL d   1     -42.182-122.881 -50.219  0.00  0.00     0.206 A 
ATOM      5  C   UNL d   1     -41.708-122.648 -51.579  0.00  0.00     0.753 A 
ATOM      6  C   UNL d   1     -42.967-122.164 -51.227  0.00  0.00     0.227 A 
ATOM      7  N   UNL d   1     -43.654-121.765 -51.433  0.00  0.00    -0.125 N 
ENDROOT
BRANCH   5   8
ATOM      8  N   UNL d   1     -41.123-122.738 -52.143  0.00  0.00    -0.059 NA
BRANCH   8   9
ATOM      9  C   UNL d   1     -41.323-122.765 -52.970  0.00  0.00     0.100 A 
ATOM     10  C   UNL d   1     -41.445-122.063 -53.399  0.00  0.00     0.022 A 
ATOM     11  C   UNL d   1     -41.642-122.084 -54.216  0.00  0.00     0.026 A 
ATOM     12  C   UNL d   1     -41.722-122.801 -54.625  0.00  0.00     0.094 A 
ATOM     13  C   UNL d   1     -41.599-123.492 -54.191  0.00  0.00     0.026 A 
ATOM     14  C   UNL d   1     -41.399-123.471 -53.363  0.00  0.00     0.022 A 
BRANCH  12  15
ATOM     15  O   UNL d   1     -41.921-122.822 -55.448  0.00  0.00    -0.328 OA
ATOM     16  C   UNL d   1     -42.253-122.171 -55.819  0.00  0.00     0.181 C 
ENDBRANCH  12  15
ENDBRANCH   8   9
ENDBRANCH   5   8
BRANCH   4  17
ATOM     17  N   UNL d   1     -42.091-123.181 -49.460  0.00  0.00    -0.223 NA
BRANCH  17  18
ATOM     18  C   UNL d   1     -41.345-123.190 -49.117  0.00  0.00     0.101 C 
BRANCH  18  19
ATOM     19  C   UNL d   1     -41.271-123.135 -48.302  0.00  0.00     0.019 A 
ATOM     20  C   UNL d   1     -41.227-123.817 -47.844  0.00  0.00     0.002 A 
ATOM     21  C   UNL d   1     -41.154-123.763 -47.039  0.00  0.00     0.000 A 
ATOM     22  C   UNL d   1     -41.123-123.025 -46.677  0.00  0.00     0.000 A 
ATOM     23  C   UNL d   1     -41.166-122.341 -47.123  0.00  0.00     0.000 A 
ATOM     24  C   UNL d   1     -41.241-122.397 -47.949  0.00  0.00     0.002 A 
ENDBRANCH  18  19
ENDBRANCH  17  18
ENDBRANCH   4  17
BRANCH   1  25
ATOM     25  N   UNL d   1     -43.468-122.386 -49.858  0.00  0.00    -0.107 N 
ATOM     26  O   UNL d   1     -43.524-121.644 -49.492  0.00  0.00    -0.531 OA
ATOM     27  O   UNL d   1     -43.992-123.035 -49.661  0.00  0.00    -0.531 OA
ENDBRANCH   1  25
TORSDOF 7
ENDMDL
MODEL 2
REMARK VINA RESULT:       0.0      1.392      1.946
REMARK  7 active torsions:
REMARK  status: ('A' for Active; 'I' for Inactive)
REMARK    1  A    between atoms: N_7  and  C_1 
REMARK    2  A    between atoms: N_8  and  C_4 
REMARK    3  A    between atoms: N_9  and  C_5 
REMARK    4  A    between atoms: C_14  and  N_8 
REMARK    5  A    between atoms: C_13  and  N_9 
REMARK    6  A    between atoms: C_20  and  C_14 
REMARK    7  A    between atoms: O_21  and  C_15 
ROOT
ATOM      1  C   UNL d   1     -41.439-121.706 -51.420  0.00  0.00     0.201 A 
ATOM      2  N   UNL d   1     -41.682-122.989 -51.910  0.00  0.00    -0.038 NA
ATOM      3  N   UNL d   1     -41.372-121.938 -52.846  0.00  0.00    -0.036 NA
ATOM      4  C   UNL d   1     -41.626-122.494 -51.263  0.00  0.00     0.206 A 
ATOM      5  C   UNL d   1     -41.554-122.709 -52.705  0.00  0.00     0.753 A 
ATOM      6  C   UNL d   1     -41.311-121.427 -52.215  0.00  0.00     0.227 A 
ATOM      7  N   UNL d   1     -41.126-120.640 -52.356  0.00  0.00    -0.125 N 
ENDROOT
BRANCH   5   8
ATOM      8  N   UNL d   1     -41.614-123.218 -53.342  0.00  0.00    -0.059 NA
BRANCH   8   9
ATOM      9  C   UNL d   1     -41.857-122.927 -54.104  0.00  0.00     0.100 A 
ATOM     10  C   UNL d   1     -41.295-122.639 -54.646  0.00  0.00     0.022 A 
ATOM     11  C   UNL d   1     -41.529-122.350 -55.400  0.00  0.00     0.026 A 
ATOM     12  C   UNL d   1     -42.325-122.341 -55.632  0.00  0.00     0.094 A 
ATOM     13  C   UNL d   1     -42.875-122.628 -55.089  0.00  0.00     0.026 A 
ATOM     14  C   UNL d   1     -42.638-122.920 -54.325  0.00  0.00     0.022 A 
BRANCH  12  15
ATOM     15  O   UNL d   1     -42.561-122.050 -56.392  0.00  0.00    -0.328 OA
ATOM     16  C   UNL d   1     -42.312-121.317 -56.661  0.00  0.00     0.181 C 
ENDBRANCH  12  15
ENDBRANCH   8   9
ENDBRANCH   5   8
BRANCH   4  17
ATOM     17  N   UNL d   1     -41.748-122.759 -50.496  0.00  0.00    -0.223 NA
BRANCH  17  18
ATOM     18  C   UNL d   1     -42.402-123.226 -50.329  0.00  0.00     0.101 C 
BRANCH  18  19
ATOM     19  C   UNL d   1     -42.576-123.422 -49.552  0.00  0.00     0.019 A 
ATOM     20  C   UNL d   1     -41.972-123.482 -48.996  0.00  0.00     0.002 A 
ATOM     21  C   UNL d   1     -42.144-123.676 -48.229  0.00  0.00     0.000 A 
ATOM     22  C   UNL d   1     -42.923-123.812 -48.002  0.00  0.00     0.000 A 
ATOM     23  C   UNL d   1     -43.530-123.754 -48.547  0.00  0.00     0.000 A 
ATOM     24  C   UNL d   1     -43.353-123.556 -49.335  0.00  0.00     0.002 A 
ENDBRANCH  18  19
ENDBRANCH  17  18
ENDBRANCH   4  17
BRANCH   1  25
ATOM     25  N   UNL d   1     -41.378-121.184 -50.763  0.00  0.00    -0.107 N 
ATOM     26  O   UNL d   1     -41.126-121.515 -50.044  0.00  0.00    -0.531 OA
ATOM     27  O   UNL d   1     -41.570-120.353 -50.841  0.00  0.00    -0.531 OA
ENDBRANCH   1  25
TORSDOF 7
ENDMDL
