MODEL 1
REMARK VINA RESULT:      80.4      0.000      0.000
REMARK  6 active torsions:
REMARK  status: ('A' for Active; 'I' for Inactive)
REMARK    1  A    between atoms: N_3  and  C_1 
REMARK    2  A    between atoms: C_5  and  C_2 
REMARK    3  A    between atoms: C_7  and  C_5 
REMARK    4  A    between atoms: C_8  and  C_5 
REMARK    5  A    between atoms: O_15  and  C_7 
REMARK    6  A    between atoms: C_19  and  O_15 
ROOT
ATOM      1  C   UNL d   1     -57.588 -99.370 -43.638  0.00  0.00     0.166 A 
ATOM      2  C   UNL d   1     -58.231 -99.175 -44.116  0.00  0.00     0.122 A 
ATOM      3  N   UNL d   1     -57.662 -99.364 -42.812  0.00  0.00    -0.225 NA
ATOM      4  N   UNL d   1     -58.952 -98.972 -43.765  0.00  0.00    -0.241 NA
ATOM      5  C   UNL d   1     -58.387 -99.160 -42.469  0.00  0.00     0.101 A 
ATOM      6  C   UNL d   1     -59.027 -98.965 -42.944  0.00  0.00     0.099 A 
ATOM      7  C   UNL d   1     -58.458 -99.154 -41.654  0.00  0.00     0.021 A 
ATOM      8  C   UNL d   1     -59.748 -98.762 -42.598  0.00  0.00     0.021 A 
ATOM      9  C   UNL d   1     -59.822 -98.755 -41.781  0.00  0.00     0.002 A 
ATOM     10  C   UNL d   1     -59.178 -98.951 -41.303  0.00  0.00     0.002 A 
ENDROOT
BRANCH   2  11
ATOM     11  C   UNL d   1     -58.157 -99.181 -44.942  0.00  0.00     0.105 C 
BRANCH  11  12
ATOM     12  C   UNL d   1     -58.797 -99.405 -45.413  0.00  0.00     0.303 C 
ATOM     13  O   UNL d   1     -59.415 -99.838 -45.084  0.00  0.00    -0.259 OA
BRANCH  12  14
ATOM     14  O   UNL d   1     -58.817 -99.196 -46.206  0.00  0.00    -0.273 OA
BRANCH  14  15
ATOM     15  C   UNL d   1     -59.135 -99.293 -46.957  0.00  0.00     0.103 A 
ATOM     16  C   UNL d   1     -58.936 -98.758 -47.552  0.00  0.00     0.025 A 
ATOM     17  C   UNL d   1     -59.253 -98.852 -48.306  0.00  0.00     0.002 A 
ATOM     18  C   UNL d   1     -59.761 -99.473 -48.460  0.00  0.00     0.000 A 
ATOM     19  C   UNL d   1     -59.958-100.003 -47.870  0.00  0.00     0.002 A 
ATOM     20  C   UNL d   1     -59.643 -99.914 -47.110  0.00  0.00     0.025 A 
ENDBRANCH  14  15
ENDBRANCH  12  14
ENDBRANCH  11  12
BRANCH  11  21
ATOM     21  C   UNL d   1     -57.441 -98.963 -45.302  0.00  0.00     0.129 C 
ATOM     22  N   UNL d   1     -57.232 -99.169 -46.207  0.00  0.00    -0.146 N 
ENDBRANCH  11  21
ENDBRANCH   2  11
BRANCH   1  23
ATOM     23  N   UNL d   1     -56.864 -99.574 -43.982  0.00  0.00    -0.284 N 
ATOM     24  C   UNL d   1     -56.214 -99.063 -43.915  0.00  0.00     0.106 A 
ATOM     25  C   UNL d   1     -55.496 -99.272 -44.260  0.00  0.00     0.118 A 
ATOM     26  C   UNL d   1     -54.848 -98.759 -44.191  0.00  0.00     0.028 C 
ATOM     27  O   UNL d   1     -55.414 -99.982 -44.670  0.00  0.00    -0.304 OA
ATOM     28  C   UNL d   1     -56.064-100.493 -44.737  0.00  0.00     0.118 A 
ATOM     29  C   UNL d   1     -56.796-100.294 -44.393  0.00  0.00     0.106 A 
ATOM     30  C   UNL d   1     -55.996-101.213 -45.148  0.00  0.00     0.028 C 
ENDBRANCH   1  23
TORSDOF 6
ENDMDL
MODEL 2
REMARK VINA RESULT:      83.2      2.162      4.216
REMARK  6 active torsions:
REMARK  status: ('A' for Active; 'I' for Inactive)
REMARK    1  A    between atoms: N_3  and  C_1 
REMARK    2  A    between atoms: C_5  and  C_2 
REMARK    3  A    between atoms: C_7  and  C_5 
REMARK    4  A    between atoms: C_8  and  C_5 
REMARK    5  A    between atoms: O_15  and  C_7 
REMARK    6  A    between atoms: C_19  and  O_15 
ROOT
ATOM      1  C   UNL d   1     -54.959-100.824 -43.730  0.00  0.00     0.166 A 
ATOM      2  C   UNL d   1     -55.139-100.267 -44.312  0.00  0.00     0.122 A 
ATOM      3  N   UNL d   1     -54.822-101.616 -43.937  0.00  0.00    -0.225 NA
ATOM      4  N   UNL d   1     -55.182-100.504 -45.103  0.00  0.00    -0.241 NA
ATOM      5  C   UNL d   1     -54.867-101.845 -44.731  0.00  0.00     0.101 A 
ATOM      6  C   UNL d   1     -55.047-101.290 -45.310  0.00  0.00     0.099 A 
ATOM      7  C   UNL d   1     -54.732-102.625 -44.932  0.00  0.00     0.021 A 
ATOM      8  C   UNL d   1     -55.091-101.522 -46.100  0.00  0.00     0.021 A 
ATOM      9  C   UNL d   1     -54.956-102.305 -46.305  0.00  0.00     0.002 A 
ATOM     10  C   UNL d   1     -54.776-102.862 -45.724  0.00  0.00     0.002 A 
ENDROOT
BRANCH   2  11
ATOM     11  C   UNL d   1     -55.276 -99.475 -44.105  0.00  0.00     0.105 C 
BRANCH  11  12
ATOM     12  C   UNL d   1     -55.848 -99.037 -44.506  0.00  0.00     0.303 C 
ATOM     13  O   UNL d   1     -55.707 -98.787 -45.277  0.00  0.00    -0.259 OA
BRANCH  12  14
ATOM     14  O   UNL d   1     -56.556 -98.849 -44.136  0.00  0.00    -0.273 OA
BRANCH  14  15
ATOM     15  C   UNL d   1     -57.370 -98.939 -44.077  0.00  0.00     0.103 A 
ATOM     16  C   UNL d   1     -57.797 -99.197 -44.734  0.00  0.00     0.025 A 
ATOM     17  C   UNL d   1     -58.613 -99.288 -44.678  0.00  0.00     0.002 A 
ATOM     18  C   UNL d   1     -58.995 -99.123 -43.976  0.00  0.00     0.000 A 
ATOM     19  C   UNL d   1     -58.572 -98.868 -43.325  0.00  0.00     0.002 A 
ATOM     20  C   UNL d   1     -57.751 -98.774 -43.374  0.00  0.00     0.025 A 
ENDBRANCH  14  15
ENDBRANCH  12  14
ENDBRANCH  11  12
BRANCH  11  21
ATOM     21  C   UNL d   1     -54.839 -99.119 -43.495  0.00  0.00     0.129 C 
ATOM     22  N   UNL d   1     -55.241 -98.768 -42.707  0.00  0.00    -0.146 N 
ENDBRANCH  11  21
ENDBRANCH   2  11
BRANCH   1  23
ATOM     23  N   UNL d   1     -54.914-100.595 -42.937  0.00  0.00    -0.284 N 
ATOM     24  C   UNL d   1     -54.858 -99.791 -42.739  0.00  0.00     0.106 A 
ATOM     25  C   UNL d   1     -54.813 -99.570 -41.948  0.00  0.00     0.118 A 
ATOM     26  C   UNL d   1     -54.758 -98.766 -41.754  0.00  0.00     0.028 C 
ATOM     27  O   UNL d   1     -54.823-100.135 -41.349  0.00  0.00    -0.304 OA
ATOM     28  C   UNL d   1     -54.879-100.940 -41.546  0.00  0.00     0.118 A 
ATOM     29  C   UNL d   1     -54.925-101.177 -42.343  0.00  0.00     0.106 A 
ATOM     30  C   UNL d   1     -54.890-101.521 -40.952  0.00  0.00     0.028 C 
ENDBRANCH   1  23
TORSDOF 6
ENDMDL
