MODEL 1
REMARK VINA RESULT:      -0.9      0.000      0.000
REMARK  4 active torsions:
REMARK  status: ('A' for Active; 'I' for Inactive)
REMARK    1  A    between atoms: C_11  and  N_2 
REMARK    2  A    between atoms: C_10  and  C_6 
REMARK    3  A    between atoms: C_16  and  C_9 
REMARK    4  A    between atoms: C_21  and  C_16 
ROOT
ATOM      1  C   UNL d   1      31.162  17.622 -24.540  0.00  0.00     0.143 A 
ATOM      2  N   UNL d   1      29.877  17.238 -24.375  0.00  0.00    -0.242 N 
ATOM      3  C   UNL d   1      30.671  17.006 -24.280  0.00  0.00     0.172 A 
ATOM      4  C   UNL d   1      29.882  18.004 -24.697  0.00  0.00     0.355 A 
ATOM      5  N   UNL d   1      30.672  18.236 -24.797  0.00  0.00    -0.187 NA
ATOM      6  C   UNL d   1      31.973  17.545 -24.510  0.00  0.00     0.163 A 
ATOM      7  N   UNL d   1      31.006  16.304 -23.986  0.00  0.00    -0.208 NA
ATOM      8  N   UNL d   1      32.318  16.855 -24.221  0.00  0.00    -0.220 NA
ATOM      9  C   UNL d   1      31.835  16.235 -23.959  0.00  0.00     0.164 A 
ATOM     10  O   UNL d   1      29.209  18.450 -24.883  0.00  0.00    -0.244 OA
ENDROOT
BRANCH   2  11
ATOM     11  C   UNL d   1      29.216  16.793 -24.187  0.00  0.00     0.070 A 
ATOM     12  C   UNL d   1      28.864  16.860 -23.437  0.00  0.00     0.018 A 
ATOM     13  C   UNL d   1      28.203  16.419 -23.240  0.00  0.00     0.002 A 
ATOM     14  C   UNL d   1      27.895  15.906 -23.805  0.00  0.00     0.000 A 
ATOM     15  C   UNL d   1      28.235  15.832 -24.548  0.00  0.00     0.002 A 
ATOM     16  C   UNL d   1      27.224  15.453 -23.613  0.00  0.00     0.000 C 
ATOM     17  C   UNL d   1      28.897  16.277 -24.736  0.00  0.00     0.018 A 
ENDBRANCH   2  11
BRANCH   6  18
ATOM     18  C   UNL d   1      32.463  18.160 -24.769  0.00  0.00     0.316 C 
ATOM     19  O   UNL d   1      32.218  18.948 -24.709  0.00  0.00    -0.262 OA
ATOM     20  N   UNL d   1      33.209  17.978 -25.095  0.00  0.00    -0.101 N 
ENDBRANCH   6  18
BRANCH   9  21
ATOM     21  C   UNL d   1      32.177  15.543 -23.669  0.00  0.00     0.039 C 
BRANCH  21  22
ATOM     22  C   UNL d   1      32.409  15.491 -22.875  0.00  0.00     0.003 C 
ATOM     23  C   UNL d   1      33.213  15.478 -22.690  0.00  0.00     0.000 C 
ATOM     24  C   UNL d   1      31.838  15.453 -22.289  0.00  0.00     0.000 C 
ENDBRANCH  21  22
ENDBRANCH   9  21
TORSDOF 4
ENDMDL
MODEL 2
REMARK VINA RESULT:       1.6      1.690      2.667
REMARK  4 active torsions:
REMARK  status: ('A' for Active; 'I' for Inactive)
REMARK    1  A    between atoms: C_11  and  N_2 
REMARK    2  A    between atoms: C_10  and  C_6 
REMARK    3  A    between atoms: C_16  and  C_9 
REMARK    4  A    between atoms: C_21  and  C_16 
ROOT
ATOM      1  C   UNL d   1      31.729  16.539 -23.314  0.00  0.00     0.143 A 
ATOM      2  N   UNL d   1      30.505  16.852 -23.794  0.00  0.00    -0.242 N 
ATOM      3  C   UNL d   1      31.269  17.147 -23.640  0.00  0.00     0.172 A 
ATOM      4  C   UNL d   1      30.498  16.055 -23.560  0.00  0.00     0.355 A 
ATOM      5  N   UNL d   1      31.250  15.866 -23.266  0.00  0.00    -0.187 NA
ATOM      6  C   UNL d   1      32.506  16.674 -23.108  0.00  0.00     0.163 A 
ATOM      7  N   UNL d   1      31.600  17.900 -23.759  0.00  0.00    -0.208 NA
ATOM      8  N   UNL d   1      32.847  17.415 -23.220  0.00  0.00    -0.220 NA
ATOM      9  C   UNL d   1      32.394  18.028 -23.545  0.00  0.00     0.164 A 
ATOM     10  O   UNL d   1      29.847  15.545 -23.614  0.00  0.00    -0.244 OA
ENDROOT
BRANCH   2  11
ATOM     11  C   UNL d   1      29.880  17.271 -24.116  0.00  0.00     0.070 A 
ATOM     12  C   UNL d   1      29.115  17.191 -23.802  0.00  0.00     0.018 A 
ATOM     13  C   UNL d   1      28.483  17.606 -24.118  0.00  0.00     0.002 A 
ATOM     14  C   UNL d   1      28.626  18.105 -24.756  0.00  0.00     0.000 A 
ATOM     15  C   UNL d   1      29.378  18.191 -25.074  0.00  0.00     0.002 A 
ATOM     16  C   UNL d   1      27.991  18.531 -25.084  0.00  0.00     0.000 C 
ATOM     17  C   UNL d   1      30.004  17.771 -24.751  0.00  0.00     0.018 A 
ENDBRANCH   2  11
BRANCH   6  18
ATOM     18  C   UNL d   1      32.965  16.066 -22.782  0.00  0.00     0.316 C 
ATOM     19  O   UNL d   1      33.150  16.063 -21.976  0.00  0.00    -0.262 OA
ATOM     20  N   UNL d   1      33.241  15.453 -23.277  0.00  0.00    -0.101 N 
ENDBRANCH   6  18
BRANCH   9  21
ATOM     21  C   UNL d   1      32.732  18.772 -23.659  0.00  0.00     0.039 C 
BRANCH  21  22
ATOM     22  C   UNL d   1      32.568  19.391 -23.133  0.00  0.00     0.003 C 
ATOM     23  C   UNL d   1      32.943  19.407 -22.398  0.00  0.00     0.000 C 
ATOM     24  C   UNL d   1      32.038  19.977 -23.351  0.00  0.00     0.000 C 
ENDBRANCH  21  22
ENDBRANCH   9  21
TORSDOF 4
ENDMDL
MODEL 3
REMARK VINA RESULT:       1.7      4.897      6.560
REMARK  4 active torsions:
REMARK  status: ('A' for Active; 'I' for Inactive)
REMARK    1  A    between atoms: C_11  and  N_2 
REMARK    2  A    between atoms: C_10  and  C_6 
REMARK    3  A    between atoms: C_16  and  C_9 
REMARK    4  A    between atoms: C_21  and  C_16 
ROOT
ATOM      1  C   UNL d   1      32.992  21.819 -20.966  0.00  0.00     0.143 A 
ATOM      2  N   UNL d   1      33.035  20.715 -21.744  0.00  0.00    -0.242 N 
ATOM      3  C   UNL d   1      33.064  21.547 -21.746  0.00  0.00     0.172 A 
ATOM      4  C   UNL d   1      32.944  20.474 -20.953  0.00  0.00     0.355 A 
ATOM      5  N   UNL d   1      32.919  21.154 -20.479  0.00  0.00    -0.187 NA
ATOM      6  C   UNL d   1      33.003  22.618 -20.804  0.00  0.00     0.163 A 
ATOM      7  N   UNL d   1      33.148  22.091 -22.369  0.00  0.00    -0.208 NA
ATOM      8  N   UNL d   1      33.086  23.167 -21.412  0.00  0.00    -0.220 NA
ATOM      9  C   UNL d   1      33.158  22.903 -22.194  0.00  0.00     0.164 A 
ATOM     10  O   UNL d   1      32.890  19.689 -20.693  0.00  0.00    -0.244 OA
ENDROOT
BRANCH   2  11
ATOM     11  C   UNL d   1      33.086  20.226 -22.398  0.00  0.00     0.070 A 
ATOM     12  C   UNL d   1      33.060  19.400 -22.309  0.00  0.00     0.018 A 
ATOM     13  C   UNL d   1      33.110  18.903 -22.958  0.00  0.00     0.002 A 
ATOM     14  C   UNL d   1      33.188  19.244 -23.703  0.00  0.00     0.000 A 
ATOM     15  C   UNL d   1      33.215  20.058 -23.802  0.00  0.00     0.002 A 
ATOM     16  C   UNL d   1      33.240  18.747 -24.369  0.00  0.00     0.000 C 
ATOM     17  C   UNL d   1      33.164  20.547 -23.147  0.00  0.00     0.018 A 
ENDBRANCH   2  11
BRANCH   6  18
ATOM     18  C   UNL d   1      32.932  22.889 -20.025  0.00  0.00     0.316 C 
ATOM     19  O   UNL d   1      33.241  22.449 -19.395  0.00  0.00    -0.262 OA
ATOM     20  N   UNL d   1      32.543  23.612 -19.879  0.00  0.00    -0.101 N 
ENDBRANCH   6  18
BRANCH   9  21
ATOM     21  C   UNL d   1      33.241  23.451 -22.805  0.00  0.00     0.039 C 
BRANCH  21  22
ATOM     22  C   UNL d   1      32.653  23.524 -23.385  0.00  0.00     0.003 C 
ATOM     23  C   UNL d   1      32.863  23.471 -24.181  0.00  0.00     0.000 C 
ATOM     24  C   UNL d   1      31.875  23.648 -23.160  0.00  0.00     0.000 C 
ENDBRANCH  21  22
ENDBRANCH   9  21
TORSDOF 4
ENDMDL
