MODEL 1
REMARK VINA RESULT:      -3.1      0.000      0.000
REMARK  2 active torsions:
REMARK  status: ('A' for Active; 'I' for Inactive)
REMARK    1  A    between atoms: C_2  and  C_1 
REMARK       I    between atoms: N_7  and  C_2 
REMARK    2  A    between atoms: C_9  and  N_7 
ROOT
ATOM      1  C   UNL d   1      31.872  15.900 -24.736  0.00  0.00     0.280 C 
ATOM      2  N   UNL d   1      31.185  15.453 -24.649  0.00  0.00    -0.208 NA
ATOM      3  O   UNL d   1      32.574  15.527 -24.962  0.00  0.00    -0.265 OA
ENDROOT
BRANCH   1   4
ATOM      4  C   UNL d   1      31.857  16.713 -24.598  0.00  0.00     0.065 A 
ATOM      5  C   UNL d   1      32.287  17.112 -24.017  0.00  0.00     0.011 A 
ATOM      6  C   UNL d   1      32.102  17.909 -24.080  0.00  0.00     0.030 A 
ATOM      7  C   UNL d   1      32.815  16.853 -23.446  0.00  0.00     0.001 A 
ATOM      8  C   UNL d   1      32.451  18.457 -23.566  0.00  0.00     0.006 A 
ATOM      9  S   UNL d   1      31.562  18.003 -24.696  0.00  0.00    -0.086 SA
ATOM     10  C   UNL d   1      32.970  18.205 -23.005  0.00  0.00     0.001 A 
ATOM     11  C   UNL d   1      33.161  17.402 -22.935  0.00  0.00     0.000 A 
ATOM     12  C   UNL d   1      31.414  17.254 -25.013  0.00  0.00     0.040 A 
ENDBRANCH   1   4
BRANCH   2  13
ATOM     13  C   UNL d   1      30.476  15.826 -24.422  0.00  0.00     0.085 A 
ATOM     14  C   UNL d   1      30.008  16.196 -24.987  0.00  0.00     0.019 A 
ATOM     15  C   UNL d   1      29.301  16.567 -24.759  0.00  0.00     0.002 A 
ATOM     16  C   UNL d   1      29.067  16.566 -23.968  0.00  0.00     0.000 A 
ATOM     17  C   UNL d   1      29.546  16.189 -23.403  0.00  0.00     0.002 A 
ATOM     18  C   UNL d   1      28.359  16.941 -23.754  0.00  0.00     0.000 C 
ATOM     19  C   UNL d   1      30.248  15.820 -23.630  0.00  0.00     0.019 A 
ENDBRANCH   2  13
TORSDOF 2
ENDMDL
MODEL 2
REMARK VINA RESULT:      -2.9      0.809      2.998
REMARK  2 active torsions:
REMARK  status: ('A' for Active; 'I' for Inactive)
REMARK    1  A    between atoms: C_2  and  C_1 
REMARK       I    between atoms: N_7  and  C_2 
REMARK    2  A    between atoms: C_9  and  N_7 
ROOT
ATOM      1  C   UNL d   1      32.276  16.191 -24.722  0.00  0.00     0.280 C 
ATOM      2  N   UNL d   1      32.969  16.510 -24.410  0.00  0.00    -0.208 NA
ATOM      3  O   UNL d   1      32.301  15.455 -25.096  0.00  0.00    -0.265 OA
ENDROOT
BRANCH   1   4
ATOM      4  C   UNL d   1      31.565  16.605 -24.661  0.00  0.00     0.065 A 
ATOM      5  C   UNL d   1      30.891  16.349 -24.260  0.00  0.00     0.011 A 
ATOM      6  C   UNL d   1      30.320  16.933 -24.345  0.00  0.00     0.030 A 
ATOM      7  C   UNL d   1      30.727  15.669 -23.834  0.00  0.00     0.001 A 
ATOM      8  C   UNL d   1      29.573  16.836 -23.999  0.00  0.00     0.006 A 
ATOM      9  S   UNL d   1      30.638  17.546 -24.795  0.00  0.00    -0.086 SA
ATOM     10  C   UNL d   1      29.410  16.167 -23.580  0.00  0.00     0.001 A 
ATOM     11  C   UNL d   1      29.982  15.574 -23.491  0.00  0.00     0.000 A 
ATOM     12  C   UNL d   1      31.414  17.334 -24.988  0.00  0.00     0.040 A 
ENDBRANCH   1   4
BRANCH   2  13
ATOM     13  C   UNL d   1      32.947  17.253 -24.032  0.00  0.00     0.085 A 
ATOM     14  C   UNL d   1      32.983  17.942 -24.480  0.00  0.00     0.019 A 
ATOM     15  C   UNL d   1      32.961  18.680 -24.103  0.00  0.00     0.002 A 
ATOM     16  C   UNL d   1      32.904  18.726 -23.281  0.00  0.00     0.000 A 
ATOM     17  C   UNL d   1      32.868  18.026 -22.836  0.00  0.00     0.002 A 
ATOM     18  C   UNL d   1      32.883  19.472 -22.917  0.00  0.00     0.000 C 
ATOM     19  C   UNL d   1      32.890  17.291 -23.211  0.00  0.00     0.019 A 
ENDBRANCH   2  13
TORSDOF 2
ENDMDL
MODEL 3
REMARK VINA RESULT:      -2.8      1.677      3.574
REMARK  2 active torsions:
REMARK  status: ('A' for Active; 'I' for Inactive)
REMARK    1  A    between atoms: C_2  and  C_1 
REMARK       I    between atoms: N_7  and  C_2 
REMARK    2  A    between atoms: C_9  and  N_7 
ROOT
ATOM      1  C   UNL d   1      29.719  17.731 -24.853  0.00  0.00     0.280 C 
ATOM      2  N   UNL d   1      30.503  17.964 -24.756  0.00  0.00    -0.208 NA
ATOM      3  O   UNL d   1      29.156  18.288 -25.089  0.00  0.00    -0.265 OA
ENDROOT
BRANCH   1   4
ATOM      4  C   UNL d   1      29.499  16.948 -24.715  0.00  0.00     0.065 A 
ATOM      5  C   UNL d   1      28.931  16.695 -24.171  0.00  0.00     0.011 A 
ATOM      6  C   UNL d   1      28.894  15.876 -24.220  0.00  0.00     0.030 A 
ATOM      7  C   UNL d   1      28.450  17.100 -23.647  0.00  0.00     0.001 A 
ATOM      8  C   UNL d   1      28.368  15.456 -23.737  0.00  0.00     0.006 A 
ATOM      9  S   UNL d   1      29.435  15.624 -24.789  0.00  0.00    -0.086 SA
ATOM     10  C   UNL d   1      27.895  15.853 -23.220  0.00  0.00     0.001 A 
ATOM     11  C   UNL d   1      27.927  16.679 -23.166  0.00  0.00     0.000 A 
ATOM     12  C   UNL d   1      29.808  16.298 -25.092  0.00  0.00     0.040 A 
ENDBRANCH   1   4
BRANCH   2  13
ATOM     13  C   UNL d   1      31.073  17.404 -24.518  0.00  0.00     0.085 A 
ATOM     14  C   UNL d   1      31.255  17.319 -23.720  0.00  0.00     0.019 A 
ATOM     15  C   UNL d   1      31.823  16.761 -23.484  0.00  0.00     0.002 A 
ATOM     16  C   UNL d   1      32.205  16.294 -24.046  0.00  0.00     0.000 A 
ATOM     17  C   UNL d   1      32.015  16.387 -24.850  0.00  0.00     0.002 A 
ATOM     18  C   UNL d   1      32.771  15.741 -23.796  0.00  0.00     0.000 C 
ATOM     19  C   UNL d   1      31.451  16.941 -25.085  0.00  0.00     0.019 A 
ENDBRANCH   2  13
TORSDOF 2
ENDMDL
