MODEL 1
REMARK VINA RESULT:      -6.7      0.000      0.000
REMARK  1 active torsions:
REMARK  status: ('A' for Active; 'I' for Inactive)
REMARK    1  A    between atoms: C_6  and  C_2 
ROOT
ATOM      1  S   UNL d   1     -49.097  12.301  23.342  0.00  0.00    -0.024 SA
ATOM      2  C   UNL d   1     -48.476  11.795  23.516  0.00  0.00     0.135 A 
ATOM      3  N   UNL d   1     -48.783  11.052  23.697  0.00  0.00    -0.139 NA
ATOM      4  C   UNL d   1     -49.794  11.866  23.416  0.00  0.00     0.236 A 
ATOM      5  N   UNL d   1     -49.607  11.103  23.632  0.00  0.00    -0.119 NA
ATOM      6  N   UNL d   1     -50.555  12.160  23.291  0.00  0.00    -0.118 N 
ENDROOT
BRANCH   2   7
ATOM      7  C   UNL d   1     -47.677  11.995  23.512  0.00  0.00     0.029 A 
ATOM      8  C   UNL d   1     -47.435  12.755  23.326  0.00  0.00     0.023 A 
ATOM      9  C   UNL d   1     -46.632  12.955  23.321  0.00  0.00     0.099 A 
ATOM     10  N   UNL d   1     -46.066  12.397  23.503  0.00  0.00    -0.242 NA
ATOM     11  C   UNL d   1     -46.298  11.631  23.692  0.00  0.00     0.099 A 
ATOM     12  C   UNL d   1     -47.102  11.430  23.696  0.00  0.00     0.023 A 
ENDBRANCH   2   7
TORSDOF 1
ENDMDL
MODEL 2
REMARK VINA RESULT:      -6.5      1.798      2.091
REMARK  1 active torsions:
REMARK  status: ('A' for Active; 'I' for Inactive)
REMARK    1  A    between atoms: C_6  and  C_2 
ROOT
ATOM      1  S   UNL d   1     -48.896  13.523  22.252  0.00  0.00    -0.024 SA
ATOM      2  C   UNL d   1     -48.178  13.162  22.090  0.00  0.00     0.135 A 
ATOM      3  N   UNL d   1     -48.219  12.817  21.344  0.00  0.00    -0.139 NA
ATOM      4  C   UNL d   1     -49.385  13.400  21.599  0.00  0.00     0.236 A 
ATOM      5  N   UNL d   1     -48.974  12.969  21.042  0.00  0.00    -0.119 NA
ATOM      6  N   UNL d   1     -50.161  13.670  21.526  0.00  0.00    -0.118 N 
ENDROOT
BRANCH   2   7
ATOM      7  C   UNL d   1     -47.524  13.147  22.591  0.00  0.00     0.029 A 
ATOM      8  C   UNL d   1     -47.374  12.497  23.066  0.00  0.00     0.023 A 
ATOM      9  C   UNL d   1     -46.716  12.481  23.568  0.00  0.00     0.099 A 
ATOM     10  N   UNL d   1     -46.205  13.115  23.598  0.00  0.00    -0.242 NA
ATOM     11  C   UNL d   1     -46.346  13.773  23.125  0.00  0.00     0.099 A 
ATOM     12  C   UNL d   1     -47.004  13.789  22.623  0.00  0.00     0.023 A 
ENDBRANCH   2   7
TORSDOF 1
ENDMDL
MODEL 3
REMARK VINA RESULT:      -6.4      1.885      3.029
REMARK  1 active torsions:
REMARK  status: ('A' for Active; 'I' for Inactive)
REMARK    1  A    between atoms: C_6  and  C_2 
ROOT
ATOM      1  S   UNL d   1     -47.212  12.283  23.298  0.00  0.00    -0.024 SA
ATOM      2  C   UNL d   1     -46.979  13.068  23.255  0.00  0.00     0.135 A 
ATOM      3  N   UNL d   1     -46.194  13.123  23.501  0.00  0.00    -0.139 NA
ATOM      4  C   UNL d   1     -46.566  11.851  23.572  0.00  0.00     0.236 A 
ATOM      5  N   UNL d   1     -45.942  12.360  23.697  0.00  0.00    -0.119 NA
ATOM      6  N   UNL d   1     -46.557  11.035  23.698  0.00  0.00    -0.118 N 
ENDROOT
BRANCH   2   7
ATOM      7  C   UNL d   1     -47.449  13.697  23.007  0.00  0.00     0.029 A 
ATOM      8  C   UNL d   1     -48.261  13.615  22.943  0.00  0.00     0.023 A 
ATOM      9  C   UNL d   1     -48.734  14.248  22.694  0.00  0.00     0.099 A 
ATOM     10  N   UNL d   1     -48.397  14.966  22.509  0.00  0.00    -0.242 NA
ATOM     11  C   UNL d   1     -47.582  15.060  22.571  0.00  0.00     0.099 A 
ATOM     12  C   UNL d   1     -47.109  14.427  22.819  0.00  0.00     0.023 A 
ENDBRANCH   2   7
TORSDOF 1
ENDMDL
MODEL 4
REMARK VINA RESULT:      -6.3      1.128      2.977
REMARK  1 active torsions:
REMARK  status: ('A' for Active; 'I' for Inactive)
REMARK    1  A    between atoms: C_6  and  C_2 
ROOT
ATOM      1  S   UNL d   1     -48.016  12.204  23.131  0.00  0.00    -0.024 SA
ATOM      2  C   UNL d   1     -48.735  11.822  23.038  0.00  0.00     0.135 A 
ATOM      3  N   UNL d   1     -48.671  11.060  23.345  0.00  0.00    -0.139 NA
ATOM      4  C   UNL d   1     -47.503  11.673  23.499  0.00  0.00     0.236 A 
ATOM      5  N   UNL d   1     -47.900  10.973  23.630  0.00  0.00    -0.119 NA
ATOM      6  N   UNL d   1     -46.718  11.828  23.698  0.00  0.00    -0.118 N 
ENDROOT
BRANCH   2   7
ATOM      7  C   UNL d   1     -49.411  12.146  22.696  0.00  0.00     0.029 A 
ATOM      8  C   UNL d   1     -49.435  12.318  21.895  0.00  0.00     0.023 A 
ATOM      9  C   UNL d   1     -50.114  12.643  21.551  0.00  0.00     0.099 A 
ATOM     10  N   UNL d   1     -50.773  12.797  22.005  0.00  0.00    -0.242 NA
ATOM     11  C   UNL d   1     -50.760  12.628  22.810  0.00  0.00     0.099 A 
ATOM     12  C   UNL d   1     -50.080  12.303  23.155  0.00  0.00     0.023 A 
ENDBRANCH   2   7
TORSDOF 1
ENDMDL
