MODEL 1
REMARK VINA RESULT:      -3.4      0.000      0.000
REMARK  6 active torsions:
REMARK  status: ('A' for Active; 'I' for Inactive)
REMARK    1  A    between atoms: C_8  and  C_1 
REMARK    2  A    between atoms: N_7  and  C_2 
REMARK    3  A    between atoms: C_10  and  C_4 
REMARK       I    between atoms: C_6  and  N_7 
REMARK       I    between atoms: N_9  and  C_6 
REMARK    4  A    between atoms: O_13  and  C_8 
REMARK    5  A    between atoms: C_14  and  N_9 
REMARK    6  A    between atoms: C_17  and  O_13 
ROOT
ATOM      1  C   UNL d   1     -40.432  14.389  19.904  0.00  0.00     0.111 A 
ATOM      2  C   UNL d   1     -40.887  14.008  20.462  0.00  0.00     0.098 A 
ATOM      3  S   UNL d   1     -39.817  14.758  20.305  0.00  0.00    -0.080 SA
ATOM      4  C   UNL d   1     -39.902  14.597  21.107  0.00  0.00     0.031 A 
ATOM      5  C   UNL d   1     -40.577  14.125  21.201  0.00  0.00     0.026 A 
ENDROOT
BRANCH   2   6
ATOM      6  N   UNL d   1     -41.560  13.576  20.259  0.00  0.00    -0.190 NA
ATOM      7  C   UNL d   1     -42.094  13.385  20.826  0.00  0.00     0.369 C 
ATOM      8  N   UNL d   1     -42.774  12.953  20.643  0.00  0.00    -0.191 NA
ATOM      9  O   UNL d   1     -41.961  13.624  21.597  0.00  0.00    -0.242 OA
BRANCH   8  10
ATOM     10  C   UNL d   1     -43.330  12.756  21.239  0.00  0.00     0.086 A 
ATOM     11  C   UNL d   1     -44.035  13.198  21.282  0.00  0.00     0.019 A 
ATOM     12  C   UNL d   1     -44.578  13.010  21.861  0.00  0.00     0.002 A 
ATOM     13  C   UNL d   1     -44.429  12.393  22.390  0.00  0.00     0.000 A 
ATOM     14  C   UNL d   1     -43.734  11.961  22.342  0.00  0.00     0.002 A 
ATOM     15  C   UNL d   1     -43.188  12.140  21.771  0.00  0.00     0.019 A 
ENDBRANCH   8  10
ENDBRANCH   2   6
BRANCH   1  16
ATOM     16  C   UNL d   1     -40.569  14.402  19.074  0.00  0.00     0.308 C 
ATOM     17  O   UNL d   1     -40.446  13.728  18.609  0.00  0.00    -0.258 OA
BRANCH  16  18
ATOM     18  O   UNL d   1     -40.827  15.086  18.719  0.00  0.00    -0.271 OA
BRANCH  18  19
ATOM     19  C   UNL d   1     -40.841  15.137  17.864  0.00  0.00     0.126 C 
ATOM     20  C   UNL d   1     -40.835  15.916  17.516  0.00  0.00     0.029 C 
ENDBRANCH  18  19
ENDBRANCH  16  18
ENDBRANCH   1  16
BRANCH   4  21
ATOM     21  C   UNL d   1     -39.365  14.895  21.637  0.00  0.00     0.006 A 
ATOM     22  C   UNL d   1     -39.504  15.625  22.029  0.00  0.00     0.001 A 
ATOM     23  C   UNL d   1     -38.954  15.922  22.566  0.00  0.00     0.000 A 
ATOM     24  C   UNL d   1     -38.286  15.523  22.722  0.00  0.00     0.000 A 
ATOM     25  C   UNL d   1     -38.122  14.770  22.330  0.00  0.00     0.000 A 
ATOM     26  C   UNL d   1     -38.669  14.481  21.799  0.00  0.00     0.001 A 
ENDBRANCH   4  21
TORSDOF 6
ENDMDL
MODEL 2
REMARK VINA RESULT:      -3.1      5.727      7.889
REMARK  6 active torsions:
REMARK  status: ('A' for Active; 'I' for Inactive)
REMARK    1  A    between atoms: C_8  and  C_1 
REMARK    2  A    between atoms: N_7  and  C_2 
REMARK    3  A    between atoms: C_10  and  C_4 
REMARK       I    between atoms: C_6  and  N_7 
REMARK       I    between atoms: N_9  and  C_6 
REMARK    4  A    between atoms: O_13  and  C_8 
REMARK    5  A    between atoms: C_14  and  N_9 
REMARK    6  A    between atoms: C_17  and  O_13 
ROOT
ATOM      1  C   UNL d   1     -47.416  13.320  23.143  0.00  0.00     0.111 A 
ATOM      2  C   UNL d   1     -47.046  12.650  23.422  0.00  0.00     0.098 A 
ATOM      3  S   UNL d   1     -48.225  13.174  23.164  0.00  0.00    -0.080 SA
ATOM      4  C   UNL d   1     -48.340  12.414  23.456  0.00  0.00     0.031 A 
ATOM      5  C   UNL d   1     -47.595  12.088  23.616  0.00  0.00     0.026 A 
ENDROOT
BRANCH   2   6
ATOM      6  N   UNL d   1     -46.225  12.596  23.480  0.00  0.00    -0.190 NA
ATOM      7  C   UNL d   1     -45.873  11.874  23.460  0.00  0.00     0.369 C 
ATOM      8  N   UNL d   1     -45.052  11.799  23.516  0.00  0.00    -0.191 NA
ATOM      9  O   UNL d   1     -46.338  11.206  23.382  0.00  0.00    -0.242 OA
BRANCH   8  10
ATOM     10  C   UNL d   1     -44.689  11.043  23.495  0.00  0.00     0.086 A 
ATOM     11  C   UNL d   1     -43.891  10.996  23.263  0.00  0.00     0.019 A 
ATOM     12  C   UNL d   1     -43.534  10.262  23.241  0.00  0.00     0.002 A 
ATOM     13  C   UNL d   1     -43.960   9.584  23.445  0.00  0.00     0.000 A 
ATOM     14  C   UNL d   1     -44.746   9.637  23.672  0.00  0.00     0.002 A 
ATOM     15  C   UNL d   1     -45.109  10.361  23.697  0.00  0.00     0.019 A 
ENDBRANCH   8  10
ENDBRANCH   2   6
BRANCH   1  16
ATOM     16  C   UNL d   1     -47.040  14.027  22.884  0.00  0.00     0.308 C 
ATOM     17  O   UNL d   1     -46.384  14.334  23.285  0.00  0.00    -0.258 OA
BRANCH  16  18
ATOM     18  O   UNL d   1     -47.323  14.417  22.230  0.00  0.00    -0.271 OA
BRANCH  18  19
ATOM     19  C   UNL d   1     -47.380  15.271  22.242  0.00  0.00     0.126 C 
ATOM     20  C   UNL d   1     -48.063  15.625  21.873  0.00  0.00     0.029 C 
ENDBRANCH  18  19
ENDBRANCH  16  18
ENDBRANCH   1  16
BRANCH   4  21
ATOM     21  C   UNL d   1     -49.093  12.123  23.536  0.00  0.00     0.006 A 
ATOM     22  C   UNL d   1     -49.238  11.296  23.547  0.00  0.00     0.001 A 
ATOM     23  C   UNL d   1     -50.006  11.007  23.628  0.00  0.00     0.000 A 
ATOM     24  C   UNL d   1     -50.619  11.506  23.697  0.00  0.00     0.000 A 
ATOM     25  C   UNL d   1     -50.494  12.362  23.688  0.00  0.00     0.000 A 
ATOM     26  C   UNL d   1     -49.732  12.642  23.608  0.00  0.00     0.001 A 
ENDBRANCH   4  21
TORSDOF 6
ENDMDL
MODEL 3
REMARK VINA RESULT:      -3.0      5.634      7.708
REMARK  6 active torsions:
REMARK  status: ('A' for Active; 'I' for Inactive)
REMARK    1  A    between atoms: C_8  and  C_1 
REMARK    2  A    between atoms: N_7  and  C_2 
REMARK    3  A    between atoms: C_10  and  C_4 
REMARK       I    between atoms: C_6  and  N_7 
REMARK       I    between atoms: N_9  and  C_6 
REMARK    4  A    between atoms: O_13  and  C_8 
REMARK    5  A    between atoms: C_14  and  N_9 
REMARK    6  A    between atoms: C_17  and  O_13 
ROOT
ATOM      1  C   UNL d   1     -48.152  12.245  23.280  0.00  0.00     0.111 A 
ATOM      2  C   UNL d   1     -47.342  12.177  23.325  0.00  0.00     0.098 A 
ATOM      3  S   UNL d   1     -48.315  13.003  23.007  0.00  0.00    -0.080 SA
ATOM      4  C   UNL d   1     -47.600  13.391  22.889  0.00  0.00     0.031 A 
ATOM      5  C   UNL d   1     -46.990  12.867  23.090  0.00  0.00     0.026 A 
ENDROOT
BRANCH   2   6
ATOM      6  N   UNL d   1     -46.974  11.484  23.580  0.00  0.00    -0.190 NA
ATOM      7  C   UNL d   1     -46.191  11.376  23.440  0.00  0.00     0.369 C 
ATOM      8  N   UNL d   1     -45.804  10.689  23.687  0.00  0.00    -0.191 NA
ATOM      9  O   UNL d   1     -45.772  11.958  23.046  0.00  0.00    -0.242 OA
BRANCH   8  10
ATOM     10  C   UNL d   1     -44.986  10.582  23.539  0.00  0.00     0.086 A 
ATOM     11  C   UNL d   1     -44.651   9.835  23.698  0.00  0.00     0.019 A 
ATOM     12  C   UNL d   1     -43.855   9.727  23.554  0.00  0.00     0.002 A 
ATOM     13  C   UNL d   1     -43.395  10.346  23.258  0.00  0.00     0.000 A 
ATOM     14  C   UNL d   1     -43.730  11.078  23.103  0.00  0.00     0.002 A 
ATOM     15  C   UNL d   1     -44.520  11.196  23.242  0.00  0.00     0.019 A 
ENDBRANCH   8  10
ENDBRANCH   2   6
BRANCH   1  16
ATOM     16  C   UNL d   1     -48.714  11.651  23.476  0.00  0.00     0.308 C 
ATOM     17  O   UNL d   1     -48.515  10.847  23.447  0.00  0.00    -0.258 OA
BRANCH  16  18
ATOM     18  O   UNL d   1     -49.466  11.864  23.697  0.00  0.00    -0.271 OA
BRANCH  18  19
ATOM     19  C   UNL d   1     -50.138  11.484  23.327  0.00  0.00     0.126 C 
ATOM     20  C   UNL d   1     -50.899  11.861  23.410  0.00  0.00     0.029 C 
ENDBRANCH  18  19
ENDBRANCH  16  18
ENDBRANCH   1  16
BRANCH   4  21
ATOM     21  C   UNL d   1     -47.597  14.156  22.618  0.00  0.00     0.006 A 
ATOM     22  C   UNL d   1     -48.235  14.456  22.161  0.00  0.00     0.001 A 
ATOM     23  C   UNL d   1     -48.225  15.234  21.890  0.00  0.00     0.000 A 
ATOM     24  C   UNL d   1     -47.614  15.711  22.055  0.00  0.00     0.000 A 
ATOM     25  C   UNL d   1     -46.945  15.424  22.523  0.00  0.00     0.000 A 
ATOM     26  C   UNL d   1     -46.960  14.654  22.789  0.00  0.00     0.001 A 
ENDBRANCH   4  21
TORSDOF 6
ENDMDL
MODEL 4
REMARK VINA RESULT:      -2.9      2.775      4.283
REMARK  6 active torsions:
REMARK  status: ('A' for Active; 'I' for Inactive)
REMARK    1  A    between atoms: C_8  and  C_1 
REMARK    2  A    between atoms: N_7  and  C_2 
REMARK    3  A    between atoms: C_10  and  C_4 
REMARK       I    between atoms: C_6  and  N_7 
REMARK       I    between atoms: N_9  and  C_6 
REMARK    4  A    between atoms: O_13  and  C_8 
REMARK    5  A    between atoms: C_14  and  N_9 
REMARK    6  A    between atoms: C_17  and  O_13 
ROOT
ATOM      1  C   UNL d   1     -40.141  15.402  18.210  0.00  0.00     0.111 A 
ATOM      2  C   UNL d   1     -39.569  14.873  18.449  0.00  0.00     0.098 A 
ATOM      3  S   UNL d   1     -40.531  15.657  18.887  0.00  0.00    -0.080 SA
ATOM      4  C   UNL d   1     -40.192  15.280  19.535  0.00  0.00     0.031 A 
ATOM      5  C   UNL d   1     -39.587  14.788  19.254  0.00  0.00     0.026 A 
ENDROOT
BRANCH   2   6
ATOM      6  N   UNL d   1     -39.065  14.501  17.913  0.00  0.00    -0.190 NA
ATOM      7  C   UNL d   1     -38.917  13.716  17.987  0.00  0.00     0.369 C 
ATOM      8  N   UNL d   1     -38.415  13.325  17.460  0.00  0.00    -0.191 NA
ATOM      9  O   UNL d   1     -39.270  13.299  18.596  0.00  0.00    -0.242 OA
BRANCH   8  10
ATOM     10  C   UNL d   1     -38.263  12.504  17.542  0.00  0.00     0.086 A 
ATOM     11  C   UNL d   1     -38.297  12.028  16.860  0.00  0.00     0.019 A 
ATOM     12  C   UNL d   1     -38.150  11.228  16.936  0.00  0.00     0.002 A 
ATOM     13  C   UNL d   1     -37.972  10.904  17.675  0.00  0.00     0.000 A 
ATOM     14  C   UNL d   1     -37.940  11.379  18.342  0.00  0.00     0.002 A 
ATOM     15  C   UNL d   1     -38.084  12.173  18.277  0.00  0.00     0.019 A 
ENDBRANCH   8  10
ENDBRANCH   2   6
BRANCH   1  16
ATOM     16  C   UNL d   1     -40.301  15.640  17.420  0.00  0.00     0.308 C 
ATOM     17  O   UNL d   1     -39.690  15.871  16.910  0.00  0.00    -0.258 OA
BRANCH  16  18
ATOM     18  O   UNL d   1     -41.067  15.644  17.147  0.00  0.00    -0.271 OA
BRANCH  18  19
ATOM     19  C   UNL d   1     -41.216  15.789  16.316  0.00  0.00     0.126 C 
ATOM     20  C   UNL d   1     -42.027  15.914  16.079  0.00  0.00     0.029 C 
ENDBRANCH  18  19
ENDBRANCH  16  18
ENDBRANCH   1  16
BRANCH   4  21
ATOM     21  C   UNL d   1     -40.472  15.431  20.281  0.00  0.00     0.006 A 
ATOM     22  C   UNL d   1     -40.011  15.252  20.961  0.00  0.00     0.001 A 
ATOM     23  C   UNL d   1     -40.303  15.408  21.716  0.00  0.00     0.000 A 
ATOM     24  C   UNL d   1     -41.022  15.729  21.813  0.00  0.00     0.000 A 
ATOM     25  C   UNL d   1     -41.514  15.921  21.128  0.00  0.00     0.000 A 
ATOM     26  C   UNL d   1     -41.221  15.765  20.383  0.00  0.00     0.001 A 
ENDBRANCH   4  21
TORSDOF 6
ENDMDL
MODEL 5
REMARK VINA RESULT:      -2.5      1.868      4.862
REMARK  6 active torsions:
REMARK  status: ('A' for Active; 'I' for Inactive)
REMARK    1  A    between atoms: C_8  and  C_1 
REMARK    2  A    between atoms: N_7  and  C_2 
REMARK    3  A    between atoms: C_10  and  C_4 
REMARK       I    between atoms: C_6  and  N_7 
REMARK       I    between atoms: N_9  and  C_6 
REMARK    4  A    between atoms: O_13  and  C_8 
REMARK    5  A    between atoms: C_14  and  N_9 
REMARK    6  A    between atoms: C_17  and  O_13 
ROOT
ATOM      1  C   UNL d   1     -39.896  14.703  21.208  0.00  0.00     0.111 A 
ATOM      2  C   UNL d   1     -39.899  14.522  20.413  0.00  0.00     0.098 A 
ATOM      3  S   UNL d   1     -40.600  14.418  21.522  0.00  0.00    -0.080 SA
ATOM      4  C   UNL d   1     -41.027  14.065  20.914  0.00  0.00     0.031 A 
ATOM      5  C   UNL d   1     -40.582  14.133  20.219  0.00  0.00     0.026 A 
ENDROOT
BRANCH   2   6
ATOM      6  N   UNL d   1     -39.273  14.726  19.915  0.00  0.00    -0.190 NA
ATOM      7  C   UNL d   1     -39.293  14.503  19.144  0.00  0.00     0.369 C 
ATOM      8  N   UNL d   1     -38.676  14.697  18.629  0.00  0.00    -0.191 NA
ATOM      9  O   UNL d   1     -39.933  14.077  18.868  0.00  0.00    -0.242 OA
BRANCH   8  10
ATOM     10  C   UNL d   1     -38.700  14.462  17.825  0.00  0.00     0.086 A 
ATOM     11  C   UNL d   1     -39.016  14.996  17.268  0.00  0.00     0.019 A 
ATOM     12  C   UNL d   1     -39.041  14.771  16.484  0.00  0.00     0.002 A 
ATOM     13  C   UNL d   1     -38.759  14.029  16.252  0.00  0.00     0.000 A 
ATOM     14  C   UNL d   1     -38.450  13.509  16.805  0.00  0.00     0.002 A 
ATOM     15  C   UNL d   1     -38.420  13.723  17.586  0.00  0.00     0.019 A 
ENDBRANCH   8  10
ENDBRANCH   2   6
BRANCH   1  16
ATOM     16  C   UNL d   1     -39.286  15.105  21.625  0.00  0.00     0.308 C 
ATOM     17  O   UNL d   1     -39.178  15.922  21.543  0.00  0.00    -0.258 OA
BRANCH  16  18
ATOM     18  O   UNL d   1     -38.793  14.688  22.118  0.00  0.00    -0.271 OA
BRANCH  18  19
ATOM     19  C   UNL d   1     -38.270  15.113  22.647  0.00  0.00     0.126 C 
ATOM     20  C   UNL d   1     -37.950  14.683  23.311  0.00  0.00     0.029 C 
ENDBRANCH  18  19
ENDBRANCH  16  18
ENDBRANCH   1  16
BRANCH   4  21
ATOM     21  C   UNL d   1     -41.751  13.734  21.070  0.00  0.00     0.006 A 
ATOM     22  C   UNL d   1     -41.814  12.945  21.352  0.00  0.00     0.001 A 
ATOM     23  C   UNL d   1     -42.554  12.616  21.509  0.00  0.00     0.000 A 
ATOM     24  C   UNL d   1     -43.216  13.037  21.395  0.00  0.00     0.000 A 
ATOM     25  C   UNL d   1     -43.174  13.852  21.105  0.00  0.00     0.000 A 
ATOM     26  C   UNL d   1     -42.441  14.173  20.952  0.00  0.00     0.001 A 
ENDBRANCH   4  21
TORSDOF 6
ENDMDL
MODEL 6
REMARK VINA RESULT:      -2.5      2.189      5.849
REMARK  6 active torsions:
REMARK  status: ('A' for Active; 'I' for Inactive)
REMARK    1  A    between atoms: C_8  and  C_1 
REMARK    2  A    between atoms: N_7  and  C_2 
REMARK    3  A    between atoms: C_10  and  C_4 
REMARK       I    between atoms: C_6  and  N_7 
REMARK       I    between atoms: N_9  and  C_6 
REMARK    4  A    between atoms: O_13  and  C_8 
REMARK    5  A    between atoms: C_14  and  N_9 
REMARK    6  A    between atoms: C_17  and  O_13 
ROOT
ATOM      1  C   UNL d   1     -44.327  12.109  22.482  0.00  0.00     0.111 A 
ATOM      2  C   UNL d   1     -44.046  12.615  21.908  0.00  0.00     0.098 A 
ATOM      3  S   UNL d   1     -45.076  12.376  22.692  0.00  0.00    -0.080 SA
ATOM      4  C   UNL d   1     -45.244  13.045  22.243  0.00  0.00     0.031 A 
ATOM      5  C   UNL d   1     -44.593  13.191  21.751  0.00  0.00     0.026 A 
ENDROOT
BRANCH   2   6
ATOM      6  N   UNL d   1     -43.303  12.516  21.563  0.00  0.00    -0.190 NA
ATOM      7  C   UNL d   1     -42.871  13.162  21.362  0.00  0.00     0.369 C 
ATOM      8  N   UNL d   1     -42.125  13.085  21.015  0.00  0.00    -0.191 NA
ATOM      9  O   UNL d   1     -43.177  13.907  21.503  0.00  0.00    -0.242 OA
BRANCH   8  10
ATOM     10  C   UNL d   1     -41.677  13.762  20.807  0.00  0.00     0.086 A 
ATOM     11  C   UNL d   1     -41.177  14.096  21.382  0.00  0.00     0.019 A 
ATOM     12  C   UNL d   1     -40.739  14.756  21.183  0.00  0.00     0.002 A 
ATOM     13  C   UNL d   1     -40.795  15.081  20.426  0.00  0.00     0.000 A 
ATOM     14  C   UNL d   1     -41.289  14.748  19.863  0.00  0.00     0.002 A 
ATOM     15  C   UNL d   1     -41.728  14.093  20.051  0.00  0.00     0.019 A 
ENDBRANCH   8  10
ENDBRANCH   2   6
BRANCH   1  16
ATOM     16  C   UNL d   1     -43.926  11.441  22.797  0.00  0.00     0.308 C 
ATOM     17  O   UNL d   1     -43.100  11.425  22.855  0.00  0.00    -0.258 OA
BRANCH  16  18
ATOM     18  O   UNL d   1     -44.352  10.797  23.051  0.00  0.00    -0.271 OA
BRANCH  18  19
ATOM     19  C   UNL d   1     -43.962  10.186  23.506  0.00  0.00     0.126 C 
ATOM     20  C   UNL d   1     -44.414   9.489  23.698  0.00  0.00     0.029 C 
ENDBRANCH  18  19
ENDBRANCH  16  18
ENDBRANCH   1  16
BRANCH   4  21
ATOM     21  C   UNL d   1     -45.954  13.426  22.339  0.00  0.00     0.006 A 
ATOM     22  C   UNL d   1     -46.666  13.094  22.043  0.00  0.00     0.001 A 
ATOM     23  C   UNL d   1     -47.384  13.487  22.143  0.00  0.00     0.000 A 
ATOM     24  C   UNL d   1     -47.413  14.183  22.522  0.00  0.00     0.000 A 
ATOM     25  C   UNL d   1     -46.692  14.544  22.835  0.00  0.00     0.000 A 
ATOM     26  C   UNL d   1     -45.985  14.152  22.733  0.00  0.00     0.001 A 
ENDBRANCH   4  21
TORSDOF 6
ENDMDL
MODEL 7
REMARK VINA RESULT:      -2.4      1.351      3.263
REMARK  6 active torsions:
REMARK  status: ('A' for Active; 'I' for Inactive)
REMARK    1  A    between atoms: C_8  and  C_1 
REMARK    2  A    between atoms: N_7  and  C_2 
REMARK    3  A    between atoms: C_10  and  C_4 
REMARK       I    between atoms: C_6  and  N_7 
REMARK       I    between atoms: N_9  and  C_6 
REMARK    4  A    between atoms: O_13  and  C_8 
REMARK    5  A    between atoms: C_14  and  N_9 
REMARK    6  A    between atoms: C_17  and  O_13 
ROOT
ATOM      1  C   UNL d   1     -39.616  14.681  20.194  0.00  0.00     0.111 A 
ATOM      2  C   UNL d   1     -40.418  14.536  20.172  0.00  0.00     0.098 A 
ATOM      3  S   UNL d   1     -39.356  14.718  19.415  0.00  0.00    -0.080 SA
ATOM      4  C   UNL d   1     -40.004  14.593  18.924  0.00  0.00     0.031 A 
ATOM      5  C   UNL d   1     -40.669  14.479  19.404  0.00  0.00     0.026 A 
ENDROOT
BRANCH   2   6
ATOM      6  N   UNL d   1     -40.869  14.463  20.858  0.00  0.00    -0.190 NA
ATOM      7  C   UNL d   1     -41.530  14.007  20.851  0.00  0.00     0.369 C 
ATOM      8  N   UNL d   1     -41.995  13.922  21.529  0.00  0.00    -0.191 NA
ATOM      9  O   UNL d   1     -41.742  13.622  20.162  0.00  0.00    -0.242 OA
BRANCH   8  10
ATOM     10  C   UNL d   1     -42.685  13.444  21.517  0.00  0.00     0.086 A 
ATOM     11  C   UNL d   1     -43.425  13.823  21.480  0.00  0.00     0.019 A 
ATOM     12  C   UNL d   1     -44.099  13.362  21.469  0.00  0.00     0.002 A 
ATOM     13  C   UNL d   1     -44.041  12.538  21.493  0.00  0.00     0.000 A 
ATOM     14  C   UNL d   1     -43.309  12.171  21.529  0.00  0.00     0.002 A 
ATOM     15  C   UNL d   1     -42.635  12.620  21.541  0.00  0.00     0.019 A 
ENDBRANCH   8  10
ENDBRANCH   2   6
BRANCH   1  16
ATOM     16  C   UNL d   1     -39.146  14.776  20.885  0.00  0.00     0.308 C 
ATOM     17  O   UNL d   1     -39.056  15.518  21.243  0.00  0.00    -0.258 OA
BRANCH  16  18
ATOM     18  O   UNL d   1     -38.773  14.132  21.210  0.00  0.00    -0.271 OA
BRANCH  18  19
ATOM     19  C   UNL d   1     -38.213  14.248  21.847  0.00  0.00     0.126 C 
ATOM     20  C   UNL d   1     -37.942  13.554  22.263  0.00  0.00     0.029 C 
ENDBRANCH  18  19
ENDBRANCH  16  18
ENDBRANCH   1  16
BRANCH   4  21
ATOM     21  C   UNL d   1     -39.905  14.600  18.118  0.00  0.00     0.006 A 
ATOM     22  C   UNL d   1     -39.439  14.016  17.735  0.00  0.00     0.001 A 
ATOM     23  C   UNL d   1     -39.343  14.028  16.916  0.00  0.00     0.000 A 
ATOM     24  C   UNL d   1     -39.689  14.592  16.478  0.00  0.00     0.000 A 
ATOM     25  C   UNL d   1     -40.174  15.204  16.852  0.00  0.00     0.000 A 
ATOM     26  C   UNL d   1     -40.265  15.187  17.661  0.00  0.00     0.001 A 
ENDBRANCH   4  21
TORSDOF 6
ENDMDL
MODEL 8
REMARK VINA RESULT:      -2.0      4.540      7.875
REMARK  6 active torsions:
REMARK  status: ('A' for Active; 'I' for Inactive)
REMARK    1  A    between atoms: C_8  and  C_1 
REMARK    2  A    between atoms: N_7  and  C_2 
REMARK    3  A    between atoms: C_10  and  C_4 
REMARK       I    between atoms: C_6  and  N_7 
REMARK       I    between atoms: N_9  and  C_6 
REMARK    4  A    between atoms: O_13  and  C_8 
REMARK    5  A    between atoms: C_14  and  N_9 
REMARK    6  A    between atoms: C_17  and  O_13 
ROOT
ATOM      1  C   UNL d   1     -48.017  13.989  22.889  0.00  0.00     0.111 A 
ATOM      2  C   UNL d   1     -47.356  13.517  22.820  0.00  0.00     0.098 A 
ATOM      3  S   UNL d   1     -48.646  13.495  23.080  0.00  0.00    -0.080 SA
ATOM      4  C   UNL d   1     -48.362  12.725  23.125  0.00  0.00     0.031 A 
ATOM      5  C   UNL d   1     -47.550  12.744  22.961  0.00  0.00     0.026 A 
ENDROOT
BRANCH   2   6
ATOM      6  N   UNL d   1     -46.615  13.827  22.631  0.00  0.00    -0.190 NA
ATOM      7  C   UNL d   1     -46.007  13.328  22.471  0.00  0.00     0.369 C 
ATOM      8  N   UNL d   1     -45.257  13.618  22.280  0.00  0.00    -0.191 NA
ATOM      9  O   UNL d   1     -46.135  12.521  22.498  0.00  0.00    -0.242 OA
BRANCH   8  10
ATOM     10  C   UNL d   1     -44.624  13.093  22.114  0.00  0.00     0.086 A 
ATOM     11  C   UNL d   1     -44.142  13.254  21.454  0.00  0.00     0.019 A 
ATOM     12  C   UNL d   1     -43.525  12.746  21.289  0.00  0.00     0.002 A 
ATOM     13  C   UNL d   1     -43.387  12.087  21.768  0.00  0.00     0.000 A 
ATOM     14  C   UNL d   1     -43.865  11.933  22.415  0.00  0.00     0.002 A 
ATOM     15  C   UNL d   1     -44.480  12.432  22.588  0.00  0.00     0.019 A 
ENDBRANCH   8  10
ENDBRANCH   2   6
BRANCH   1  16
ATOM     16  C   UNL d   1     -48.047  14.823  22.785  0.00  0.00     0.308 C 
ATOM     17  O   UNL d   1     -47.639  15.192  22.166  0.00  0.00    -0.258 OA
BRANCH  16  18
ATOM     18  O   UNL d   1     -48.484  15.278  23.297  0.00  0.00    -0.271 OA
BRANCH  18  19
ATOM     19  C   UNL d   1     -48.974  15.907  22.988  0.00  0.00     0.126 C 
ATOM     20  C   UNL d   1     -49.793  15.922  23.228  0.00  0.00     0.029 C 
ENDBRANCH  18  19
ENDBRANCH  16  18
ENDBRANCH   1  16
BRANCH   4  21
ATOM     21  C   UNL d   1     -48.869  12.118  23.306  0.00  0.00     0.006 A 
ATOM     22  C   UNL d   1     -49.701  12.233  23.296  0.00  0.00     0.001 A 
ATOM     23  C   UNL d   1     -50.211  11.612  23.482  0.00  0.00     0.000 A 
ATOM     24  C   UNL d   1     -49.924  10.898  23.672  0.00  0.00     0.000 A 
ATOM     25  C   UNL d   1     -49.070  10.757  23.689  0.00  0.00     0.000 A 
ATOM     26  C   UNL d   1     -48.571  11.374  23.505  0.00  0.00     0.001 A 
ENDBRANCH   4  21
TORSDOF 6
ENDMDL
MODEL 9
REMARK VINA RESULT:      -0.4      3.868      6.006
REMARK  6 active torsions:
REMARK  status: ('A' for Active; 'I' for Inactive)
REMARK    1  A    between atoms: C_8  and  C_1 
REMARK    2  A    between atoms: N_7  and  C_2 
REMARK    3  A    between atoms: C_10  and  C_4 
REMARK       I    between atoms: C_6  and  N_7 
REMARK       I    between atoms: N_9  and  C_6 
REMARK    4  A    between atoms: O_13  and  C_8 
REMARK    5  A    between atoms: C_14  and  N_9 
REMARK    6  A    between atoms: C_17  and  O_13 
ROOT
ATOM      1  C   UNL d   1     -45.204  11.954  22.949  0.00  0.00     0.111 A 
ATOM      2  C   UNL d   1     -45.650  12.622  22.811  0.00  0.00     0.098 A 
ATOM      3  S   UNL d   1     -44.491  12.054  22.553  0.00  0.00    -0.080 SA
ATOM      4  C   UNL d   1     -44.508  12.784  22.176  0.00  0.00     0.031 A 
ATOM      5  C   UNL d   1     -45.239  13.138  22.341  0.00  0.00     0.026 A 
ENDROOT
BRANCH   2   6
ATOM      6  N   UNL d   1     -46.406  12.717  23.125  0.00  0.00    -0.190 NA
ATOM      7  C   UNL d   1     -46.928  13.207  22.761  0.00  0.00     0.369 C 
ATOM      8  N   UNL d   1     -47.690  13.315  23.061  0.00  0.00    -0.191 NA
ATOM      9  O   UNL d   1     -46.697  13.604  22.085  0.00  0.00    -0.242 OA
BRANCH   8  10
ATOM     10  C   UNL d   1     -48.232  13.828  22.677  0.00  0.00     0.086 A 
ATOM     11  C   UNL d   1     -48.703  13.517  22.065  0.00  0.00     0.019 A 
ATOM     12  C   UNL d   1     -49.231  14.014  21.690  0.00  0.00     0.002 A 
ATOM     13  C   UNL d   1     -49.293  14.806  21.915  0.00  0.00     0.000 A 
ATOM     14  C   UNL d   1     -48.826  15.106  22.518  0.00  0.00     0.002 A 
ATOM     15  C   UNL d   1     -48.299  14.622  22.897  0.00  0.00     0.019 A 
ENDBRANCH   8  10
ENDBRANCH   2   6
BRANCH   1  16
ATOM     16  C   UNL d   1     -45.433  11.289  23.410  0.00  0.00     0.308 C 
ATOM     17  O   UNL d   1     -46.230  11.140  23.581  0.00  0.00    -0.258 OA
BRANCH  16  18
ATOM     18  O   UNL d   1     -44.866  10.781  23.695  0.00  0.00    -0.271 OA
BRANCH  18  19
ATOM     19  C   UNL d   1     -45.018   9.939  23.698  0.00  0.00     0.126 C 
ATOM     20  C   UNL d   1     -44.343   9.417  23.697  0.00  0.00     0.029 C 
ENDBRANCH  18  19
ENDBRANCH  16  18
ENDBRANCH   1  16
BRANCH   4  21
ATOM     21  C   UNL d   1     -43.869  13.028  21.739  0.00  0.00     0.006 A 
ATOM     22  C   UNL d   1     -43.274  12.484  21.503  0.00  0.00     0.001 A 
ATOM     23  C   UNL d   1     -42.627  12.738  21.060  0.00  0.00     0.000 A 
ATOM     24  C   UNL d   1     -42.556  13.500  20.850  0.00  0.00     0.000 A 
ATOM     25  C   UNL d   1     -43.157  14.078  21.081  0.00  0.00     0.000 A 
ATOM     26  C   UNL d   1     -43.795  13.821  21.520  0.00  0.00     0.001 A 
ENDBRANCH   4  21
TORSDOF 6
ENDMDL
