MODEL 1
REMARK VINA RESULT:      18.6      0.000      0.000
REMARK  3 active torsions:
REMARK  status: ('A' for Active; 'I' for Inactive)
REMARK    1  A    between atoms: C_7  and  C_2 
REMARK    2  A    between atoms: N_5  and  C_8 
REMARK    3  A    between atoms: C_9  and  C_7 
ROOT
ATOM      1  C   UNL d   1     -52.799  24.388  33.456  0.00  0.00     0.127 A 
ATOM      2  C   UNL d   1     -52.153  24.899  33.364  0.00  0.00     0.023 A 
ATOM      3  C   UNL d   1     -51.391  24.593  33.328  0.00  0.00     0.002 A 
ATOM      4  C   UNL d   1     -52.680  23.581  33.513  0.00  0.00     0.024 A 
ATOM      5  C   UNL d   1     -51.267  23.778  33.385  0.00  0.00     0.000 A 
ATOM      6  C   UNL d   1     -51.917  23.275  33.477  0.00  0.00     0.002 A 
ENDROOT
BRANCH   2   7
ATOM      7  C   UNL d   1     -52.278  25.709  33.307  0.00  0.00     0.013 C 
BRANCH   7   8
ATOM      8  C   UNL d   1     -51.641  26.231  33.381  0.00  0.00     0.092 A 
ATOM      9  C   UNL d   1     -51.689  27.054  33.422  0.00  0.00     0.288 A 
ATOM     10  N   UNL d   1     -50.919  27.345  33.493  0.00  0.00    -0.163 NA
ATOM     11  O   UNL d   1     -52.381  27.500  33.397  0.00  0.00    -0.265 OA
ATOM     12  C   UNL d   1     -50.400  26.711  33.495  0.00  0.00     0.313 A 
ATOM     13  S   UNL d   1     -50.842  26.020  33.426  0.00  0.00    -0.021 SA
ATOM     14  O   UNL d   1     -49.578  26.756  33.556  0.00  0.00    -0.258 OA
ENDBRANCH   7   8
ENDBRANCH   2   7
BRANCH   1  15
ATOM     15  N   UNL d   1     -53.565  24.698  33.492  0.00  0.00    -0.114 N 
ATOM     16  O   UNL d   1     -54.206  24.211  33.675  0.00  0.00    -0.532 OA
ATOM     17  O   UNL d   1     -53.689  25.504  33.342  0.00  0.00    -0.532 OA
ENDBRANCH   1  15
TORSDOF 3
ENDMDL
