MODEL 1
REMARK VINA RESULT:      76.1      0.000      0.000
REMARK  7 active torsions:
REMARK  status: ('A' for Active; 'I' for Inactive)
REMARK    1  A    between atoms: C_11  and  N_3 
REMARK    2  A    between atoms: C_10  and  C_4 
REMARK    3  A    between atoms: C_16  and  C_11 
REMARK    4  A    between atoms: N_13  and  C_17 
REMARK    5  A    between atoms: C_26  and  N_14 
REMARK    6  A    between atoms: C_17  and  C_16 
REMARK    7  A    between atoms: C_28  and  C_26 
ROOT
ATOM      1  C   UNL d   1     -54.715-100.840 -42.486  0.00  0.00     0.137 A 
ATOM      2  N   UNL d   1     -54.715-101.040 -41.676  0.00  0.00    -0.259 N 
ATOM      3  N   UNL d   1     -54.715-100.017 -42.533  0.00  0.00    -0.287 N 
ATOM      4  C   UNL d   1     -54.715-101.431 -43.055  0.00  0.00     0.054 A 
ATOM      5  C   UNL d   1     -54.714-101.837 -41.450  0.00  0.00     0.266 A 
ATOM      6  C   UNL d   1     -54.715-100.343 -41.235  0.00  0.00     0.084 A 
ATOM      7  C   UNL d   1     -54.715 -99.702 -41.771  0.00  0.00     0.082 A 
ATOM      8  C   UNL d   1     -54.714-102.225 -42.832  0.00  0.00     0.009 A 
ATOM      9  C   UNL d   1     -54.714-102.436 -42.029  0.00  0.00     0.061 A 
ATOM     10  O   UNL d   1     -54.714-102.042 -40.647  0.00  0.00    -0.267 OA
ATOM     11  C   UNL d   1     -54.715-100.195 -40.426  0.00  0.00     0.019 A 
ATOM     12  C   UNL d   1     -54.714-102.821 -43.407  0.00  0.00     0.000 C 
ATOM     13  C   UNL d   1     -54.716 -98.939 -41.478  0.00  0.00     0.019 A 
ATOM     14  C   UNL d   1     -54.715 -99.425 -40.150  0.00  0.00     0.002 A 
ATOM     15  C   UNL d   1     -54.716 -98.790 -40.682  0.00  0.00     0.002 A 
ENDROOT
BRANCH   3  16
ATOM     16  C   UNL d   1     -54.716 -99.380 -43.054  0.00  0.00     0.125 C 
BRANCH  16  17
ATOM     17  C   UNL d   1     -55.175 -99.411 -43.738  0.00  0.00     0.231 C 
ATOM     18  O   UNL d   1     -54.935 -99.015 -44.419  0.00  0.00    -0.283 OA
BRANCH  17  19
ATOM     19  C   UNL d   1     -55.878 -99.839 -43.742  0.00  0.00     0.124 C 
BRANCH  19  20
ATOM     20  N   UNL d   1     -56.538 -99.545 -44.134  0.00  0.00    -0.297 N 
ATOM     21  C   UNL d   1     -57.263 -99.834 -43.848  0.00  0.00     0.100 A 
ATOM     22  C   UNL d   1     -57.973 -99.583 -44.192  0.00  0.00     0.100 A 
ATOM     23  N   UNL d   1     -57.965 -99.046 -44.821  0.00  0.00    -0.297 N 
ATOM     24  C   UNL d   1     -57.244 -98.759 -45.105  0.00  0.00     0.100 A 
ATOM     25  C   UNL d   1     -56.534 -99.010 -44.761  0.00  0.00     0.100 A 
BRANCH  23  26
ATOM     26  C   UNL d   1     -58.679 -98.796 -45.164  0.00  0.00     0.126 C 
BRANCH  26  27
ATOM     27  C   UNL d   1     -59.385 -98.841 -44.739  0.00  0.00     0.253 C 
ATOM     28  O   UNL d   1     -59.376 -98.761 -43.928  0.00  0.00    -0.281 OA
ENDBRANCH  26  27
ENDBRANCH  23  26
ENDBRANCH  19  20
ENDBRANCH  17  19
ENDBRANCH  16  17
ENDBRANCH   3  16
BRANCH   4  29
ATOM     29  C   UNL d   1     -54.715-101.235 -43.851  0.00  0.00     0.125 C 
ATOM     30  N   UNL d   1     -55.390-100.944 -44.219  0.00  0.00    -0.146 N 
ENDBRANCH   4  29
TORSDOF 7
ENDMDL
