MODEL 1
REMARK VINA RESULT:      -5.1      0.000      0.000
REMARK  2 active torsions:
REMARK  status: ('A' for Active; 'I' for Inactive)
REMARK    1  A    between atoms: C_4  and  N_2 
REMARK    2  A    between atoms: C_7  and  C_4 
REMARK       I    between atoms: N_8  and  C_7 
ROOT
ATOM      1  S   UNL d   1      57.163   0.228  32.741  0.00  0.00     0.274 S 
ATOM      2  N   UNL d   1      57.373  -0.087  32.019  0.00  0.00    -0.192 N 
ATOM      3  C   UNL d   1      56.892  -0.733  31.850  0.00  0.00     0.275 A 
ATOM      4  C   UNL d   1      56.361  -0.827  32.487  0.00  0.00     0.069 A 
ATOM      5  C   UNL d   1      56.531  -0.225  33.045  0.00  0.00     0.109 A 
ATOM      6  O   UNL d   1      57.789   0.681  32.446  0.00  0.00    -0.200 OA
ATOM      7  O   UNL d   1      57.101   0.681  33.434  0.00  0.00    -0.200 OA
ATOM      8  O   UNL d   1      56.931  -1.209  31.159  0.00  0.00    -0.266 OA
ATOM      9  C   UNL d   1      55.769  -1.358  32.631  0.00  0.00     0.005 A 
ATOM     10  C   UNL d   1      56.103  -0.175  33.728  0.00  0.00     0.013 A 
ATOM     11  C   UNL d   1      55.325  -1.303  33.342  0.00  0.00     0.000 A 
ATOM     12  C   UNL d   1      55.492  -0.714  33.889  0.00  0.00     0.001 A 
ENDROOT
BRANCH   2  13
ATOM     13  C   UNL d   1      57.975   0.204  31.542  0.00  0.00     0.156 C 
BRANCH  13  14
ATOM     14  C   UNL d   1      57.813   0.405  30.758  0.00  0.00     0.283 C 
ATOM     15  N   UNL d   1      58.425   0.432  30.214  0.00  0.00    -0.271 N 
ATOM     16  C   UNL d   1      59.199   0.264  30.425  0.00  0.00     0.083 A 
ATOM     17  C   UNL d   1      58.255   0.635  29.423  0.00  0.00     0.083 A 
ATOM     18  C   UNL d   1      59.802   0.295  29.869  0.00  0.00     0.019 A 
ATOM     19  C   UNL d   1      59.646   0.494  29.087  0.00  0.00     0.003 A 
ATOM     20  C   UNL d   1      58.865   0.663  28.874  0.00  0.00     0.019 A 
ATOM     21  C   UNL d   1      60.260   0.525  28.522  0.00  0.00     0.000 C 
ATOM     22  O   UNL d   1      57.027   0.578  30.535  0.00  0.00    -0.265 OA
ENDBRANCH  13  14
ENDBRANCH   2  13
TORSDOF 2
ENDMDL
MODEL 2
REMARK VINA RESULT:      -4.9      1.131      1.582
REMARK  2 active torsions:
REMARK  status: ('A' for Active; 'I' for Inactive)
REMARK    1  A    between atoms: C_4  and  N_2 
REMARK    2  A    between atoms: C_7  and  C_4 
REMARK       I    between atoms: N_8  and  C_7 
ROOT
ATOM      1  S   UNL d   1      56.274  -1.079  32.437  0.00  0.00     0.274 S 
ATOM      2  N   UNL d   1      56.878  -0.646  32.105  0.00  0.00    -0.192 N 
ATOM      3  C   UNL d   1      56.945   0.077  32.493  0.00  0.00     0.275 A 
ATOM      4  C   UNL d   1      56.362   0.099  33.090  0.00  0.00     0.069 A 
ATOM      5  C   UNL d   1      55.941  -0.625  33.055  0.00  0.00     0.109 A 
ATOM      6  O   UNL d   1      56.597  -1.534  31.828  0.00  0.00    -0.200 OA
ATOM      7  O   UNL d   1      55.713  -1.659  32.635  0.00  0.00    -0.200 OA
ATOM      8  O   UNL d   1      57.500   0.682  32.316  0.00  0.00    -0.266 OA
ATOM      9  C   UNL d   1      56.163   0.657  33.640  0.00  0.00     0.005 A 
ATOM     10  C   UNL d   1      55.337  -0.767  33.572  0.00  0.00     0.013 A 
ATOM     11  C   UNL d   1      55.534   0.508  34.176  0.00  0.00     0.000 A 
ATOM     12  C   UNL d   1      55.122  -0.202  34.142  0.00  0.00     0.001 A 
ENDROOT
BRANCH   2  13
ATOM     13  C   UNL d   1      57.343  -0.902  31.479  0.00  0.00     0.156 C 
BRANCH  13  14
ATOM     14  C   UNL d   1      57.415  -0.430  30.804  0.00  0.00     0.283 C 
ATOM     15  N   UNL d   1      57.965  -0.628  30.231  0.00  0.00    -0.271 N 
ATOM     16  C   UNL d   1      58.450  -1.284  30.305  0.00  0.00     0.083 A 
ATOM     17  C   UNL d   1      58.033  -0.149  29.552  0.00  0.00     0.083 A 
ATOM     18  C   UNL d   1      58.997  -1.470  29.722  0.00  0.00     0.019 A 
ATOM     19  C   UNL d   1      59.073  -1.005  29.049  0.00  0.00     0.003 A 
ATOM     20  C   UNL d   1      58.583  -0.343  28.974  0.00  0.00     0.019 A 
ATOM     21  C   UNL d   1      59.629  -1.194  28.456  0.00  0.00     0.000 C 
ATOM     22  O   UNL d   1      56.923   0.240  30.721  0.00  0.00    -0.265 OA
ENDBRANCH  13  14
ENDBRANCH   2  13
TORSDOF 2
ENDMDL
MODEL 3
REMARK VINA RESULT:      -4.4      1.172      1.590
REMARK  2 active torsions:
REMARK  status: ('A' for Active; 'I' for Inactive)
REMARK    1  A    between atoms: C_4  and  N_2 
REMARK    2  A    between atoms: C_7  and  C_4 
REMARK       I    between atoms: N_8  and  C_7 
ROOT
ATOM      1  S   UNL d   1      56.960   0.660  33.605  0.00  0.00     0.274 S 
ATOM      2  N   UNL d   1      56.755   0.639  32.817  0.00  0.00    -0.192 N 
ATOM      3  C   UNL d   1      55.935   0.630  32.746  0.00  0.00     0.275 A 
ATOM      4  C   UNL d   1      55.614   0.645  33.516  0.00  0.00     0.069 A 
ATOM      5  C   UNL d   1      56.255   0.664  34.055  0.00  0.00     0.109 A 
ATOM      6  O   UNL d   1      57.661   0.657  33.168  0.00  0.00    -0.200 OA
ATOM      7  O   UNL d   1      57.359   0.682  34.333  0.00  0.00    -0.200 OA
ATOM      8  O   UNL d   1      55.503   0.608  32.026  0.00  0.00    -0.266 OA
ATOM      9  C   UNL d   1      54.853   0.644  33.791  0.00  0.00     0.005 A 
ATOM     10  C   UNL d   1      56.116   0.682  34.850  0.00  0.00     0.013 A 
ATOM     11  C   UNL d   1      54.711   0.663  34.619  0.00  0.00     0.000 A 
ATOM     12  C   UNL d   1      55.339   0.682  35.146  0.00  0.00     0.001 A 
ENDROOT
BRANCH   2  13
ATOM     13  C   UNL d   1      57.293   0.630  32.198  0.00  0.00     0.156 C 
BRANCH  13  14
ATOM     14  C   UNL d   1      57.327  -0.026  31.697  0.00  0.00     0.283 C 
ATOM     15  N   UNL d   1      57.799   0.002  31.028  0.00  0.00    -0.271 N 
ATOM     16  C   UNL d   1      58.241   0.665  30.837  0.00  0.00     0.083 A 
ATOM     17  C   UNL d   1      57.829  -0.664  30.526  0.00  0.00     0.083 A 
ATOM     18  C   UNL d   1      58.709   0.678  30.163  0.00  0.00     0.019 A 
ATOM     19  C   UNL d   1      58.747   0.028  29.662  0.00  0.00     0.003 A 
ATOM     20  C   UNL d   1      58.300  -0.641  29.854  0.00  0.00     0.019 A 
ATOM     21  C   UNL d   1      59.223   0.042  28.976  0.00  0.00     0.000 C 
ATOM     22  O   UNL d   1      56.879  -0.706  31.884  0.00  0.00    -0.265 OA
ENDBRANCH  13  14
ENDBRANCH   2  13
TORSDOF 2
ENDMDL
MODEL 4
REMARK VINA RESULT:      -4.0      1.382      4.356
REMARK  2 active torsions:
REMARK  status: ('A' for Active; 'I' for Inactive)
REMARK    1  A    between atoms: C_4  and  N_2 
REMARK    2  A    between atoms: C_7  and  C_4 
REMARK       I    between atoms: N_8  and  C_7 
ROOT
ATOM      1  S   UNL d   1      58.030  -1.460  30.255  0.00  0.00     0.274 S 
ATOM      2  N   UNL d   1      57.742  -0.735  30.490  0.00  0.00    -0.192 N 
ATOM      3  C   UNL d   1      58.083  -0.141  30.034  0.00  0.00     0.275 A 
ATOM      4  C   UNL d   1      58.604  -0.505  29.493  0.00  0.00     0.069 A 
ATOM      5  C   UNL d   1      58.571  -1.331  29.631  0.00  0.00     0.109 A 
ATOM      6  O   UNL d   1      57.496  -1.595  30.872  0.00  0.00    -0.200 OA
ATOM      7  O   UNL d   1      58.201  -2.267  30.163  0.00  0.00    -0.200 OA
ATOM      8  O   UNL d   1      57.931   0.682  30.104  0.00  0.00    -0.266 OA
ATOM      9  C   UNL d   1      59.086  -0.209  28.916  0.00  0.00     0.005 A 
ATOM     10  C   UNL d   1      59.021  -1.833  29.187  0.00  0.00     0.013 A 
ATOM     11  C   UNL d   1      59.553  -0.734  28.455  0.00  0.00     0.000 A 
ATOM     12  C   UNL d   1      59.521  -1.543  28.590  0.00  0.00     0.001 A 
ENDROOT
BRANCH   2  13
ATOM     13  C   UNL d   1      57.194  -0.627  31.092  0.00  0.00     0.156 C 
BRANCH  13  14
ATOM     14  C   UNL d   1      57.382  -0.139  31.732  0.00  0.00     0.283 C 
ATOM     15  N   UNL d   1      56.838  -0.040  32.336  0.00  0.00    -0.271 N 
ATOM     16  C   UNL d   1      56.108  -0.412  32.327  0.00  0.00     0.083 A 
ATOM     17  C   UNL d   1      57.033   0.453  32.980  0.00  0.00     0.083 A 
ATOM     18  C   UNL d   1      55.573  -0.303  32.940  0.00  0.00     0.019 A 
ATOM     19  C   UNL d   1      55.754   0.181  33.578  0.00  0.00     0.003 A 
ATOM     20  C   UNL d   1      56.492   0.556  33.588  0.00  0.00     0.019 A 
ATOM     21  C   UNL d   1      55.211   0.292  34.202  0.00  0.00     0.000 C 
ATOM     22  O   UNL d   1      58.124   0.243  31.749  0.00  0.00    -0.265 OA
ENDBRANCH  13  14
ENDBRANCH   2  13
TORSDOF 2
ENDMDL
MODEL 5
REMARK VINA RESULT:      -2.3      9.573     10.341
REMARK  2 active torsions:
REMARK  status: ('A' for Active; 'I' for Inactive)
REMARK    1  A    between atoms: C_4  and  N_2 
REMARK    2  A    between atoms: C_7  and  C_4 
REMARK       I    between atoms: N_8  and  C_7 
ROOT
ATOM      1  S   UNL d   1      59.092  -9.784  31.494  0.00  0.00     0.274 S 
ATOM      2  N   UNL d   1      58.794  -9.792  32.252  0.00  0.00    -0.192 N 
ATOM      3  C   UNL d   1      57.972  -9.805  32.225  0.00  0.00     0.275 A 
ATOM      4  C   UNL d   1      57.745  -9.806  31.422  0.00  0.00     0.069 A 
ATOM      5  C   UNL d   1      58.447  -9.793  30.964  0.00  0.00     0.109 A 
ATOM      6  O   UNL d   1      59.736  -9.775  32.012  0.00  0.00    -0.200 OA
ATOM      7  O   UNL d   1      59.576  -9.774  30.819  0.00  0.00    -0.200 OA
ATOM      8  O   UNL d   1      57.457  -9.816  32.889  0.00  0.00    -0.266 OA
ATOM      9  C   UNL d   1      57.023  -9.817  31.058  0.00  0.00     0.005 A 
ATOM     10  C   UNL d   1      58.403  -9.791  30.157  0.00  0.00     0.013 A 
ATOM     11  C   UNL d   1      56.980  -9.815  30.219  0.00  0.00     0.000 A 
ATOM     12  C   UNL d   1      57.668  -9.803  29.770  0.00  0.00     0.001 A 
ENDROOT
BRANCH   2  13
ATOM     13  C   UNL d   1      59.255  -9.786  32.932  0.00  0.00     0.156 C 
BRANCH  13  14
ATOM     14  C   UNL d   1      59.128  -9.206  33.505  0.00  0.00     0.283 C 
ATOM     15  N   UNL d   1      59.573  -9.215  34.193  0.00  0.00    -0.271 N 
ATOM     16  C   UNL d   1      60.144  -9.786  34.331  0.00  0.00     0.083 A 
ATOM     17  C   UNL d   1      59.441  -8.627  34.769  0.00  0.00     0.083 A 
ATOM     18  C   UNL d   1      60.582  -9.783  35.025  0.00  0.00     0.019 A 
ATOM     19  C   UNL d   1      60.461  -9.208  35.599  0.00  0.00     0.003 A 
ATOM     20  C   UNL d   1      59.884  -8.631  35.460  0.00  0.00     0.019 A 
ATOM     21  C   UNL d   1      60.906  -9.205  36.306  0.00  0.00     0.000 C 
ATOM     22  O   UNL d   1      58.548  -8.620  33.372  0.00  0.00    -0.265 OA
ENDBRANCH  13  14
ENDBRANCH   2  13
TORSDOF 2
ENDMDL
