MODEL 1
REMARK VINA RESULT:      -7.6      0.000      0.000
REMARK  5 active torsions:
REMARK  status: ('A' for Active; 'I' for Inactive)
REMARK    1  A    between atoms: O_8  and  S_1 
REMARK    2  A    between atoms: C_9  and  S_1 
REMARK    3  A    between atoms: C_7  and  C_2 
REMARK    4  A    between atoms: C_20  and  C_7 
REMARK    5  A    between atoms: C_14  and  O_8 
ROOT
ATOM      1  C   UNL d   1     -49.502  12.593  22.808  0.00  0.00     0.139 A 
ATOM      2  C   UNL d   1     -48.403  11.915  23.126  0.00  0.00     0.064 A 
ATOM      3  C   UNL d   1     -49.194  11.835  22.921  0.00  0.00     0.220 A 
ATOM      4  C   UNL d   1     -48.215  12.718  23.142  0.00  0.00     0.105 A 
ATOM      5  O   UNL d   1     -48.898  13.138  22.944  0.00  0.00    -0.304 OA
ATOM      6  C   UNL d   1     -47.458  12.953  23.331  0.00  0.00     0.050 A 
ATOM      7  C   UNL d   1     -47.826  11.354  23.302  0.00  0.00     0.007 A 
ATOM      8  C   UNL d   1     -46.881  12.392  23.507  0.00  0.00     0.116 A 
ATOM      9  O   UNL d   1     -49.615  11.130  22.840  0.00  0.00    -0.284 OA
ATOM     10  C   UNL d   1     -47.067  11.596  23.492  0.00  0.00     0.026 A 
ENDROOT
BRANCH   8  11
ATOM     11  O   UNL d   1     -46.118  12.633  23.698  0.00  0.00    -0.227 OA
BRANCH  11  12
ATOM     12  S   UNL d   1     -45.531  12.642  23.119  0.00  0.00     0.304 S 
ATOM     13  O   UNL d   1     -45.360  11.863  23.281  0.00  0.00    -0.193 OA
ATOM     14  O   UNL d   1     -45.694  13.428  22.946  0.00  0.00    -0.193 OA
BRANCH  12  15
ATOM     15  C   UNL d   1     -44.936  12.645  22.535  0.00  0.00     0.111 A 
ATOM     16  C   UNL d   1     -44.968  13.201  21.923  0.00  0.00     0.016 A 
ATOM     17  C   UNL d   1     -44.380  13.205  21.345  0.00  0.00     0.030 A 
ATOM     18  C   UNL d   1     -43.759  12.654  21.378  0.00  0.00     0.140 A 
ATOM     19  C   UNL d   1     -43.738  12.102  21.997  0.00  0.00     0.030 A 
ATOM     20  F   UNL d   1     -43.180  12.658  20.809  0.00  0.00    -0.204 F 
ATOM     21  C   UNL d   1     -44.328  12.101  22.573  0.00  0.00     0.016 A 
ENDBRANCH  12  15
ENDBRANCH  11  12
ENDBRANCH   8  11
BRANCH   1  22
ATOM     22  C   UNL d   1     -50.277  12.778  22.596  0.00  0.00     0.029 C 
BRANCH  22  23
ATOM     23  C   UNL d   1     -50.536  13.565  22.589  0.00  0.00     0.021 A 
ATOM     24  C   UNL d   1     -50.529  13.981  21.883  0.00  0.00     0.099 A 
ATOM     25  N   UNL d   1     -50.782  14.761  21.862  0.00  0.00    -0.242 NA
ATOM     26  C   UNL d   1     -51.047  15.130  22.562  0.00  0.00     0.099 A 
ATOM     27  C   UNL d   1     -51.052  14.705  23.271  0.00  0.00     0.021 A 
ATOM     28  C   UNL d   1     -50.793  13.919  23.277  0.00  0.00     0.003 A 
ENDBRANCH  22  23
ENDBRANCH   1  22
TORSDOF 5
ENDMDL
MODEL 2
REMARK VINA RESULT:      -5.6      8.775     10.004
REMARK  5 active torsions:
REMARK  status: ('A' for Active; 'I' for Inactive)
REMARK    1  A    between atoms: O_8  and  S_1 
REMARK    2  A    between atoms: C_9  and  S_1 
REMARK    3  A    between atoms: C_7  and  C_2 
REMARK    4  A    between atoms: C_20  and  C_7 
REMARK    5  A    between atoms: C_14  and  O_8 
ROOT
ATOM      1  C   UNL d   1     -39.832  15.510  17.750  0.00  0.00     0.139 A 
ATOM      2  C   UNL d   1     -40.208  15.693  19.012  0.00  0.00     0.064 A 
ATOM      3  C   UNL d   1     -40.487  15.601  18.244  0.00  0.00     0.220 A 
ATOM      4  C   UNL d   1     -39.384  15.659  18.998  0.00  0.00     0.105 A 
ATOM      5  O   UNL d   1     -39.151  15.546  18.214  0.00  0.00    -0.304 OA
ATOM      6  C   UNL d   1     -38.965  15.735  19.693  0.00  0.00     0.050 A 
ATOM      7  C   UNL d   1     -40.604  15.803  19.726  0.00  0.00     0.007 A 
ATOM      8  C   UNL d   1     -39.361  15.846  20.407  0.00  0.00     0.116 A 
ATOM      9  O   UNL d   1     -41.275  15.599  18.002  0.00  0.00    -0.284 OA
ATOM     10  C   UNL d   1     -40.177  15.879  20.420  0.00  0.00     0.026 A 
ENDROOT
BRANCH   8  11
ATOM     11  O   UNL d   1     -38.934  15.922  21.106  0.00  0.00    -0.227 OA
BRANCH  11  12
ATOM     12  S   UNL d   1     -38.796  15.261  21.580  0.00  0.00     0.304 S 
ATOM     13  O   UNL d   1     -38.070  15.160  21.228  0.00  0.00    -0.193 OA
ATOM     14  O   UNL d   1     -39.526  15.353  21.943  0.00  0.00    -0.193 OA
BRANCH  12  15
ATOM     15  C   UNL d   1     -38.652  14.593  22.057  0.00  0.00     0.111 A 
ATOM     16  C   UNL d   1     -38.246  13.946  21.741  0.00  0.00     0.016 A 
ATOM     17  C   UNL d   1     -38.103  13.284  22.212  0.00  0.00     0.030 A 
ATOM     18  C   UNL d   1     -38.366  13.269  23.000  0.00  0.00     0.140 A 
ATOM     19  C   UNL d   1     -38.771  13.924  23.306  0.00  0.00     0.030 A 
ATOM     20  F   UNL d   1     -38.225  12.618  23.464  0.00  0.00    -0.204 F 
ATOM     21  C   UNL d   1     -38.913  14.584  22.831  0.00  0.00     0.016 A 
ENDBRANCH  12  15
ENDBRANCH  11  12
ENDBRANCH   8  11
BRANCH   1  22
ATOM     22  C   UNL d   1     -39.850  15.402  16.932  0.00  0.00     0.029 C 
BRANCH  22  23
ATOM     23  C   UNL d   1     -39.212  15.048  16.540  0.00  0.00     0.021 A 
ATOM     24  C   UNL d   1     -38.654  15.524  16.173  0.00  0.00     0.099 A 
ATOM     25  N   UNL d   1     -38.018  15.186  15.782  0.00  0.00    -0.242 NA
ATOM     26  C   UNL d   1     -37.939  14.357  15.757  0.00  0.00     0.099 A 
ATOM     27  C   UNL d   1     -38.505  13.881  16.128  0.00  0.00     0.021 A 
ATOM     28  C   UNL d   1     -39.142  14.235  16.520  0.00  0.00     0.003 A 
ENDBRANCH  22  23
ENDBRANCH   1  22
TORSDOF 5
ENDMDL
MODEL 3
REMARK VINA RESULT:      -5.0      2.546      5.466
REMARK  5 active torsions:
REMARK  status: ('A' for Active; 'I' for Inactive)
REMARK    1  A    between atoms: O_8  and  S_1 
REMARK    2  A    between atoms: C_9  and  S_1 
REMARK    3  A    between atoms: C_7  and  C_2 
REMARK    4  A    between atoms: C_20  and  C_7 
REMARK    5  A    between atoms: C_14  and  O_8 
ROOT
ATOM      1  C   UNL d   1     -44.564  12.392  22.404  0.00  0.00     0.139 A 
ATOM      2  C   UNL d   1     -45.727  12.536  23.033  0.00  0.00     0.064 A 
ATOM      3  C   UNL d   1     -45.080  12.037  22.942  0.00  0.00     0.220 A 
ATOM      4  C   UNL d   1     -45.616  13.200  22.556  0.00  0.00     0.105 A 
ATOM      5  O   UNL d   1     -44.895  13.109  22.165  0.00  0.00    -0.304 OA
ATOM      6  C   UNL d   1     -46.182  13.787  22.543  0.00  0.00     0.050 A 
ATOM      7  C   UNL d   1     -46.406  12.468  23.495  0.00  0.00     0.007 A 
ATOM      8  C   UNL d   1     -46.861  13.719  23.004  0.00  0.00     0.116 A 
ATOM      9  O   UNL d   1     -44.959  11.311  23.314  0.00  0.00    -0.284 OA
ATOM     10  C   UNL d   1     -46.970  13.062  23.477  0.00  0.00     0.026 A 
ENDROOT
BRANCH   8  11
ATOM     11  O   UNL d   1     -47.428  14.314  22.988  0.00  0.00    -0.227 OA
BRANCH  11  12
ATOM     12  S   UNL d   1     -48.157  14.180  22.626  0.00  0.00     0.304 S 
ATOM     13  O   UNL d   1     -47.875  14.507  21.937  0.00  0.00    -0.193 OA
ATOM     14  O   UNL d   1     -48.454  13.848  23.316  0.00  0.00    -0.193 OA
BRANCH  12  15
ATOM     15  C   UNL d   1     -48.893  14.047  22.255  0.00  0.00     0.111 A 
ATOM     16  C   UNL d   1     -49.567  14.435  22.536  0.00  0.00     0.016 A 
ATOM     17  C   UNL d   1     -50.294  14.303  22.170  0.00  0.00     0.030 A 
ATOM     18  C   UNL d   1     -50.348  13.784  21.523  0.00  0.00     0.140 A 
ATOM     19  C   UNL d   1     -49.664  13.401  21.252  0.00  0.00     0.030 A 
ATOM     20  F   UNL d   1     -51.064  13.654  21.163  0.00  0.00    -0.204 F 
ATOM     21  C   UNL d   1     -48.938  13.535  21.621  0.00  0.00     0.016 A 
ENDBRANCH  12  15
ENDBRANCH  11  12
ENDBRANCH   8  11
BRANCH   1  22
ATOM     22  C   UNL d   1     -43.843  12.086  22.146  0.00  0.00     0.029 C 
BRANCH  22  23
ATOM     23  C   UNL d   1     -43.348  12.533  21.655  0.00  0.00     0.021 A 
ATOM     24  C   UNL d   1     -43.514  12.576  20.853  0.00  0.00     0.099 A 
ATOM     25  N   UNL d   1     -43.032  13.014  20.355  0.00  0.00    -0.242 NA
ATOM     26  C   UNL d   1     -42.372  13.417  20.666  0.00  0.00     0.099 A 
ATOM     27  C   UNL d   1     -42.209  13.371  21.476  0.00  0.00     0.021 A 
ATOM     28  C   UNL d   1     -42.703  12.925  21.966  0.00  0.00     0.003 A 
ENDBRANCH  22  23
ENDBRANCH   1  22
TORSDOF 5
ENDMDL
