MODEL 1
REMARK VINA RESULT:      -3.0      0.000      0.000
REMARK  3 active torsions:
REMARK  status: ('A' for Active; 'I' for Inactive)
REMARK    1  A    between atoms: C_15  and  N_4 
REMARK    2  A    between atoms: C_11  and  N_10 
REMARK    3  A    between atoms: C_19  and  C_15 
ROOT
ATOM      1  C   UNL d   1      32.734  19.297 -23.589  0.00  0.00     0.191 A 
ATOM      2  C   UNL d   1      32.936  18.849 -22.920  0.00  0.00     0.173 A 
ATOM      3  C   UNL d   1      32.904  20.149 -22.561  0.00  0.00     0.722 A 
ATOM      4  N   UNL d   1      32.862  17.636 -23.681  0.00  0.00    -0.224 N 
ATOM      5  N   UNL d   1      32.712  20.098 -23.381  0.00  0.00    -0.042 NA
ATOM      6  N   UNL d   1      33.041  19.387 -22.281  0.00  0.00    -0.131 N 
ATOM      7  N   UNL d   1      32.591  18.911 -24.327  0.00  0.00    -0.240 N 
ATOM      8  C   UNL d   1      32.659  18.059 -24.366  0.00  0.00     0.343 A 
ATOM      9  C   UNL d   1      33.001  18.050 -22.949  0.00  0.00     0.288 A 
ATOM     10  N   UNL d   1      33.007  20.672 -21.937  0.00  0.00    -0.139 N 
ATOM     11  C   UNL d   1      33.229  19.440 -21.480  0.00  0.00     0.118 A 
ATOM     12  C   UNL d   1      33.206  20.238 -21.274  0.00  0.00     0.117 A 
ATOM     13  O   UNL d   1      32.523  17.639 -25.088  0.00  0.00    -0.245 OA
ATOM     14  O   UNL d   1      33.206  17.594 -22.267  0.00  0.00    -0.265 OA
ATOM     15  C   UNL d   1      32.387  19.352 -25.010  0.00  0.00     0.105 C 
ENDROOT
BRANCH  10  16
ATOM     16  C   UNL d   1      32.924  21.493 -21.974  0.00  0.00     0.082 A 
ATOM     17  C   UNL d   1      32.529  21.883 -21.372  0.00  0.00     0.027 A 
ATOM     18  C   UNL d   1      32.447  22.694 -21.408  0.00  0.00     0.059 A 
ATOM     19  C   UNL d   1      32.214  21.463 -20.731  0.00  0.00     0.002 C 
ATOM     20 CL   UNL d   1      32.038  23.019 -20.768  0.00  0.00    -0.082 Cl
ATOM     21  C   UNL d   1      32.759  23.121 -22.046  0.00  0.00     0.011 A 
ATOM     22  C   UNL d   1      33.157  22.725 -22.652  0.00  0.00     0.002 A 
ATOM     23  C   UNL d   1      33.238  21.905 -22.612  0.00  0.00     0.018 A 
ENDBRANCH  10  16
BRANCH   4  24
ATOM     24  C   UNL d   1      32.819  16.938 -24.119  0.00  0.00     0.087 C 
BRANCH  24  25
ATOM     25  C   UNL d   1      32.639  16.234 -23.741  0.00  0.00     0.018 C 
ATOM     26  C   UNL d   1      33.241  15.693 -23.580  0.00  0.00     0.002 C 
ATOM     27  C   UNL d   1      31.873  16.057 -23.521  0.00  0.00     0.002 C 
ENDBRANCH  24  25
ENDBRANCH   4  24
TORSDOF 3
ENDMDL
MODEL 2
REMARK VINA RESULT:      -1.9      2.205      4.838
REMARK  3 active torsions:
REMARK  status: ('A' for Active; 'I' for Inactive)
REMARK    1  A    between atoms: C_15  and  N_4 
REMARK    2  A    between atoms: C_11  and  N_10 
REMARK    3  A    between atoms: C_19  and  C_15 
ROOT
ATOM      1  C   UNL d   1      32.859  21.578 -22.256  0.00  0.00     0.191 A 
ATOM      2  C   UNL d   1      32.991  21.153 -21.555  0.00  0.00     0.173 A 
ATOM      3  C   UNL d   1      33.015  20.282 -22.585  0.00  0.00     0.722 A 
ATOM      4  N   UNL d   1      32.892  22.356 -20.781  0.00  0.00    -0.224 N 
ATOM      5  N   UNL d   1      32.872  21.053 -22.897  0.00  0.00    -0.042 NA
ATOM      6  N   UNL d   1      33.087  20.344 -21.768  0.00  0.00    -0.131 N 
ATOM      7  N   UNL d   1      32.740  22.414 -22.226  0.00  0.00    -0.240 N 
ATOM      8  C   UNL d   1      32.758  22.805 -21.466  0.00  0.00     0.343 A 
ATOM      9  C   UNL d   1      33.009  21.514 -20.839  0.00  0.00     0.288 A 
ATOM     10  N   UNL d   1      33.110  19.494 -22.790  0.00  0.00    -0.139 N 
ATOM     11  C   UNL d   1      33.228  19.589 -21.467  0.00  0.00     0.118 A 
ATOM     12  C   UNL d   1      33.240  19.068 -22.105  0.00  0.00     0.117 A 
ATOM     13  O   UNL d   1      32.643  23.641 -21.398  0.00  0.00    -0.245 OA
ATOM     14  O   UNL d   1      33.143  21.080 -20.126  0.00  0.00    -0.265 OA
ATOM     15  C   UNL d   1      32.606  22.854 -22.927  0.00  0.00     0.105 C 
ENDROOT
BRANCH  10  16
ATOM     16  C   UNL d   1      33.079  19.184 -23.556  0.00  0.00     0.082 A 
ATOM     17  C   UNL d   1      32.889  18.395 -23.662  0.00  0.00     0.027 A 
ATOM     18  C   UNL d   1      32.858  18.089 -24.418  0.00  0.00     0.059 A 
ATOM     19  C   UNL d   1      32.728  17.907 -23.011  0.00  0.00     0.002 C 
ATOM     20 CL   UNL d   1      32.660  17.287 -24.448  0.00  0.00    -0.082 Cl
ATOM     21  C   UNL d   1      33.018  18.570 -25.073  0.00  0.00     0.011 A 
ATOM     22  C   UNL d   1      33.210  19.366 -24.963  0.00  0.00     0.002 A 
ATOM     23  C   UNL d   1      33.240  19.671 -24.198  0.00  0.00     0.018 A 
ENDBRANCH  10  16
BRANCH   4  24
ATOM     24  C   UNL d   1      32.835  23.048 -20.336  0.00  0.00     0.087 C 
BRANCH  24  25
ATOM     25  C   UNL d   1      32.645  23.002 -19.540  0.00  0.00     0.018 C 
ATOM     26  C   UNL d   1      31.860  22.885 -19.315  0.00  0.00     0.002 C 
ATOM     27  C   UNL d   1      33.221  23.068 -18.964  0.00  0.00     0.002 C 
ENDBRANCH  24  25
ENDBRANCH   4  24
TORSDOF 3
ENDMDL
