MODEL 1
REMARK VINA RESULT:      -7.9      0.000      0.000
REMARK  5 active torsions:
REMARK  status: ('A' for Active; 'I' for Inactive)
REMARK    1  A    between atoms: C_10  and  C_3 
REMARK    2  A    between atoms: N_9  and  C_4 
REMARK    3  A    between atoms: C_16  and  N_12 
REMARK    4  A    between atoms: O_21  and  C_15 
REMARK    5  A    between atoms: C_20  and  C_16 
ROOT
ATOM      1  N   UNL d   1      52.222  33.711  53.272  0.00  0.00    -0.196 N 
ATOM      2  C   UNL d   1      52.879  33.749  53.764  0.00  0.00     0.167 A 
ATOM      3  C   UNL d   1      53.295  33.105  53.918  0.00  0.00     0.057 A 
ATOM      4  C   UNL d   1      51.814  34.392  53.132  0.00  0.00     0.152 A 
ATOM      5  N   UNL d   1      52.435  32.363  53.112  0.00  0.00    -0.163 NA
ATOM      6  C   UNL d   1      53.073  32.400  53.589  0.00  0.00     0.104 A 
ATOM      7  N   UNL d   1      53.089  34.466  54.087  0.00  0.00    -0.227 NA
ATOM      8  C   UNL d   1      52.024  35.084  53.449  0.00  0.00     0.057 A 
ATOM      9  C   UNL d   1      52.671  35.122  53.934  0.00  0.00     0.086 A 
ATOM     10  C   UNL d   1      53.509  31.712  53.747  0.00  0.00     0.023 C 
ATOM     11  C   UNL d   1      52.893  35.853  54.268  0.00  0.00     0.021 C 
ENDROOT
BRANCH   4  12
ATOM     12  N   UNL d   1      51.142  34.352  52.630  0.00  0.00    -0.286 N 
ATOM     13  C   UNL d   1      50.509  34.348  53.158  0.00  0.00     0.101 A 
ATOM     14  C   UNL d   1      49.726  34.312  52.873  0.00  0.00     0.100 A 
ATOM     15  N   UNL d   1      49.570  34.280  52.057  0.00  0.00    -0.300 N 
ATOM     16  C   UNL d   1      50.211  34.284  51.520  0.00  0.00     0.100 A 
ATOM     17  C   UNL d   1      51.002  34.320  51.799  0.00  0.00     0.101 A 
BRANCH  15  18
ATOM     18  C   UNL d   1      48.777  34.244  51.782  0.00  0.00     0.080 C 
BRANCH  18  19
ATOM     19  C   UNL d   1      48.307  34.937  51.799  0.00  0.00     0.018 A 
ATOM     20  C   UNL d   1      48.121  35.295  52.527  0.00  0.00     0.002 A 
ATOM     21  C   UNL d   1      47.651  35.987  52.543  0.00  0.00     0.000 A 
ATOM     22  C   UNL d   1      47.378  36.307  51.831  0.00  0.00     0.000 A 
ATOM     23  C   UNL d   1      47.565  35.947  51.100  0.00  0.00     0.000 A 
ATOM     24  C   UNL d   1      48.030  35.262  51.093  0.00  0.00     0.002 A 
ENDBRANCH  18  19
ENDBRANCH  15  18
ENDBRANCH   4  12
BRANCH   3  25
ATOM     25  C   UNL d   1      53.939  33.143  54.399  0.00  0.00     0.027 A 
ATOM     26  C   UNL d   1      54.683  33.186  54.084  0.00  0.00     0.094 A 
ATOM     27  C   UNL d   1      55.324  33.224  54.563  0.00  0.00     0.024 A 
ATOM     28  C   UNL d   1      55.222  33.218  55.359  0.00  0.00     0.002 A 
ATOM     29  C   UNL d   1      54.485  33.175  55.666  0.00  0.00     0.000 A 
ATOM     30  C   UNL d   1      53.855  33.138  55.194  0.00  0.00     0.002 A 
BRANCH  26  31
ATOM     31  O   UNL d   1      54.778  33.191  53.255  0.00  0.00    -0.328 OA
ATOM     32  C   UNL d   1      55.548  33.232  52.924  0.00  0.00     0.181 C 
ENDBRANCH  26  31
ENDBRANCH   3  25
TORSDOF 5
ENDMDL
MODEL 2
REMARK VINA RESULT:      -7.0      1.149      2.142
REMARK  5 active torsions:
REMARK  status: ('A' for Active; 'I' for Inactive)
REMARK    1  A    between atoms: C_10  and  C_3 
REMARK    2  A    between atoms: N_9  and  C_4 
REMARK    3  A    between atoms: C_16  and  N_12 
REMARK    4  A    between atoms: O_21  and  C_15 
REMARK    5  A    between atoms: C_20  and  C_16 
ROOT
ATOM      1  N   UNL d   1      51.319  34.362  53.186  0.00  0.00    -0.196 N 
ATOM      2  C   UNL d   1      51.936  33.837  53.330  0.00  0.00     0.167 A 
ATOM      3  C   UNL d   1      52.662  34.104  53.445  0.00  0.00     0.057 A 
ATOM      4  C   UNL d   1      50.582  34.056  53.071  0.00  0.00     0.152 A 
ATOM      5  N   UNL d   1      52.204  35.409  53.281  0.00  0.00    -0.163 NA
ATOM      6  C   UNL d   1      52.802  34.900  53.421  0.00  0.00     0.104 A 
ATOM      7  N   UNL d   1      51.778  33.039  53.351  0.00  0.00    -0.227 NA
ATOM      8  C   UNL d   1      50.437  33.280  53.093  0.00  0.00     0.057 A 
ATOM      9  C   UNL d   1      51.044  32.763  53.235  0.00  0.00     0.086 A 
ATOM     10  C   UNL d   1      53.570  35.191  53.542  0.00  0.00     0.023 C 
ATOM     11  C   UNL d   1      50.891  31.944  53.259  0.00  0.00     0.021 C 
ENDROOT
BRANCH   4  12
ATOM     12  N   UNL d   1      49.953  34.591  52.924  0.00  0.00    -0.286 N 
ATOM     13  C   UNL d   1      49.771  34.459  52.131  0.00  0.00     0.101 A 
ATOM     14  C   UNL d   1      49.162  34.892  51.762  0.00  0.00     0.100 A 
ATOM     15  N   UNL d   1      48.727  35.461  52.185  0.00  0.00    -0.300 N 
ATOM     16  C   UNL d   1      48.909  35.597  52.990  0.00  0.00     0.100 A 
ATOM     17  C   UNL d   1      49.522  35.165  53.367  0.00  0.00     0.101 A 
BRANCH  15  18
ATOM     18  C   UNL d   1      48.114  35.892  51.803  0.00  0.00     0.080 C 
BRANCH  18  19
ATOM     19  C   UNL d   1      47.335  35.850  52.108  0.00  0.00     0.018 A 
ATOM     20  C   UNL d   1      47.111  36.341  52.741  0.00  0.00     0.002 A 
ATOM     21  C   UNL d   1      46.332  36.299  53.045  0.00  0.00     0.000 A 
ATOM     22  C   UNL d   1      45.795  35.768  52.709  0.00  0.00     0.000 A 
ATOM     23  C   UNL d   1      46.021  35.276  52.073  0.00  0.00     0.000 A 
ATOM     24  C   UNL d   1      46.794  35.323  51.778  0.00  0.00     0.002 A 
ENDBRANCH  18  19
ENDBRANCH  15  18
ENDBRANCH   4  12
BRANCH   3  25
ATOM     25  C   UNL d   1      53.266  33.590  53.586  0.00  0.00     0.027 A 
ATOM     26  C   UNL d   1      53.543  33.483  54.339  0.00  0.00     0.094 A 
ATOM     27  C   UNL d   1      54.143  32.972  54.480  0.00  0.00     0.024 A 
ATOM     28  C   UNL d   1      54.468  32.567  53.868  0.00  0.00     0.002 A 
ATOM     29  C   UNL d   1      54.191  32.676  53.127  0.00  0.00     0.000 A 
ATOM     30  C   UNL d   1      53.600  33.179  52.988  0.00  0.00     0.002 A 
BRANCH  26  31
ATOM     31  O   UNL d   1      53.198  33.909  54.968  0.00  0.00    -0.328 OA
ATOM     32  C   UNL d   1      53.530  33.859  55.737  0.00  0.00     0.181 C 
ENDBRANCH  26  31
ENDBRANCH   3  25
TORSDOF 5
ENDMDL
MODEL 3
REMARK VINA RESULT:      -6.5      1.880      6.316
REMARK  5 active torsions:
REMARK  status: ('A' for Active; 'I' for Inactive)
REMARK    1  A    between atoms: C_10  and  C_3 
REMARK    2  A    between atoms: N_9  and  C_4 
REMARK    3  A    between atoms: C_16  and  N_12 
REMARK    4  A    between atoms: O_21  and  C_15 
REMARK    5  A    between atoms: C_20  and  C_16 
ROOT
ATOM      1  N   UNL d   1      49.224  35.117  52.873  0.00  0.00    -0.196 N 
ATOM      2  C   UNL d   1      48.514  35.327  52.517  0.00  0.00     0.167 A 
ATOM      3  C   UNL d   1      48.036  35.841  52.862  0.00  0.00     0.057 A 
ATOM      4  C   UNL d   1      49.695  34.585  52.492  0.00  0.00     0.152 A 
ATOM      5  N   UNL d   1      48.935  35.959  53.919  0.00  0.00    -0.163 NA
ATOM      6  C   UNL d   1      48.246  36.164  53.573  0.00  0.00     0.104 A 
ATOM      7  N   UNL d   1      48.317  34.994  51.800  0.00  0.00    -0.227 NA
ATOM      8  C   UNL d   1      49.498  34.265  51.797  0.00  0.00     0.057 A 
ATOM      9  C   UNL d   1      48.798  34.473  51.446  0.00  0.00     0.086 A 
ATOM     10  C   UNL d   1      47.744  36.709  53.947  0.00  0.00     0.023 C 
ATOM     11  C   UNL d   1      48.589  34.136  50.712  0.00  0.00     0.021 C 
ENDROOT
BRANCH   4  12
ATOM     12  N   UNL d   1      50.420  34.370  52.856  0.00  0.00    -0.286 N 
ATOM     13  C   UNL d   1      50.977  34.497  52.262  0.00  0.00     0.101 A 
ATOM     14  C   UNL d   1      51.784  34.346  52.404  0.00  0.00     0.100 A 
ATOM     15  N   UNL d   1      52.042  34.065  53.144  0.00  0.00    -0.300 N 
ATOM     16  C   UNL d   1      51.479  33.935  53.748  0.00  0.00     0.100 A 
ATOM     17  C   UNL d   1      50.664  34.085  53.611  0.00  0.00     0.101 A 
BRANCH  15  18
ATOM     18  C   UNL d   1      52.858  33.916  53.276  0.00  0.00     0.080 C 
BRANCH  18  19
ATOM     19  C   UNL d   1      53.109  33.134  53.443  0.00  0.00     0.018 A 
ATOM     20  C   UNL d   1      53.004  32.535  52.875  0.00  0.00     0.002 A 
ATOM     21  C   UNL d   1      53.254  31.754  53.042  0.00  0.00     0.000 A 
ATOM     22  C   UNL d   1      53.604  31.589  53.773  0.00  0.00     0.000 A 
ATOM     23  C   UNL d   1      53.710  32.192  54.343  0.00  0.00     0.000 A 
ATOM     24  C   UNL d   1      53.459  32.963  54.169  0.00  0.00     0.002 A 
ENDBRANCH  18  19
ENDBRANCH  15  18
ENDBRANCH   4  12
BRANCH   3  25
ATOM     25  C   UNL d   1      47.340  36.047  52.513  0.00  0.00     0.027 A 
ATOM     26  C   UNL d   1      46.637  35.790  52.820  0.00  0.00     0.094 A 
ATOM     27  C   UNL d   1      45.945  35.996  52.473  0.00  0.00     0.024 A 
ATOM     28  C   UNL d   1      45.955  36.459  51.817  0.00  0.00     0.002 A 
ATOM     29  C   UNL d   1      46.652  36.709  51.518  0.00  0.00     0.000 A 
ATOM     30  C   UNL d   1      47.333  36.507  51.860  0.00  0.00     0.002 A 
BRANCH  26  31
ATOM     31  O   UNL d   1      46.639  35.309  53.502  0.00  0.00    -0.328 OA
ATOM     32  C   UNL d   1      45.912  35.100  53.865  0.00  0.00     0.181 C 
ENDBRANCH  26  31
ENDBRANCH   3  25
TORSDOF 5
ENDMDL
