MODEL 1
REMARK VINA RESULT:      25.5      0.000      0.000
REMARK  4 active torsions:
REMARK  status: ('A' for Active; 'I' for Inactive)
REMARK    1  A    between atoms: S_9  and  C_1 
REMARK    2  A    between atoms: N_3  and  C_7 
REMARK    3  A    between atoms: C_13  and  S_9 
REMARK    4  A    between atoms: C_14  and  C_13 
ROOT
ATOM      1  S   UNL d   1      13.506  11.840  -3.543  0.00  0.00    -0.042 SA
ENDROOT
BRANCH   1   2
ATOM      2  C   UNL d   1      13.683  11.828  -2.743  0.00  0.00     0.215 A 
ATOM      3  N   UNL d   1      13.124  11.806  -2.145  0.00  0.00    -0.214 NA
ATOM      4  C   UNL d   1      13.525  11.801  -1.445  0.00  0.00     0.107 A 
ATOM      5  C   UNL d   1      13.266  11.781  -0.662  0.00  0.00     0.021 A 
ATOM      6  C   UNL d   1      14.329  11.819  -1.602  0.00  0.00     0.120 A 
ATOM      7  C   UNL d   1      13.801  11.779  -0.034  0.00  0.00     0.002 A 
ATOM      8  C   UNL d   1      14.605  11.798  -0.191  0.00  0.00     0.002 A 
ATOM      9  C   UNL d   1      14.863  11.817  -0.974  0.00  0.00     0.026 A 
ATOM     10  O   UNL d   1      14.437  11.836  -2.401  0.00  0.00    -0.283 OA
ENDBRANCH   1   2
BRANCH   1  11
ATOM     11  C   UNL d   1      12.918  12.357  -3.801  0.00  0.00     0.039 C 
BRANCH  11  12
ATOM     12  C   UNL d   1      13.125  13.013  -4.235  0.00  0.00     0.007 A 
ATOM     13  C   UNL d   1      12.871  13.743  -4.012  0.00  0.00     0.002 A 
ATOM     14  C   UNL d   1      13.085  14.419  -4.459  0.00  0.00     0.024 A 
ATOM     15  C   UNL d   1      13.549  14.351  -5.119  0.00  0.00     0.127 A 
ATOM     16  C   UNL d   1      13.825  13.585  -5.367  0.00  0.00     0.024 A 
ATOM     17  C   UNL d   1      13.599  12.923  -4.905  0.00  0.00     0.002 A 
BRANCH  15  18
ATOM     18  N   UNL d   1      13.731  15.037  -5.521  0.00  0.00    -0.114 N 
ATOM     19  O   UNL d   1      14.096  14.952  -6.232  0.00  0.00    -0.532 OA
ATOM     20  O   UNL d   1      13.542  15.790  -5.202  0.00  0.00    -0.532 OA
ENDBRANCH  15  18
ENDBRANCH  11  12
ENDBRANCH   1  11
TORSDOF 4
ENDMDL
MODEL 2
REMARK VINA RESULT:      26.0      2.524      4.063
REMARK  4 active torsions:
REMARK  status: ('A' for Active; 'I' for Inactive)
REMARK    1  A    between atoms: S_9  and  C_1 
REMARK    2  A    between atoms: N_3  and  C_7 
REMARK    3  A    between atoms: C_13  and  S_9 
REMARK    4  A    between atoms: C_14  and  C_13 
ROOT
ATOM      1  S   UNL d   1      14.866  12.174  -1.419  0.00  0.00    -0.042 SA
ENDROOT
BRANCH   1   2
ATOM      2  C   UNL d   1      14.445  12.100  -2.118  0.00  0.00     0.215 A 
ATOM      3  N   UNL d   1      14.770  12.183  -2.866  0.00  0.00    -0.214 NA
ATOM      4  C   UNL d   1      14.174  12.069  -3.398  0.00  0.00     0.107 A 
ATOM      5  C   UNL d   1      14.162  12.083  -4.223  0.00  0.00     0.021 A 
ATOM      6  C   UNL d   1      13.481  11.917  -2.988  0.00  0.00     0.120 A 
ATOM      7  C   UNL d   1      13.466  11.946  -4.643  0.00  0.00     0.002 A 
ATOM      8  C   UNL d   1      12.773  11.794  -4.234  0.00  0.00     0.002 A 
ATOM      9  C   UNL d   1      12.785  11.781  -3.409  0.00  0.00     0.026 A 
ATOM     10  O   UNL d   1      13.638  11.934  -2.197  0.00  0.00    -0.283 OA
ENDBRANCH   1   2
BRANCH   1  11
ATOM     11  C   UNL d   1      14.526  12.612  -0.808  0.00  0.00     0.039 C 
BRANCH  11  12
ATOM     12  C   UNL d   1      14.813  13.355  -0.642  0.00  0.00     0.007 A 
ATOM     13  C   UNL d   1      14.382  13.865  -0.194  0.00  0.00     0.002 A 
ATOM     14  C   UNL d   1      14.679  14.630  -0.023  0.00  0.00     0.024 A 
ATOM     15  C   UNL d   1      15.400  14.868  -0.304  0.00  0.00     0.127 A 
ATOM     16  C   UNL d   1      15.867  14.339  -0.779  0.00  0.00     0.024 A 
ATOM     17  C   UNL d   1      15.551  13.579  -0.938  0.00  0.00     0.002 A 
BRANCH  15  18
ATOM     18  N   UNL d   1      15.646  15.622  -0.112  0.00  0.00    -0.114 N 
ATOM     19  O   UNL d   1      16.436  15.729  -0.015  0.00  0.00    -0.532 OA
ATOM     20  O   UNL d   1      15.095  16.249  -0.021  0.00  0.00    -0.532 OA
ENDBRANCH  15  18
ENDBRANCH  11  12
ENDBRANCH   1  11
TORSDOF 4
ENDMDL
