MODEL 1
REMARK VINA RESULT:      -3.1      0.000      0.000
REMARK  3 active torsions:
REMARK  status: ('A' for Active; 'I' for Inactive)
REMARK    1  A    between atoms: S_7  and  C_1 
REMARK    2  A    between atoms: C_16  and  N_2 
REMARK    3  A    between atoms: C_4  and  S_7 
ROOT
ATOM      1  S   UNL d   1      58.814  -0.870  29.698  0.00  0.00    -0.028 SA
ENDROOT
BRANCH   1   2
ATOM      2  C   UNL d   1      59.614  -1.004  29.405  0.00  0.00     0.117 A 
ATOM      3  C   UNL d   1      59.845  -1.762  29.199  0.00  0.00     0.048 A 
ATOM      4  C   UNL d   1      60.619  -1.892  28.916  0.00  0.00     0.114 A 
ATOM      5  C   UNL d   1      59.468  -2.495  29.204  0.00  0.00     0.010 A 
ATOM      6  S   UNL d   1      60.683  -2.698  28.759  0.00  0.00    -0.068 SA
ATOM      7  N   UNL d   1      61.133  -1.257  28.848  0.00  0.00    -0.217 NA
ATOM      8  C   UNL d   1      59.949  -3.056  28.947  0.00  0.00     0.031 A 
ATOM      9  C   UNL d   1      59.755  -3.889  28.873  0.00  0.00     0.007 C 
ATOM     10  C   UNL d   1      60.906  -0.479  29.055  0.00  0.00     0.200 A 
ATOM     11  N   UNL d   1      60.132  -0.350  29.339  0.00  0.00    -0.217 NA
ATOM     12  C   UNL d   1      58.662  -2.646  29.452  0.00  0.00     0.001 C 
ENDBRANCH   1   2
BRANCH   1  13
ATOM     13  C   UNL d   1      58.338  -0.293  29.322  0.00  0.00     0.220 A 
ATOM     14  N   UNL d   1      57.753   0.173  29.734  0.00  0.00    -0.186 N 
ATOM     15  N   UNL d   1      57.392   0.682  29.193  0.00  0.00    -0.038 NA
ATOM     16  N   UNL d   1      57.739   0.544  28.455  0.00  0.00    -0.022 NA
ATOM     17  N   UNL d   1      58.318  -0.052  28.532  0.00  0.00    -0.101 NA
BRANCH  14  18
ATOM     18  C   UNL d   1      57.653   0.043  30.552  0.00  0.00     0.087 A 
ATOM     19  C   UNL d   1      57.998   0.422  30.998  0.00  0.00     0.019 A 
ATOM     20  C   UNL d   1      57.904   0.300  31.792  0.00  0.00     0.002 A 
ATOM     21  C   UNL d   1      57.382  -0.294  32.099  0.00  0.00     0.000 A 
ATOM     22  C   UNL d   1      57.060  -0.647  31.660  0.00  0.00     0.002 A 
ATOM     23  C   UNL d   1      57.130  -0.550  30.859  0.00  0.00     0.019 A 
ENDBRANCH  14  18
ENDBRANCH   1  13
TORSDOF 3
ENDMDL
MODEL 2
REMARK VINA RESULT:      -2.7      8.712      9.426
REMARK  3 active torsions:
REMARK  status: ('A' for Active; 'I' for Inactive)
REMARK    1  A    between atoms: S_7  and  C_1 
REMARK    2  A    between atoms: C_16  and  N_2 
REMARK    3  A    between atoms: C_4  and  S_7 
ROOT
ATOM      1  S   UNL d   1      59.480  -8.942  34.211  0.00  0.00    -0.028 SA
ENDROOT
BRANCH   1   2
ATOM      2  C   UNL d   1      59.050  -9.179  33.501  0.00  0.00     0.117 A 
ATOM      3  C   UNL d   1      59.469  -9.394  32.831  0.00  0.00     0.048 A 
ATOM      4  C   UNL d   1      59.054  -9.624  32.145  0.00  0.00     0.114 A 
ATOM      5  C   UNL d   1      60.272  -9.444  32.651  0.00  0.00     0.010 A 
ATOM      6  S   UNL d   1      59.619  -9.805  31.573  0.00  0.00    -0.068 SA
ATOM      7  N   UNL d   1      58.234  -9.630  32.154  0.00  0.00    -0.217 NA
ATOM      8  C   UNL d   1      60.377  -9.685  31.914  0.00  0.00     0.031 A 
ATOM      9  C   UNL d   1      61.133  -9.803  31.526  0.00  0.00     0.007 C 
ATOM     10  C   UNL d   1      57.798  -9.412  32.834  0.00  0.00     0.200 A 
ATOM     11  N   UNL d   1      58.214  -9.182  33.520  0.00  0.00    -0.217 NA
ATOM     12  C   UNL d   1      60.920  -9.263  33.181  0.00  0.00     0.001 C 
ENDBRANCH   1   2
BRANCH   1  13
ATOM     13  C   UNL d   1      59.182  -9.174  34.958  0.00  0.00     0.220 A 
ATOM     14  N   UNL d   1      59.336  -8.741  35.678  0.00  0.00    -0.186 N 
ATOM     15  N   UNL d   1      58.959  -9.126  36.303  0.00  0.00    -0.038 NA
ATOM     16  N   UNL d   1      58.574  -9.788  35.989  0.00  0.00    -0.022 NA
ATOM     17  N   UNL d   1      58.710  -9.818  35.166  0.00  0.00    -0.101 NA
BRANCH  14  18
ATOM     18  C   UNL d   1      59.807  -8.054  35.631  0.00  0.00     0.087 A 
ATOM     19  C   UNL d   1      60.483  -8.111  35.592  0.00  0.00     0.019 A 
ATOM     20  C   UNL d   1      60.944  -7.448  35.545  0.00  0.00     0.002 A 
ATOM     21  C   UNL d   1      60.612  -6.667  35.543  0.00  0.00     0.000 A 
ATOM     22  C   UNL d   1      59.965  -6.630  35.580  0.00  0.00     0.002 A 
ATOM     23  C   UNL d   1      59.476  -7.274  35.628  0.00  0.00     0.019 A 
ENDBRANCH  14  18
ENDBRANCH   1  13
TORSDOF 3
ENDMDL
MODEL 3
REMARK VINA RESULT:      -0.8      2.143      2.873
REMARK  3 active torsions:
REMARK  status: ('A' for Active; 'I' for Inactive)
REMARK    1  A    between atoms: S_7  and  C_1 
REMARK    2  A    between atoms: C_16  and  N_2 
REMARK    3  A    between atoms: C_4  and  S_7 
ROOT
ATOM      1  S   UNL d   1      57.827  -0.040  30.997  0.00  0.00    -0.028 SA
ENDROOT
BRANCH   1   2
ATOM      2  C   UNL d   1      58.129   0.197  30.224  0.00  0.00     0.117 A 
ATOM      3  C   UNL d   1      58.930   0.345  30.134  0.00  0.00     0.048 A 
ATOM      4  C   UNL d   1      59.222   0.574  29.387  0.00  0.00     0.114 A 
ATOM      5  C   UNL d   1      59.576   0.322  30.645  0.00  0.00     0.010 A 
ATOM      6  S   UNL d   1      60.035   0.681  29.471  0.00  0.00    -0.068 SA
ATOM      7  N   UNL d   1      58.702   0.647  28.757  0.00  0.00    -0.217 NA
ATOM      8  C   UNL d   1      60.234   0.517  30.269  0.00  0.00     0.031 A 
ATOM      9  C   UNL d   1      61.019   0.556  30.616  0.00  0.00     0.007 C 
ATOM     10  C   UNL d   1      57.883   0.497  28.840  0.00  0.00     0.200 A 
ATOM     11  N   UNL d   1      57.591   0.269  29.587  0.00  0.00    -0.217 NA
ATOM     12  C   UNL d   1      59.555   0.115  31.476  0.00  0.00     0.001 C 
ENDBRANCH   1   2
BRANCH   1  13
ATOM     13  C   UNL d   1      57.443  -0.779  31.069  0.00  0.00     0.220 A 
ATOM     14  N   UNL d   1      56.909  -0.969  31.709  0.00  0.00    -0.186 N 
ATOM     15  N   UNL d   1      56.634  -1.740  31.604  0.00  0.00    -0.038 NA
ATOM     16  N   UNL d   1      56.984  -2.035  30.914  0.00  0.00    -0.022 NA
ATOM     17  N   UNL d   1      57.479  -1.447  30.586  0.00  0.00    -0.101 NA
BRANCH  14  18
ATOM     18  C   UNL d   1      56.767  -0.386  32.288  0.00  0.00     0.087 A 
ATOM     19  C   UNL d   1      56.316   0.107  32.166  0.00  0.00     0.019 A 
ATOM     20  C   UNL d   1      56.176   0.675  32.725  0.00  0.00     0.002 A 
ATOM     21  C   UNL d   1      56.575   0.682  33.473  0.00  0.00     0.000 A 
ATOM     22  C   UNL d   1      57.003   0.204  33.574  0.00  0.00     0.002 A 
ATOM     23  C   UNL d   1      57.167  -0.379  33.036  0.00  0.00     0.019 A 
ENDBRANCH  14  18
ENDBRANCH   1  13
TORSDOF 3
ENDMDL
MODEL 4
REMARK VINA RESULT:      -0.4      0.910      3.736
REMARK  3 active torsions:
REMARK  status: ('A' for Active; 'I' for Inactive)
REMARK    1  A    between atoms: S_7  and  C_1 
REMARK    2  A    between atoms: C_16  and  N_2 
REMARK    3  A    between atoms: C_4  and  S_7 
ROOT
ATOM      1  S   UNL d   1      59.291  -0.626  29.588  0.00  0.00    -0.028 SA
ENDROOT
BRANCH   1   2
ATOM      2  C   UNL d   1      58.564  -0.175  29.477  0.00  0.00     0.117 A 
ATOM      3  C   UNL d   1      58.136   0.066  30.133  0.00  0.00     0.048 A 
ATOM      4  C   UNL d   1      57.433   0.502  30.026  0.00  0.00     0.114 A 
ATOM      5  C   UNL d   1      58.238  -0.024  30.946  0.00  0.00     0.010 A 
ATOM      6  S   UNL d   1      57.134   0.661  30.777  0.00  0.00    -0.068 SA
ATOM      7  N   UNL d   1      57.183   0.682  29.266  0.00  0.00    -0.217 NA
ATOM      8  C   UNL d   1      57.656   0.321  31.339  0.00  0.00     0.031 A 
ATOM      9  C   UNL d   1      57.570   0.344  32.193  0.00  0.00     0.007 C 
ATOM     10  C   UNL d   1      57.614   0.440  28.591  0.00  0.00     0.200 A 
ATOM     11  N   UNL d   1      58.316   0.004  28.698  0.00  0.00    -0.217 NA
ATOM     12  C   UNL d   1      58.884  -0.435  31.331  0.00  0.00     0.001 C 
ENDBRANCH   1   2
BRANCH   1  13
ATOM     13  C   UNL d   1      59.971  -0.407  29.153  0.00  0.00     0.220 A 
ATOM     14  N   UNL d   1      60.539  -0.972  28.856  0.00  0.00    -0.186 N 
ATOM     15  N   UNL d   1      61.133  -0.562  28.455  0.00  0.00    -0.038 NA
ATOM     16  N   UNL d   1      60.948   0.243  28.495  0.00  0.00    -0.022 NA
ATOM     17  N   UNL d   1      60.237   0.340  28.922  0.00  0.00    -0.101 NA
BRANCH  14  18
ATOM     18  C   UNL d   1      60.406  -1.780  29.011  0.00  0.00     0.087 A 
ATOM     19  C   UNL d   1      60.721  -2.079  29.533  0.00  0.00     0.019 A 
ATOM     20  C   UNL d   1      60.595  -2.864  29.688  0.00  0.00     0.002 A 
ATOM     21  C   UNL d   1      60.076  -3.339  29.215  0.00  0.00     0.000 A 
ATOM     22  C   UNL d   1      59.783  -3.038  28.720  0.00  0.00     0.002 A 
ATOM     23  C   UNL d   1      59.887  -2.256  28.538  0.00  0.00     0.019 A 
ENDBRANCH  14  18
ENDBRANCH   1  13
TORSDOF 3
ENDMDL
