MODEL 1
REMARK VINA RESULT:     -11.2      0.000      0.000
REMARK  1 active torsions:
REMARK  status: ('A' for Active; 'I' for Inactive)
REMARK    1  A    between atoms: C_7  and  C_2 
ROOT
ATOM      1  C   UNL d   1      53.312  32.521  53.394  0.00  0.00     0.257 A 
ATOM      2  C   UNL d   1      53.851  32.286  53.969  0.00  0.00     0.142 A 
ATOM      3  C   UNL d   1      52.862  31.954  52.990  0.00  0.00     0.238 A 
ATOM      4  O   UNL d   1      53.938  31.494  54.137  0.00  0.00    -0.304 OA
ATOM      5  C   UNL d   1      52.962  31.140  53.175  0.00  0.00     0.065 A 
ATOM      6  C   UNL d   1      53.502  30.905  53.750  0.00  0.00     0.103 A 
ATOM      7  O   UNL d   1      52.314  32.203  52.404  0.00  0.00    -0.283 OA
ATOM      8  O   UNL d   1      53.212  33.334  53.209  0.00  0.00    -0.281 OA
ATOM      9  C   UNL d   1      52.509  30.570  52.769  0.00  0.00     0.005 A 
ATOM     10  C   UNL d   1      53.589  30.114  53.918  0.00  0.00     0.025 A 
ATOM     11  C   UNL d   1      52.601  29.771  52.943  0.00  0.00     0.000 A 
ATOM     12  C   UNL d   1      53.136  29.543  53.512  0.00  0.00     0.002 A 
ENDROOT
BRANCH   2  13
ATOM     13  C   UNL d   1      54.313  32.842  54.385  0.00  0.00     0.026 A 
ATOM     14  C   UNL d   1      54.071  33.059  55.162  0.00  0.00     0.002 A 
ATOM     15  C   UNL d   1      54.531  33.609  55.569  0.00  0.00     0.000 A 
ATOM     16  C   UNL d   1      55.209  33.947  55.246  0.00  0.00     0.000 A 
ATOM     17  C   UNL d   1      55.434  33.724  54.481  0.00  0.00     0.000 A 
ATOM     18  C   UNL d   1      54.991  33.177  54.055  0.00  0.00     0.002 A 
ENDBRANCH   2  13
TORSDOF 1
ENDMDL
MODEL 2
REMARK VINA RESULT:     -10.9      1.789      3.561
REMARK  1 active torsions:
REMARK  status: ('A' for Active; 'I' for Inactive)
REMARK    1  A    between atoms: C_7  and  C_2 
ROOT
ATOM      1  C   UNL d   1      52.739  32.730  53.183  0.00  0.00     0.257 A 
ATOM      2  C   UNL d   1      52.406  33.462  53.353  0.00  0.00     0.142 A 
ATOM      3  C   UNL d   1      53.421  32.481  53.583  0.00  0.00     0.238 A 
ATOM      4  O   UNL d   1      52.750  33.939  53.916  0.00  0.00    -0.304 OA
ATOM      5  C   UNL d   1      53.766  32.983  54.161  0.00  0.00     0.065 A 
ATOM      6  C   UNL d   1      53.432  33.716  54.332  0.00  0.00     0.103 A 
ATOM      7  O   UNL d   1      53.754  31.731  53.402  0.00  0.00    -0.283 OA
ATOM      8  O   UNL d   1      52.395  32.228  52.604  0.00  0.00    -0.281 OA
ATOM      9  C   UNL d   1      54.452  32.733  54.564  0.00  0.00     0.005 A 
ATOM     10  C   UNL d   1      53.776  34.192  54.895  0.00  0.00     0.025 A 
ATOM     11  C   UNL d   1      54.796  33.218  55.132  0.00  0.00     0.000 A 
ATOM     12  C   UNL d   1      54.463  33.942  55.297  0.00  0.00     0.002 A 
ENDROOT
BRANCH   2  13
ATOM     13  C   UNL d   1      51.720  33.730  52.961  0.00  0.00     0.026 A 
ATOM     14  C   UNL d   1      50.975  33.622  53.339  0.00  0.00     0.002 A 
ATOM     15  C   UNL d   1      50.301  33.888  52.948  0.00  0.00     0.000 A 
ATOM     16  C   UNL d   1      50.331  34.251  52.209  0.00  0.00     0.000 A 
ATOM     17  C   UNL d   1      51.069  34.350  51.848  0.00  0.00     0.000 A 
ATOM     18  C   UNL d   1      51.757  34.093  52.220  0.00  0.00     0.002 A 
ENDBRANCH   2  13
TORSDOF 1
ENDMDL
MODEL 3
REMARK VINA RESULT:     -10.4      1.624      2.727
REMARK  1 active torsions:
REMARK  status: ('A' for Active; 'I' for Inactive)
REMARK    1  A    between atoms: C_7  and  C_2 
ROOT
ATOM      1  C   UNL d   1      53.022  32.913  53.537  0.00  0.00     0.257 A 
ATOM      2  C   UNL d   1      52.336  32.716  53.128  0.00  0.00     0.142 A 
ATOM      3  C   UNL d   1      53.565  32.322  53.746  0.00  0.00     0.238 A 
ATOM      4  O   UNL d   1      52.195  31.939  52.931  0.00  0.00    -0.304 OA
ATOM      5  C   UNL d   1      53.406  31.524  53.536  0.00  0.00     0.065 A 
ATOM      6  C   UNL d   1      52.720  31.328  53.127  0.00  0.00     0.103 A 
ATOM      7  O   UNL d   1      54.263  32.532  54.163  0.00  0.00    -0.283 OA
ATOM      8  O   UNL d   1      53.180  33.711  53.747  0.00  0.00    -0.281 OA
ATOM      9  C   UNL d   1      53.953  30.930  53.745  0.00  0.00     0.005 A 
ATOM     10  C   UNL d   1      52.579  30.550  52.930  0.00  0.00     0.025 A 
ATOM     11  C   UNL d   1      53.806  30.146  53.544  0.00  0.00     0.000 A 
ATOM     12  C   UNL d   1      53.126  29.956  53.139  0.00  0.00     0.002 A 
ENDROOT
BRANCH   2  13
ATOM     13  C   UNL d   1      51.778  33.297  52.910  0.00  0.00     0.026 A 
ATOM     14  C   UNL d   1      51.082  33.378  53.378  0.00  0.00     0.002 A 
ATOM     15  C   UNL d   1      50.535  33.953  53.159  0.00  0.00     0.000 A 
ATOM     16  C   UNL d   1      50.643  34.443  52.506  0.00  0.00     0.000 A 
ATOM     17  C   UNL d   1      51.331  34.352  52.054  0.00  0.00     0.000 A 
ATOM     18  C   UNL d   1      51.893  33.784  52.255  0.00  0.00     0.002 A 
ENDBRANCH   2  13
TORSDOF 1
ENDMDL
MODEL 4
REMARK VINA RESULT:      -9.8      1.496      2.499
REMARK  1 active torsions:
REMARK  status: ('A' for Active; 'I' for Inactive)
REMARK    1  A    between atoms: C_7  and  C_2 
ROOT
ATOM      1  C   UNL d   1      53.214  32.698  53.425  0.00  0.00     0.257 A 
ATOM      2  C   UNL d   1      53.332  33.375  53.877  0.00  0.00     0.142 A 
ATOM      3  C   UNL d   1      52.548  32.636  52.935  0.00  0.00     0.238 A 
ATOM      4  O   UNL d   1      52.790  33.981  53.840  0.00  0.00    -0.304 OA
ATOM      5  C   UNL d   1      51.997  33.269  52.907  0.00  0.00     0.065 A 
ATOM      6  C   UNL d   1      52.114  33.946  53.359  0.00  0.00     0.103 A 
ATOM      7  O   UNL d   1      52.436  31.941  52.477  0.00  0.00    -0.283 OA
ATOM      8  O   UNL d   1      53.765  32.065  53.453  0.00  0.00    -0.281 OA
ATOM      9  C   UNL d   1      51.326  33.207  52.415  0.00  0.00     0.005 A 
ATOM     10  C   UNL d   1      51.572  34.553  53.322  0.00  0.00     0.025 A 
ATOM     11  C   UNL d   1      50.781  33.822  52.381  0.00  0.00     0.000 A 
ATOM     12  C   UNL d   1      50.902  34.490  52.830  0.00  0.00     0.002 A 
ENDROOT
BRANCH   2  13
ATOM     13  C   UNL d   1      53.996  33.456  54.375  0.00  0.00     0.026 A 
ATOM     14  C   UNL d   1      53.921  33.226  55.182  0.00  0.00     0.002 A 
ATOM     15  C   UNL d   1      54.579  33.308  55.669  0.00  0.00     0.000 A 
ATOM     16  C   UNL d   1      55.299  33.602  55.397  0.00  0.00     0.000 A 
ATOM     17  C   UNL d   1      55.359  33.824  54.602  0.00  0.00     0.000 A 
ATOM     18  C   UNL d   1      54.714  33.752  54.096  0.00  0.00     0.002 A 
ENDBRANCH   2  13
TORSDOF 1
ENDMDL
MODEL 5
REMARK VINA RESULT:      -9.8      1.308      3.436
REMARK  1 active torsions:
REMARK  status: ('A' for Active; 'I' for Inactive)
REMARK    1  A    between atoms: C_7  and  C_2 
ROOT
ATOM      1  C   UNL d   1      53.675  32.480  53.524  0.00  0.00     0.257 A 
ATOM      2  C   UNL d   1      53.021  31.996  53.407  0.00  0.00     0.142 A 
ATOM      3  C   UNL d   1      53.594  33.305  53.489  0.00  0.00     0.238 A 
ATOM      4  O   UNL d   1      52.295  32.332  53.257  0.00  0.00    -0.304 OA
ATOM      5  C   UNL d   1      52.838  33.638  53.333  0.00  0.00     0.065 A 
ATOM      6  C   UNL d   1      52.184  33.153  53.216  0.00  0.00     0.103 A 
ATOM      7  O   UNL d   1      54.268  33.791  53.609  0.00  0.00    -0.283 OA
ATOM      8  O   UNL d   1      54.431  32.148  53.680  0.00  0.00    -0.281 OA
ATOM      9  C   UNL d   1      52.756  34.467  53.298  0.00  0.00     0.005 A 
ATOM     10  C   UNL d   1      51.458  33.489  53.067  0.00  0.00     0.025 A 
ATOM     11  C   UNL d   1      52.020  34.802  53.146  0.00  0.00     0.000 A 
ATOM     12  C   UNL d   1      51.375  34.318  53.031  0.00  0.00     0.002 A 
ENDROOT
BRANCH   2  13
ATOM     13  C   UNL d   1      53.084  31.165  53.439  0.00  0.00     0.026 A 
ATOM     14  C   UNL d   1      52.968  30.728  52.728  0.00  0.00     0.002 A 
ATOM     15  C   UNL d   1      53.031  29.908  52.764  0.00  0.00     0.000 A 
ATOM     16  C   UNL d   1      53.201  29.506  53.463  0.00  0.00     0.000 A 
ATOM     17  C   UNL d   1      53.311  29.948  54.154  0.00  0.00     0.000 A 
ATOM     18  C   UNL d   1      53.253  30.769  54.143  0.00  0.00     0.002 A 
ENDBRANCH   2  13
TORSDOF 1
ENDMDL
MODEL 6
REMARK VINA RESULT:      -9.6      1.337      3.429
REMARK  1 active torsions:
REMARK  status: ('A' for Active; 'I' for Inactive)
REMARK    1  A    between atoms: C_7  and  C_2 
ROOT
ATOM      1  C   UNL d   1      52.495  32.821  52.855  0.00  0.00     0.257 A 
ATOM      2  C   UNL d   1      52.909  32.410  53.435  0.00  0.00     0.142 A 
ATOM      3  C   UNL d   1      52.394  33.641  52.920  0.00  0.00     0.238 A 
ATOM      4  O   UNL d   1      53.218  32.815  54.070  0.00  0.00    -0.304 OA
ATOM      5  C   UNL d   1      52.718  34.046  53.580  0.00  0.00     0.065 A 
ATOM      6  C   UNL d   1      53.133  33.635  54.160  0.00  0.00     0.103 A 
ATOM      7  O   UNL d   1      51.969  34.052  52.323  0.00  0.00    -0.283 OA
ATOM      8  O   UNL d   1      52.170  32.416  52.194  0.00  0.00    -0.281 OA
ATOM      9  C   UNL d   1      52.616  34.871  53.645  0.00  0.00     0.005 A 
ATOM     10  C   UNL d   1      53.442  34.040  54.795  0.00  0.00     0.025 A 
ATOM     11  C   UNL d   1      52.931  35.275  54.289  0.00  0.00     0.000 A 
ATOM     12  C   UNL d   1      53.340  34.865  54.860  0.00  0.00     0.002 A 
ENDROOT
BRANCH   2  13
ATOM     13  C   UNL d   1      53.021  31.585  53.387  0.00  0.00     0.026 A 
ATOM     14  C   UNL d   1      53.810  31.289  53.361  0.00  0.00     0.002 A 
ATOM     15  C   UNL d   1      53.915  30.474  53.314  0.00  0.00     0.000 A 
ATOM     16  C   UNL d   1      53.284  29.945  53.293  0.00  0.00     0.000 A 
ATOM     17  C   UNL d   1      52.514  30.249  53.320  0.00  0.00     0.000 A 
ATOM     18  C   UNL d   1      52.384  31.061  53.367  0.00  0.00     0.002 A 
ENDBRANCH   2  13
TORSDOF 1
ENDMDL
