MODEL 1
REMARK VINA RESULT:      34.4      0.000      0.000
REMARK  4 active torsions:
REMARK  status: ('A' for Active; 'I' for Inactive)
REMARK    1  A    between atoms: C_5  and  N_1 
REMARK    2  A    between atoms: C_7  and  C_5 
REMARK    3  A    between atoms: O_10  and  C_9 
REMARK    4  A    between atoms: C_15  and  O_10 
ROOT
ATOM      1  N   UNL d   1     -51.261  24.715  33.410  0.00  0.00    -0.268 N 
ATOM      2  C   UNL d   1     -50.760  24.056  33.481  0.00  0.00     0.296 A 
ATOM      3  S   UNL d   1     -51.237  23.389  33.576  0.00  0.00    -0.025 SA
ATOM      4  C   UNL d   1     -52.043  24.449  33.462  0.00  0.00     0.073 A 
ATOM      5  C   UNL d   1     -52.024  23.628  33.564  0.00  0.00     0.050 A 
ATOM      6  O   UNL d   1     -49.937  24.067  33.461  0.00  0.00    -0.259 OA
ATOM      7  C   UNL d   1     -52.760  24.847  33.429  0.00  0.00     0.018 A 
ATOM      8  C   UNL d   1     -52.741  23.208  33.633  0.00  0.00     0.008 A 
ATOM      9  C   UNL d   1     -53.467  24.428  33.497  0.00  0.00     0.002 A 
ATOM     10  C   UNL d   1     -53.458  23.616  33.599  0.00  0.00     0.001 A 
ENDROOT
BRANCH   1  11
ATOM     11  C   UNL d   1     -51.023  25.496  33.307  0.00  0.00     0.086 C 
BRANCH  11  12
ATOM     12  C   UNL d   1     -50.279  25.736  33.578  0.00  0.00     0.040 A 
ATOM     13  C   UNL d   1     -50.193  26.488  33.893  0.00  0.00     0.102 A 
ATOM     14  C   UNL d   1     -49.458  26.727  34.161  0.00  0.00     0.025 A 
ATOM     15  C   UNL d   1     -48.804  26.214  34.116  0.00  0.00     0.002 A 
ATOM     16  C   UNL d   1     -48.903  25.461  33.797  0.00  0.00     0.000 A 
ATOM     17  C   UNL d   1     -49.647  25.221  33.526  0.00  0.00     0.004 A 
BRANCH  13  18
ATOM     18  O   UNL d   1     -50.857  26.973  33.925  0.00  0.00    -0.305 OA
BRANCH  18  19
ATOM     19  C   UNL d   1     -51.015  27.499  33.307  0.00  0.00     0.123 C 
ATOM     20  C   UNL d   1     -51.310  28.255  33.477  0.00  0.00     0.029 C 
ENDBRANCH  18  19
ENDBRANCH  13  18
ENDBRANCH  11  12
ENDBRANCH   1  11
TORSDOF 4
ENDMDL
