MODEL 1
REMARK VINA RESULT:     140.4      0.000      0.000
REMARK  2 active torsions:
REMARK  status: ('A' for Active; 'I' for Inactive)
REMARK    1  A    between atoms: N_11  and  C_4 
REMARK    2  A    between atoms: C_16  and  N_12 
ROOT
ATOM      1  N   UNL d   1      59.551  47.943  50.756  0.00  0.00    -0.195 N 
ATOM      2  C   UNL d   1      59.113  48.533  51.097  0.00  0.00     0.168 A 
ATOM      3  C   UNL d   1      58.356  48.657  50.876  0.00  0.00     0.073 A 
ATOM      4  C   UNL d   1      60.307  47.833  50.988  0.00  0.00     0.153 A 
ATOM      5  N   UNL d   1      58.477  47.599  49.971  0.00  0.00    -0.143 NA
ATOM      6  C   UNL d   1      58.039  48.188  50.313  0.00  0.00     0.185 A 
ATOM      7  N   UNL d   1      59.442  48.997  51.662  0.00  0.00    -0.227 NA
ATOM      8  C   UNL d   1      57.922  49.240  51.214  0.00  0.00     0.007 A 
ATOM      9  N   UNL d   1      57.273  48.302  50.079  0.00  0.00    -0.225 NA
ATOM     10  C   UNL d   1      60.636  48.291  51.548  0.00  0.00     0.057 A 
ATOM     11  C   UNL d   1      57.165  49.364  50.993  0.00  0.00     0.019 A 
ATOM     12  C   UNL d   1      60.198  48.880  51.889  0.00  0.00     0.086 A 
ATOM     13  C   UNL d   1      56.835  48.891  50.420  0.00  0.00     0.083 A 
ATOM     14  C   UNL d   1      58.254  49.705  51.782  0.00  0.00     0.000 C 
ATOM     15  C   UNL d   1      60.542  49.361  52.476  0.00  0.00     0.021 C 
ATOM     16  C   UNL d   1      56.082  49.009  50.196  0.00  0.00     0.021 C 
ENDROOT
BRANCH   4  17
ATOM     17  N   UNL d   1      60.752  47.223  50.631  0.00  0.00    -0.286 N 
ATOM     18  C   UNL d   1      61.403  47.379  50.144  0.00  0.00     0.101 A 
ATOM     19  C   UNL d   1      61.821  46.748  49.806  0.00  0.00     0.100 A 
ATOM     20  N   UNL d   1      61.593  45.963  49.952  0.00  0.00    -0.301 N 
ATOM     21  C   UNL d   1      60.932  45.796  50.447  0.00  0.00     0.100 A 
ATOM     22  C   UNL d   1      60.517  46.429  50.783  0.00  0.00     0.101 A 
BRANCH  20  23
ATOM     23  C   UNL d   1      62.014  45.336  49.613  0.00  0.00     0.064 A 
ATOM     24  C   UNL d   1      62.714  45.479  49.196  0.00  0.00     0.016 A 
ATOM     25  C   UNL d   1      62.997  46.249  49.115  0.00  0.00     0.002 C 
ATOM     26  C   UNL d   1      63.142  44.843  48.851  0.00  0.00     0.001 A 
ATOM     27  C   UNL d   1      62.858  44.057  48.929  0.00  0.00     0.000 A 
ATOM     28  C   UNL d   1      62.147  43.917  49.354  0.00  0.00     0.002 A 
ATOM     29  C   UNL d   1      61.730  44.553  49.692  0.00  0.00     0.018 A 
ENDBRANCH  20  23
ENDBRANCH   4  17
TORSDOF 2
ENDMDL
