MODEL 1
REMARK VINA RESULT:      -7.8      0.000      0.000
REMARK  7 active torsions:
REMARK  status: ('A' for Active; 'I' for Inactive)
REMARK    1  A    between atoms: C_3  and  N_1 
REMARK       I    between atoms: C_2  and  N_8 
REMARK    2  A    between atoms: O_16  and  C_2 
REMARK    3  A    between atoms: C_7  and  C_5 
REMARK    4  A    between atoms: C_12  and  C_7 
REMARK    5  A    between atoms: N_8  and  C_14 
REMARK    6  A    between atoms: S_11  and  C_12 
REMARK    7  A    between atoms: C_15  and  S_11 
ROOT
ATOM      1  S   UNL d   1     -46.931  13.751  22.913  0.00  0.00    -0.083 SA
ENDROOT
BRANCH   1   2
ATOM      2  C   UNL d   1     -47.748  13.837  22.884  0.00  0.00     0.077 C 
BRANCH   2   3
ATOM      3  C   UNL d   1     -48.080  14.570  22.702  0.00  0.00     0.202 C 
ATOM      4  O   UNL d   1     -47.596  15.197  22.483  0.00  0.00    -0.286 OA
BRANCH   3   5
ATOM      5  C   UNL d   1     -48.898  14.672  22.742  0.00  0.00     0.041 A 
ATOM      6  C   UNL d   1     -49.390  14.220  22.268  0.00  0.00     0.027 A 
ATOM      7  C   UNL d   1     -50.207  14.322  22.308  0.00  0.00     0.127 A 
ATOM      8  C   UNL d   1     -50.529  14.883  22.827  0.00  0.00     0.024 A 
ATOM      9  C   UNL d   1     -50.030  15.335  23.302  0.00  0.00     0.002 A 
ATOM     10  C   UNL d   1     -49.220  15.232  23.261  0.00  0.00     0.003 A 
BRANCH   7  11
ATOM     11  N   UNL d   1     -50.707  13.868  21.832  0.00  0.00    -0.114 N 
ATOM     12  O   UNL d   1     -50.911  14.044  21.051  0.00  0.00    -0.532 OA
ATOM     13  O   UNL d   1     -51.064  13.180  22.081  0.00  0.00    -0.532 OA
ENDBRANCH   7  11
ENDBRANCH   3   5
ENDBRANCH   2   3
ENDBRANCH   1   2
BRANCH   1  14
ATOM     14  C   UNL d   1     -46.598  13.015  23.093  0.00  0.00     0.030 A 
ATOM     15  C   UNL d   1     -45.819  12.820  22.854  0.00  0.00     0.008 A 
ATOM     16  C   UNL d   1     -45.487  12.086  23.033  0.00  0.00     0.020 A 
ATOM     17  C   UNL d   1     -45.926  11.530  23.455  0.00  0.00     0.087 A 
ATOM     18  C   UNL d   1     -46.691  11.704  23.697  0.00  0.00     0.020 A 
ATOM     19  C   UNL d   1     -47.023  12.438  23.518  0.00  0.00     0.008 A 
BRANCH  17  20
ATOM     20  N   UNL d   1     -45.593  10.792  23.635  0.00  0.00    -0.186 NA
ATOM     21  C   UNL d   1     -44.790  10.665  23.519  0.00  0.00     0.388 C 
ATOM     22  O   UNL d   1     -44.313  11.271  23.223  0.00  0.00    -0.236 OA
BRANCH  21  23
ATOM     23  O   UNL d   1     -44.458   9.931  23.698  0.00  0.00    -0.281 OA
ATOM     24  C   UNL d   1     -43.644   9.819  23.618  0.00  0.00     0.186 C 
ENDBRANCH  21  23
ENDBRANCH  17  20
ENDBRANCH   1  14
TORSDOF 7
ENDMDL
MODEL 2
REMARK VINA RESULT:      -7.7      1.677      2.197
REMARK  7 active torsions:
REMARK  status: ('A' for Active; 'I' for Inactive)
REMARK    1  A    between atoms: C_3  and  N_1 
REMARK       I    between atoms: C_2  and  N_8 
REMARK    2  A    between atoms: O_16  and  C_2 
REMARK    3  A    between atoms: C_7  and  C_5 
REMARK    4  A    between atoms: C_12  and  C_7 
REMARK    5  A    between atoms: N_8  and  C_14 
REMARK    6  A    between atoms: S_11  and  C_12 
REMARK    7  A    between atoms: C_15  and  S_11 
ROOT
ATOM      1  S   UNL d   1     -48.376  12.152  23.608  0.00  0.00    -0.083 SA
ENDROOT
BRANCH   1   2
ATOM      2  C   UNL d   1     -48.857  12.765  23.348  0.00  0.00     0.077 C 
BRANCH   2   3
ATOM      3  C   UNL d   1     -49.668  12.642  23.257  0.00  0.00     0.202 C 
ATOM      4  O   UNL d   1     -50.026  11.987  23.599  0.00  0.00    -0.286 OA
BRANCH   3   5
ATOM      5  C   UNL d   1     -50.118  13.180  22.821  0.00  0.00     0.041 A 
ATOM      6  C   UNL d   1     -50.073  13.981  22.986  0.00  0.00     0.027 A 
ATOM      7  C   UNL d   1     -50.523  14.517  22.550  0.00  0.00     0.127 A 
ATOM      8  C   UNL d   1     -51.021  14.244  21.947  0.00  0.00     0.024 A 
ATOM      9  C   UNL d   1     -51.064  13.437  21.784  0.00  0.00     0.002 A 
ATOM     10  C   UNL d   1     -50.617  12.907  22.217  0.00  0.00     0.003 A 
BRANCH   7  11
ATOM     11  N   UNL d   1     -50.479  15.325  22.714  0.00  0.00    -0.114 N 
ATOM     12  O   UNL d   1     -49.848  15.820  22.512  0.00  0.00    -0.532 OA
ATOM     13  O   UNL d   1     -51.064  15.740  23.100  0.00  0.00    -0.532 OA
ENDBRANCH   7  11
ENDBRANCH   3   5
ENDBRANCH   2   3
ENDBRANCH   1   2
BRANCH   1  14
ATOM     14  C   UNL d   1     -47.562  12.173  23.458  0.00  0.00     0.030 A 
ATOM     15  C   UNL d   1     -47.128  11.470  23.316  0.00  0.00     0.008 A 
ATOM     16  C   UNL d   1     -46.317  11.490  23.167  0.00  0.00     0.020 A 
ATOM     17  C   UNL d   1     -45.920  12.213  23.156  0.00  0.00     0.087 A 
ATOM     18  C   UNL d   1     -46.329  12.911  23.293  0.00  0.00     0.020 A 
ATOM     19  C   UNL d   1     -47.140  12.891  23.443  0.00  0.00     0.008 A 
BRANCH  17  20
ATOM     20  N   UNL d   1     -45.105  12.233  23.006  0.00  0.00    -0.186 NA
ATOM     21  C   UNL d   1     -44.828  12.472  22.270  0.00  0.00     0.388 C 
ATOM     22  O   UNL d   1     -45.361  12.693  21.679  0.00  0.00    -0.236 OA
BRANCH  21  23
ATOM     23  O   UNL d   1     -44.017  12.492  22.121  0.00  0.00    -0.281 OA
ATOM     24  C   UNL d   1     -43.736  12.850  21.432  0.00  0.00     0.186 C 
ENDBRANCH  21  23
ENDBRANCH  17  20
ENDBRANCH   1  14
TORSDOF 7
ENDMDL
MODEL 3
REMARK VINA RESULT:      -7.4      0.894      1.162
REMARK  7 active torsions:
REMARK  status: ('A' for Active; 'I' for Inactive)
REMARK    1  A    between atoms: C_3  and  N_1 
REMARK       I    between atoms: C_2  and  N_8 
REMARK    2  A    between atoms: O_16  and  C_2 
REMARK    3  A    between atoms: C_7  and  C_5 
REMARK    4  A    between atoms: C_12  and  C_7 
REMARK    5  A    between atoms: N_8  and  C_14 
REMARK    6  A    between atoms: S_11  and  C_12 
REMARK    7  A    between atoms: C_15  and  S_11 
ROOT
ATOM      1  S   UNL d   1     -47.421  14.298  22.464  0.00  0.00    -0.083 SA
ENDROOT
BRANCH   1   2
ATOM      2  C   UNL d   1     -48.098  14.251  22.927  0.00  0.00     0.077 C 
BRANCH   2   3
ATOM      3  C   UNL d   1     -48.718  14.781  22.807  0.00  0.00     0.202 C 
ATOM      4  O   UNL d   1     -48.561  15.549  22.562  0.00  0.00    -0.286 OA
BRANCH   3   5
ATOM      5  C   UNL d   1     -49.497  14.538  22.934  0.00  0.00     0.041 A 
ATOM      6  C   UNL d   1     -49.792  13.886  22.537  0.00  0.00     0.027 A 
ATOM      7  C   UNL d   1     -50.570  13.644  22.664  0.00  0.00     0.127 A 
ATOM      8  C   UNL d   1     -51.052  14.062  23.194  0.00  0.00     0.024 A 
ATOM      9  C   UNL d   1     -50.751  14.718  23.591  0.00  0.00     0.002 A 
ATOM     10  C   UNL d   1     -49.979  14.956  23.464  0.00  0.00     0.003 A 
BRANCH   7  11
ATOM     11  N   UNL d   1     -50.872  12.987  22.265  0.00  0.00    -0.114 N 
ATOM     12  O   UNL d   1     -51.018  12.248  22.606  0.00  0.00    -0.532 OA
ATOM     13  O   UNL d   1     -51.064  12.988  21.474  0.00  0.00    -0.532 OA
ENDBRANCH   7  11
ENDBRANCH   3   5
ENDBRANCH   2   3
ENDBRANCH   1   2
BRANCH   1  14
ATOM     14  C   UNL d   1     -46.802  13.760  22.580  0.00  0.00     0.030 A 
ATOM     15  C   UNL d   1     -46.526  13.275  21.955  0.00  0.00     0.008 A 
ATOM     16  C   UNL d   1     -45.909  12.739  22.070  0.00  0.00     0.020 A 
ATOM     17  C   UNL d   1     -45.553  12.676  22.812  0.00  0.00     0.087 A 
ATOM     18  C   UNL d   1     -45.811  13.144  23.435  0.00  0.00     0.020 A 
ATOM     19  C   UNL d   1     -46.428  13.680  23.320  0.00  0.00     0.008 A 
BRANCH  17  20
ATOM     20  N   UNL d   1     -44.933  12.138  22.927  0.00  0.00    -0.186 NA
ATOM     21  C   UNL d   1     -45.069  11.434  23.328  0.00  0.00     0.388 C 
ATOM     22  O   UNL d   1     -45.823  11.261  23.617  0.00  0.00    -0.236 OA
BRANCH  21  23
ATOM     23  O   UNL d   1     -44.453  10.899  23.443  0.00  0.00    -0.281 OA
ATOM     24  C   UNL d   1     -44.618  10.131  23.697  0.00  0.00     0.186 C 
ENDBRANCH  21  23
ENDBRANCH  17  20
ENDBRANCH   1  14
TORSDOF 7
ENDMDL
MODEL 4
REMARK VINA RESULT:      -5.9      8.468     10.153
REMARK  7 active torsions:
REMARK  status: ('A' for Active; 'I' for Inactive)
REMARK    1  A    between atoms: C_3  and  N_1 
REMARK       I    between atoms: C_2  and  N_8 
REMARK    2  A    between atoms: O_16  and  C_2 
REMARK    3  A    between atoms: C_7  and  C_5 
REMARK    4  A    between atoms: C_12  and  C_7 
REMARK    5  A    between atoms: N_8  and  C_14 
REMARK    6  A    between atoms: S_11  and  C_12 
REMARK    7  A    between atoms: C_15  and  S_11 
ROOT
ATOM      1  S   UNL d   1     -39.905  14.461  19.361  0.00  0.00    -0.083 SA
ENDROOT
BRANCH   1   2
ATOM      2  C   UNL d   1     -39.551  14.700  20.062  0.00  0.00     0.077 C 
BRANCH   2   3
ATOM      3  C   UNL d   1     -39.989  14.717  20.761  0.00  0.00     0.202 C 
ATOM      4  O   UNL d   1     -40.808  14.670  20.734  0.00  0.00    -0.286 OA
BRANCH   3   5
ATOM      5  C   UNL d   1     -39.602  14.780  21.488  0.00  0.00     0.041 A 
ATOM      6  C   UNL d   1     -39.362  14.105  21.884  0.00  0.00     0.027 A 
ATOM      7  C   UNL d   1     -38.975  14.169  22.609  0.00  0.00     0.127 A 
ATOM      8  C   UNL d   1     -38.830  14.917  22.936  0.00  0.00     0.024 A 
ATOM      9  C   UNL d   1     -39.073  15.594  22.534  0.00  0.00     0.002 A 
ATOM     10  C   UNL d   1     -39.456  15.528  21.814  0.00  0.00     0.003 A 
BRANCH   7  11
ATOM     11  N   UNL d   1     -38.731  13.490  23.012  0.00  0.00    -0.114 N 
ATOM     12  O   UNL d   1     -38.109  12.996  22.782  0.00  0.00    -0.532 OA
ATOM     13  O   UNL d   1     -39.081  13.221  23.697  0.00  0.00    -0.532 OA
ENDBRANCH   7  11
ENDBRANCH   3   5
ENDBRANCH   2   3
ENDBRANCH   1   2
BRANCH   1  14
ATOM     14  C   UNL d   1     -39.443  14.337  18.685  0.00  0.00     0.030 A 
ATOM     15  C   UNL d   1     -39.101  14.979  18.269  0.00  0.00     0.008 A 
ATOM     16  C   UNL d   1     -38.641  14.856  17.595  0.00  0.00     0.020 A 
ATOM     17  C   UNL d   1     -38.512  14.088  17.321  0.00  0.00     0.087 A 
ATOM     18  C   UNL d   1     -38.839  13.448  17.717  0.00  0.00     0.020 A 
ATOM     19  C   UNL d   1     -39.299  13.571  18.391  0.00  0.00     0.008 A 
BRANCH  17  20
ATOM     20  N   UNL d   1     -38.050  13.965  16.644  0.00  0.00    -0.186 NA
ATOM     21  C   UNL d   1     -38.400  13.968  15.901  0.00  0.00     0.388 C 
ATOM     22  O   UNL d   1     -39.212  14.095  15.827  0.00  0.00    -0.236 OA
BRANCH  21  23
ATOM     23  O   UNL d   1     -37.940  13.846  15.228  0.00  0.00    -0.281 OA
ATOM     24  C   UNL d   1     -38.260  13.988  14.481  0.00  0.00     0.186 C 
ENDBRANCH  21  23
ENDBRANCH  17  20
ENDBRANCH   1  14
TORSDOF 7
ENDMDL
MODEL 5
REMARK VINA RESULT:      -5.9      1.902      2.376
REMARK  7 active torsions:
REMARK  status: ('A' for Active; 'I' for Inactive)
REMARK    1  A    between atoms: C_3  and  N_1 
REMARK       I    between atoms: C_2  and  N_8 
REMARK    2  A    between atoms: O_16  and  C_2 
REMARK    3  A    between atoms: C_7  and  C_5 
REMARK    4  A    between atoms: C_12  and  C_7 
REMARK    5  A    between atoms: N_8  and  C_14 
REMARK    6  A    between atoms: S_11  and  C_12 
REMARK    7  A    between atoms: C_15  and  S_11 
ROOT
ATOM      1  S   UNL d   1     -46.814  12.731  23.075  0.00  0.00    -0.083 SA
ENDROOT
BRANCH   1   2
ATOM      2  C   UNL d   1     -47.424  13.117  22.683  0.00  0.00     0.077 C 
BRANCH   2   3
ATOM      3  C   UNL d   1     -48.193  13.084  22.981  0.00  0.00     0.202 C 
ATOM      4  O   UNL d   1     -48.340  12.711  23.698  0.00  0.00    -0.286 OA
BRANCH   3   5
ATOM      5  C   UNL d   1     -48.813  13.425  22.557  0.00  0.00     0.041 A 
ATOM      6  C   UNL d   1     -49.116  14.150  22.787  0.00  0.00     0.027 A 
ATOM      7  C   UNL d   1     -49.736  14.491  22.362  0.00  0.00     0.127 A 
ATOM      8  C   UNL d   1     -50.051  14.098  21.704  0.00  0.00     0.024 A 
ATOM      9  C   UNL d   1     -49.743  13.369  21.475  0.00  0.00     0.002 A 
ATOM     10  C   UNL d   1     -49.128  13.033  21.898  0.00  0.00     0.003 A 
BRANCH   7  11
ATOM     11  N   UNL d   1     -50.044  15.222  22.591  0.00  0.00    -0.114 N 
ATOM     12  O   UNL d   1     -49.600  15.860  22.874  0.00  0.00    -0.532 OA
ATOM     13  O   UNL d   1     -50.837  15.406  22.565  0.00  0.00    -0.532 OA
ENDBRANCH   7  11
ENDBRANCH   3   5
ENDBRANCH   2   3
ENDBRANCH   1   2
BRANCH   1  14
ATOM     14  C   UNL d   1     -46.072  12.658  22.716  0.00  0.00     0.030 A 
ATOM     15  C   UNL d   1     -45.834  13.174  22.100  0.00  0.00     0.008 A 
ATOM     16  C   UNL d   1     -45.094  13.101  21.743  0.00  0.00     0.020 A 
ATOM     17  C   UNL d   1     -44.574  12.512  21.993  0.00  0.00     0.087 A 
ATOM     18  C   UNL d   1     -44.790  11.998  22.595  0.00  0.00     0.020 A 
ATOM     19  C   UNL d   1     -45.530  12.071  22.953  0.00  0.00     0.008 A 
BRANCH  17  20
ATOM     20  N   UNL d   1     -43.830  12.440  21.634  0.00  0.00    -0.186 NA
ATOM     21  C   UNL d   1     -43.351  13.101  21.544  0.00  0.00     0.388 C 
ATOM     22  O   UNL d   1     -43.608  13.838  21.810  0.00  0.00    -0.236 OA
BRANCH  21  23
ATOM     23  O   UNL d   1     -42.611  13.029  21.186  0.00  0.00    -0.281 OA
ATOM     24  C   UNL d   1     -42.015  13.571  21.364  0.00  0.00     0.186 C 
ENDBRANCH  21  23
ENDBRANCH  17  20
ENDBRANCH   1  14
TORSDOF 7
ENDMDL
MODEL 6
REMARK VINA RESULT:      -5.8      8.305     10.009
REMARK  7 active torsions:
REMARK  status: ('A' for Active; 'I' for Inactive)
REMARK    1  A    between atoms: C_3  and  N_1 
REMARK       I    between atoms: C_2  and  N_8 
REMARK    2  A    between atoms: O_16  and  C_2 
REMARK    3  A    between atoms: C_7  and  C_5 
REMARK    4  A    between atoms: C_12  and  C_7 
REMARK    5  A    between atoms: N_8  and  C_14 
REMARK    6  A    between atoms: S_11  and  C_12 
REMARK    7  A    between atoms: C_15  and  S_11 
ROOT
ATOM      1  S   UNL d   1     -40.641  15.040  19.058  0.00  0.00    -0.083 SA
ENDROOT
BRANCH   1   2
ATOM      2  C   UNL d   1     -40.227  15.382  18.437  0.00  0.00     0.077 C 
BRANCH   2   3
ATOM      3  C   UNL d   1     -40.333  15.105  17.668  0.00  0.00     0.202 C 
ATOM      4  O   UNL d   1     -41.057  14.792  17.440  0.00  0.00    -0.286 OA
BRANCH   3   5
ATOM      5  C   UNL d   1     -39.709  15.142  17.128  0.00  0.00     0.041 A 
ATOM      6  C   UNL d   1     -39.329  14.456  16.893  0.00  0.00     0.027 A 
ATOM      7  C   UNL d   1     -38.707  14.494  16.353  0.00  0.00     0.127 A 
ATOM      8  C   UNL d   1     -38.466  15.228  16.051  0.00  0.00     0.024 A 
ATOM      9  C   UNL d   1     -38.851  15.916  16.290  0.00  0.00     0.002 A 
ATOM     10  C   UNL d   1     -39.469  15.876  16.825  0.00  0.00     0.003 A 
BRANCH   7  11
ATOM     11  N   UNL d   1     -38.321  13.805  16.114  0.00  0.00    -0.114 N 
ATOM     12  O   UNL d   1     -37.956  13.262  16.619  0.00  0.00    -0.532 OA
ATOM     13  O   UNL d   1     -38.254  13.572  15.336  0.00  0.00    -0.532 OA
ENDBRANCH   7  11
ENDBRANCH   3   5
ENDBRANCH   2   3
ENDBRANCH   1   2
BRANCH   1  14
ATOM     14  C   UNL d   1     -40.395  15.164  19.839  0.00  0.00     0.030 A 
ATOM     15  C   UNL d   1     -39.844  15.766  20.031  0.00  0.00     0.008 A 
ATOM     16  C   UNL d   1     -39.599  15.890  20.809  0.00  0.00     0.020 A 
ATOM     17  C   UNL d   1     -39.899  15.416  21.414  0.00  0.00     0.087 A 
ATOM     18  C   UNL d   1     -40.440  14.822  21.244  0.00  0.00     0.020 A 
ATOM     19  C   UNL d   1     -40.685  14.698  20.466  0.00  0.00     0.008 A 
BRANCH  17  20
ATOM     20  N   UNL d   1     -39.653  15.541  22.196  0.00  0.00    -0.186 NA
ATOM     21  C   UNL d   1     -38.874  15.390  22.410  0.00  0.00     0.388 C 
ATOM     22  O   UNL d   1     -38.336  15.114  21.849  0.00  0.00    -0.236 OA
BRANCH  21  23
ATOM     23  O   UNL d   1     -38.629  15.514  23.188  0.00  0.00    -0.281 OA
ATOM     24  C   UNL d   1     -38.394  14.873  23.651  0.00  0.00     0.186 C 
ENDBRANCH  21  23
ENDBRANCH  17  20
ENDBRANCH   1  14
TORSDOF 7
ENDMDL
MODEL 7
REMARK VINA RESULT:      -5.6      1.164      5.765
REMARK  7 active torsions:
REMARK  status: ('A' for Active; 'I' for Inactive)
REMARK    1  A    between atoms: C_3  and  N_1 
REMARK       I    between atoms: C_2  and  N_8 
REMARK    2  A    between atoms: O_16  and  C_2 
REMARK    3  A    between atoms: C_7  and  C_5 
REMARK    4  A    between atoms: C_12  and  C_7 
REMARK    5  A    between atoms: N_8  and  C_14 
REMARK    6  A    between atoms: S_11  and  C_12 
REMARK    7  A    between atoms: C_15  and  S_11 
ROOT
ATOM      1  S   UNL d   1     -46.921  13.194  22.343  0.00  0.00    -0.083 SA
ENDROOT
BRANCH   1   2
ATOM      2  C   UNL d   1     -46.618  12.624  22.851  0.00  0.00     0.077 C 
BRANCH   2   3
ATOM      3  C   UNL d   1     -45.811  12.451  22.844  0.00  0.00     0.202 C 
ATOM      4  O   UNL d   1     -45.274  13.010  22.574  0.00  0.00    -0.286 OA
BRANCH   3   5
ATOM      5  C   UNL d   1     -45.546  11.715  23.108  0.00  0.00     0.041 A 
ATOM      6  C   UNL d   1     -44.754  11.519  23.046  0.00  0.00     0.027 A 
ATOM      7  C   UNL d   1     -44.490  10.784  23.310  0.00  0.00     0.127 A 
ATOM      8  C   UNL d   1     -45.027  10.244  23.637  0.00  0.00     0.024 A 
ATOM      9  C   UNL d   1     -45.824  10.446  23.697  0.00  0.00     0.002 A 
ATOM     10  C   UNL d   1     -46.084  11.176  23.435  0.00  0.00     0.003 A 
BRANCH   7  11
ATOM     11  N   UNL d   1     -43.691  10.583  23.250  0.00  0.00    -0.114 N 
ATOM     12  O   UNL d   1     -43.115  11.028  22.859  0.00  0.00    -0.532 OA
ATOM     13  O   UNL d   1     -43.370   9.908  23.574  0.00  0.00    -0.532 OA
ENDBRANCH   7  11
ENDBRANCH   3   5
ENDBRANCH   2   3
ENDBRANCH   1   2
BRANCH   1  14
ATOM     14  C   UNL d   1     -47.676  13.508  22.475  0.00  0.00     0.030 A 
ATOM     15  C   UNL d   1     -47.779  14.238  22.873  0.00  0.00     0.008 A 
ATOM     16  C   UNL d   1     -48.531  14.551  23.004  0.00  0.00     0.020 A 
ATOM     17  C   UNL d   1     -49.198  14.141  22.742  0.00  0.00     0.087 A 
ATOM     18  C   UNL d   1     -49.115  13.424  22.351  0.00  0.00     0.020 A 
ATOM     19  C   UNL d   1     -48.363  13.111  22.220  0.00  0.00     0.008 A 
BRANCH  17  20
ATOM     20  N   UNL d   1     -49.953  14.455  22.875  0.00  0.00    -0.186 NA
ATOM     21  C   UNL d   1     -50.101  15.248  22.719  0.00  0.00     0.388 C 
ATOM     22  O   UNL d   1     -49.499  15.734  22.431  0.00  0.00    -0.236 OA
BRANCH  21  23
ATOM     23  O   UNL d   1     -50.853  15.561  22.851  0.00  0.00    -0.281 OA
ATOM     24  C   UNL d   1     -51.027  15.922  23.573  0.00  0.00     0.186 C 
ENDBRANCH  21  23
ENDBRANCH  17  20
ENDBRANCH   1  14
TORSDOF 7
ENDMDL
MODEL 8
REMARK VINA RESULT:      -5.3      1.667      5.245
REMARK  7 active torsions:
REMARK  status: ('A' for Active; 'I' for Inactive)
REMARK    1  A    between atoms: C_3  and  N_1 
REMARK       I    between atoms: C_2  and  N_8 
REMARK    2  A    between atoms: O_16  and  C_2 
REMARK    3  A    between atoms: C_7  and  C_5 
REMARK    4  A    between atoms: C_12  and  C_7 
REMARK    5  A    between atoms: N_8  and  C_14 
REMARK    6  A    between atoms: S_11  and  C_12 
REMARK    7  A    between atoms: C_15  and  S_11 
ROOT
ATOM      1  S   UNL d   1     -46.722  13.816  22.183  0.00  0.00    -0.083 SA
ENDROOT
BRANCH   1   2
ATOM      2  C   UNL d   1     -46.128  13.255  22.258  0.00  0.00     0.077 C 
BRANCH   2   3
ATOM      3  C   UNL d   1     -45.336  13.484  22.224  0.00  0.00     0.202 C 
ATOM      4  O   UNL d   1     -45.138  14.281  22.248  0.00  0.00    -0.286 OA
BRANCH   3   5
ATOM      5  C   UNL d   1     -44.744  12.911  22.167  0.00  0.00     0.041 A 
ATOM      6  C   UNL d   1     -44.735  12.279  22.687  0.00  0.00     0.027 A 
ATOM      7  C   UNL d   1     -44.143  11.708  22.630  0.00  0.00     0.127 A 
ATOM      8  C   UNL d   1     -43.560  11.774  22.045  0.00  0.00     0.024 A 
ATOM      9  C   UNL d   1     -43.573  12.412  21.523  0.00  0.00     0.002 A 
ATOM     10  C   UNL d   1     -44.161  12.978  21.582  0.00  0.00     0.003 A 
BRANCH   7  11
ATOM     11  N   UNL d   1     -44.130  11.069  23.153  0.00  0.00    -0.114 N 
ATOM     12  O   UNL d   1     -44.705  10.476  23.196  0.00  0.00    -0.532 OA
ATOM     13  O   UNL d   1     -43.538  10.944  23.698  0.00  0.00    -0.532 OA
ENDBRANCH   7  11
ENDBRANCH   3   5
ENDBRANCH   2   3
ENDBRANCH   1   2
BRANCH   1  14
ATOM     14  C   UNL d   1     -47.513  13.601  22.298  0.00  0.00     0.030 A 
ATOM     15  C   UNL d   1     -47.876  13.012  21.825  0.00  0.00     0.008 A 
ATOM     16  C   UNL d   1     -48.665  12.797  21.939  0.00  0.00     0.020 A 
ATOM     17  C   UNL d   1     -49.109  13.165  22.529  0.00  0.00     0.087 A 
ATOM     18  C   UNL d   1     -48.770  13.744  23.001  0.00  0.00     0.020 A 
ATOM     19  C   UNL d   1     -47.981  13.959  22.887  0.00  0.00     0.008 A 
BRANCH  17  20
ATOM     20  N   UNL d   1     -49.901  12.949  22.643  0.00  0.00    -0.186 NA
ATOM     21  C   UNL d   1     -50.091  12.351  23.173  0.00  0.00     0.388 C 
ATOM     22  O   UNL d   1     -49.495  11.964  23.592  0.00  0.00    -0.236 OA
BRANCH  21  23
ATOM     23  O   UNL d   1     -50.880  12.136  23.287  0.00  0.00    -0.281 OA
ATOM     24  C   UNL d   1     -51.060  11.442  23.696  0.00  0.00     0.186 C 
ENDBRANCH  21  23
ENDBRANCH  17  20
ENDBRANCH   1  14
TORSDOF 7
ENDMDL
MODEL 9
REMARK VINA RESULT:      -4.9      7.901      9.845
REMARK  7 active torsions:
REMARK  status: ('A' for Active; 'I' for Inactive)
REMARK    1  A    between atoms: C_3  and  N_1 
REMARK       I    between atoms: C_2  and  N_8 
REMARK    2  A    between atoms: O_16  and  C_2 
REMARK    3  A    between atoms: C_7  and  C_5 
REMARK    4  A    between atoms: C_12  and  C_7 
REMARK    5  A    between atoms: N_8  and  C_14 
REMARK    6  A    between atoms: S_11  and  C_12 
REMARK    7  A    between atoms: C_15  and  S_11 
ROOT
ATOM      1  S   UNL d   1     -39.265  15.312  19.587  0.00  0.00    -0.083 SA
ENDROOT
BRANCH   1   2
ATOM      2  C   UNL d   1     -39.288  15.218  18.771  0.00  0.00     0.077 C 
BRANCH   2   3
ATOM      3  C   UNL d   1     -38.651  15.466  18.309  0.00  0.00     0.202 C 
ATOM      4  O   UNL d   1     -38.010  15.841  18.660  0.00  0.00    -0.286 OA
BRANCH   3   5
ATOM      5  C   UNL d   1     -38.659  15.335  17.494  0.00  0.00     0.041 A 
ATOM      6  C   UNL d   1     -38.383  14.626  17.190  0.00  0.00     0.027 A 
ATOM      7  C   UNL d   1     -38.391  14.496  16.376  0.00  0.00     0.127 A 
ATOM      8  C   UNL d   1     -38.679  15.083  15.867  0.00  0.00     0.024 A 
ATOM      9  C   UNL d   1     -38.956  15.795  16.176  0.00  0.00     0.002 A 
ATOM     10  C   UNL d   1     -38.947  15.922  16.985  0.00  0.00     0.003 A 
BRANCH   7  11
ATOM     11  N   UNL d   1     -38.114  13.783  16.066  0.00  0.00    -0.114 N 
ATOM     12  O   UNL d   1     -37.940  13.106  16.508  0.00  0.00    -0.532 OA
ATOM     13  O   UNL d   1     -37.976  13.659  15.273  0.00  0.00    -0.532 OA
ENDBRANCH   7  11
ENDBRANCH   3   5
ENDBRANCH   2   3
ENDBRANCH   1   2
BRANCH   1  14
ATOM     14  C   UNL d   1     -39.869  14.995  20.057  0.00  0.00     0.030 A 
ATOM     15  C   UNL d   1     -39.722  14.360  20.584  0.00  0.00     0.008 A 
ATOM     16  C   UNL d   1     -40.323  14.045  21.053  0.00  0.00     0.020 A 
ATOM     17  C   UNL d   1     -41.086  14.357  21.006  0.00  0.00     0.087 A 
ATOM     18  C   UNL d   1     -41.247  14.979  20.496  0.00  0.00     0.020 A 
ATOM     19  C   UNL d   1     -40.646  15.294  20.027  0.00  0.00     0.008 A 
BRANCH  17  20
ATOM     20  N   UNL d   1     -41.690  14.041  21.477  0.00  0.00    -0.186 NA
ATOM     21  C   UNL d   1     -42.191  13.466  21.172  0.00  0.00     0.388 C 
ATOM     22  O   UNL d   1     -42.094  13.202  20.396  0.00  0.00    -0.236 OA
BRANCH  21  23
ATOM     23  O   UNL d   1     -42.792  13.151  21.641  0.00  0.00    -0.281 OA
ATOM     24  C   UNL d   1     -43.421  12.751  21.287  0.00  0.00     0.186 C 
ENDBRANCH  21  23
ENDBRANCH  17  20
ENDBRANCH   1  14
TORSDOF 7
ENDMDL
