MODEL 1
REMARK VINA RESULT:       3.1      0.000      0.000
REMARK  7 active torsions:
REMARK  status: ('A' for Active; 'I' for Inactive)
REMARK    1  A    between atoms: C_7  and  C_1 
REMARK    2  A    between atoms: C_8  and  C_3 
REMARK    3  A    between atoms: O_17  and  C_7 
REMARK    4  A    between atoms: N_11  and  C_10 
REMARK    5  A    between atoms: C_19  and  N_11 
REMARK    6  A    between atoms: C_20  and  N_11 
REMARK    7  A    between atoms: C_21  and  O_17 
ROOT
ATOM      1  C   UNL d   1      32.902  21.129 -22.348  0.00  0.00     0.099 A 
ATOM      2  C   UNL d   1      32.979  21.822 -21.932  0.00  0.00     0.093 A 
ATOM      3  C   UNL d   1      32.705  20.416 -21.957  0.00  0.00     0.093 A 
ATOM      4  C   UNL d   1      32.663  21.105 -20.724  0.00  0.00     0.369 A 
ATOM      5  N   UNL d   1      32.861  21.818 -21.116  0.00  0.00    -0.191 NA
ATOM      6  N   UNL d   1      32.587  20.406 -21.154  0.00  0.00    -0.191 NA
ATOM      7  O   UNL d   1      32.544  21.110 -19.895  0.00  0.00    -0.242 OA
ATOM      8  C   UNL d   1      33.174  22.525 -22.318  0.00  0.00     0.021 C 
ENDROOT
BRANCH   3   9
ATOM      9  C   UNL d   1      32.628  19.717 -22.388  0.00  0.00     0.018 A 
ATOM     10  C   UNL d   1      31.935  19.563 -22.806  0.00  0.00     0.003 A 
ATOM     11  C   UNL d   1      31.859  18.864 -23.236  0.00  0.00     0.018 A 
ATOM     12  C   UNL d   1      32.468  18.311 -23.258  0.00  0.00     0.064 A 
ATOM     13  C   UNL d   1      33.162  18.465 -22.840  0.00  0.00     0.018 A 
ATOM     14  C   UNL d   1      33.237  19.164 -22.409  0.00  0.00     0.003 A 
BRANCH  12  15
ATOM     15  N   UNL d   1      32.380  17.598 -23.702  0.00  0.00    -0.304 N 
BRANCH  15  16
ATOM     16  C   UNL d   1      31.724  17.119 -23.593  0.00  0.00     0.080 C 
ATOM     17  C   UNL d   1      31.635  16.431 -24.031  0.00  0.00     0.021 C 
ENDBRANCH  15  16
BRANCH  15  18
ATOM     18  C   UNL d   1      32.958  17.395 -24.240  0.00  0.00     0.080 C 
ATOM     19  C   UNL d   1      32.890  17.645 -25.012  0.00  0.00     0.021 C 
ENDBRANCH  15  18
ENDBRANCH  12  15
ENDBRANCH   3   9
BRANCH   1  20
ATOM     20  C   UNL d   1      33.025  21.138 -23.186  0.00  0.00     0.303 C 
ATOM     21  O   UNL d   1      33.195  20.433 -23.579  0.00  0.00    -0.259 OA
BRANCH  20  22
ATOM     22  O   UNL d   1      32.975  21.842 -23.606  0.00  0.00    -0.271 OA
BRANCH  22  23
ATOM     23  C   UNL d   1      33.002  21.834 -24.430  0.00  0.00     0.126 C 
ATOM     24  C   UNL d   1      32.624  22.428 -24.863  0.00  0.00     0.029 C 
ENDBRANCH  22  23
ENDBRANCH  20  22
ENDBRANCH   1  20
TORSDOF 7
ENDMDL
MODEL 2
REMARK VINA RESULT:       5.1      3.819      5.331
REMARK  7 active torsions:
REMARK  status: ('A' for Active; 'I' for Inactive)
REMARK    1  A    between atoms: C_7  and  C_1 
REMARK    2  A    between atoms: C_8  and  C_3 
REMARK    3  A    between atoms: O_17  and  C_7 
REMARK    4  A    between atoms: N_11  and  C_10 
REMARK    5  A    between atoms: C_19  and  N_11 
REMARK    6  A    between atoms: C_20  and  N_11 
REMARK    7  A    between atoms: C_21  and  O_17 
ROOT
ATOM      1  C   UNL d   1      28.919  16.703 -23.719  0.00  0.00     0.099 A 
ATOM      2  C   UNL d   1      28.113  16.789 -23.680  0.00  0.00     0.093 A 
ATOM      3  C   UNL d   1      29.395  17.301 -24.061  0.00  0.00     0.093 A 
ATOM      4  C   UNL d   1      28.239  18.071 -24.323  0.00  0.00     0.369 A 
ATOM      5  N   UNL d   1      27.763  17.473 -23.981  0.00  0.00    -0.191 NA
ATOM      6  N   UNL d   1      29.057  17.976 -24.358  0.00  0.00    -0.191 NA
ATOM      7  O   UNL d   1      27.877  18.762 -24.626  0.00  0.00    -0.242 OA
ATOM      8  C   UNL d   1      27.643  16.199 -23.343  0.00  0.00     0.021 C 
ENDROOT
BRANCH   3   9
ATOM      9  C   UNL d   1      30.214  17.206 -24.096  0.00  0.00     0.018 A 
ATOM     10  C   UNL d   1      30.536  16.491 -24.352  0.00  0.00     0.003 A 
ATOM     11  C   UNL d   1      31.354  16.397 -24.387  0.00  0.00     0.018 A 
ATOM     12  C   UNL d   1      31.861  17.007 -24.170  0.00  0.00     0.064 A 
ATOM     13  C   UNL d   1      31.539  17.722 -23.914  0.00  0.00     0.018 A 
ATOM     14  C   UNL d   1      30.721  17.816 -23.878  0.00  0.00     0.003 A 
BRANCH  12  15
ATOM     15  N   UNL d   1      32.698  16.900 -24.209  0.00  0.00    -0.304 N 
BRANCH  15  16
ATOM     16  C   UNL d   1      33.194  17.541 -24.323  0.00  0.00     0.080 C 
ATOM     17  C   UNL d   1      33.240  17.907 -25.057  0.00  0.00     0.021 C 
ENDBRANCH  15  16
BRANCH  15  18
ATOM     18  C   UNL d   1      33.002  16.147 -24.133  0.00  0.00     0.080 C 
ATOM     19  C   UNL d   1      33.187  15.864 -23.393  0.00  0.00     0.021 C 
ENDBRANCH  15  18
ENDBRANCH  12  15
ENDBRANCH   3   9
BRANCH   1  20
ATOM     20  C   UNL d   1      29.273  16.000 -23.409  0.00  0.00     0.303 C 
ATOM     21  O   UNL d   1      29.643  15.470 -23.922  0.00  0.00    -0.259 OA
BRANCH  20  22
ATOM     22  O   UNL d   1      29.248  15.843 -22.603  0.00  0.00    -0.271 OA
BRANCH  22  23
ATOM     23  C   UNL d   1      29.880  15.459 -22.237  0.00  0.00     0.126 C 
ATOM     24  C   UNL d   1      29.940  15.453 -21.413  0.00  0.00     0.029 C 
ENDBRANCH  22  23
ENDBRANCH  20  22
ENDBRANCH   1  20
TORSDOF 7
ENDMDL
