MODEL 1
REMARK VINA RESULT:      -5.6      0.000      0.000
REMARK  6 active torsions:
REMARK  status: ('A' for Active; 'I' for Inactive)
REMARK    1  A    between atoms: C_7  and  C_1 
REMARK    2  A    between atoms: C_9  and  N_10 
REMARK       I    between atoms: N_10  and  C_11 
REMARK    3  A    between atoms: C_11  and  C_19 
REMARK    4  A    between atoms: S_15  and  C_12 
REMARK    5  A    between atoms: O_24  and  C_13 
REMARK    6  A    between atoms: C_19  and  S_15 
ROOT
ATOM      1  S   UNL d   1     -47.326  11.979  22.961  0.00  0.00    -0.061 SA
ENDROOT
BRANCH   1   2
ATOM      2  C   UNL d   1     -47.975  12.513  22.947  0.00  0.00     0.133 A 
ATOM      3  C   UNL d   1     -48.599  12.409  23.475  0.00  0.00     0.029 A 
ATOM      4  C   UNL d   1     -49.236  12.930  23.464  0.00  0.00     0.024 A 
ATOM      5  C   UNL d   1     -49.250  13.556  22.926  0.00  0.00     0.111 A 
ATOM      6  N   UNL d   1     -48.626  13.660  22.399  0.00  0.00    -0.147 NA
ATOM      7  N   UNL d   1     -47.989  13.139  22.409  0.00  0.00    -0.141 NA
BRANCH   5   8
ATOM      8  C   UNL d   1     -49.887  14.076  22.916  0.00  0.00     0.068 A 
ATOM      9  C   UNL d   1     -50.606  14.012  22.503  0.00  0.00     0.089 A 
ATOM     10  N   UNL d   1     -51.064  14.678  22.676  0.00  0.00    -0.238 NA
ATOM     11  C   UNL d   1     -50.826  13.390  22.004  0.00  0.00     0.021 C 
ATOM     12  C   UNL d   1     -50.629  15.151  23.193  0.00  0.00     0.111 A 
ATOM     13  S   UNL d   1     -49.905  14.784  23.343  0.00  0.00    -0.065 SA
ATOM     14  C   UNL d   1     -50.877  15.884  23.517  0.00  0.00     0.028 C 
ENDBRANCH   5   8
ENDBRANCH   1   2
BRANCH   1  15
ATOM     15  C   UNL d   1     -46.684  12.128  23.457  0.00  0.00     0.099 C 
BRANCH  15  16
ATOM     16  C   UNL d   1     -46.005  11.665  23.391  0.00  0.00     0.286 C 
ATOM     17  N   UNL d   1     -45.303  11.996  23.090  0.00  0.00    -0.206 NA
ATOM     18  O   UNL d   1     -46.020  10.868  23.625  0.00  0.00    -0.265 OA
BRANCH  17  19
ATOM     19  C   UNL d   1     -44.624  11.534  23.024  0.00  0.00     0.107 A 
ATOM     20  C   UNL d   1     -43.974  11.809  22.585  0.00  0.00     0.112 A 
ATOM     21  C   UNL d   1     -43.295  11.347  22.519  0.00  0.00     0.026 A 
ATOM     22  C   UNL d   1     -43.259  10.606  22.889  0.00  0.00     0.002 A 
ATOM     23  C   UNL d   1     -43.909  10.332  23.328  0.00  0.00     0.002 A 
ATOM     24  C   UNL d   1     -44.588  10.793  23.394  0.00  0.00     0.021 A 
ATOM     25  C   UNL d   1     -43.876   9.595  23.698  0.00  0.00     0.000 C 
BRANCH  20  26
ATOM     26  O   UNL d   1     -44.011  12.546  22.216  0.00  0.00    -0.327 OA
ATOM     27  C   UNL d   1     -43.499  12.722  21.596  0.00  0.00     0.181 C 
ENDBRANCH  20  26
ENDBRANCH  17  19
ENDBRANCH  15  16
ENDBRANCH   1  15
TORSDOF 6
ENDMDL
MODEL 2
REMARK VINA RESULT:      -5.4      1.778      6.293
REMARK  6 active torsions:
REMARK  status: ('A' for Active; 'I' for Inactive)
REMARK    1  A    between atoms: C_7  and  C_1 
REMARK    2  A    between atoms: C_9  and  N_10 
REMARK       I    between atoms: N_10  and  C_11 
REMARK    3  A    between atoms: C_11  and  C_19 
REMARK    4  A    between atoms: S_15  and  C_12 
REMARK    5  A    between atoms: O_24  and  C_13 
REMARK    6  A    between atoms: C_19  and  S_15 
ROOT
ATOM      1  S   UNL d   1     -46.909  13.731  22.856  0.00  0.00    -0.061 SA
ENDROOT
BRANCH   1   2
ATOM      2  C   UNL d   1     -46.296  13.156  22.890  0.00  0.00     0.133 A 
ATOM      3  C   UNL d   1     -45.775  13.080  22.257  0.00  0.00     0.029 A 
ATOM      4  C   UNL d   1     -45.174  12.518  22.287  0.00  0.00     0.024 A 
ATOM      5  C   UNL d   1     -45.094  12.033  22.949  0.00  0.00     0.111 A 
ATOM      6  N   UNL d   1     -45.614  12.109  23.581  0.00  0.00    -0.147 NA
ATOM      7  N   UNL d   1     -46.216  12.671  23.553  0.00  0.00    -0.141 NA
BRANCH   5   8
ATOM      8  C   UNL d   1     -44.492  11.471  22.978  0.00  0.00     0.068 A 
ATOM      9  C   UNL d   1     -43.747  11.487  22.610  0.00  0.00     0.089 A 
ATOM     10  N   UNL d   1     -43.345  10.793  22.809  0.00  0.00    -0.238 NA
ATOM     11  C   UNL d   1     -43.456  12.092  22.126  0.00  0.00     0.021 C 
ATOM     12  C   UNL d   1     -43.840  10.352  23.299  0.00  0.00     0.111 A 
ATOM     13  S   UNL d   1     -44.547  10.766  23.404  0.00  0.00    -0.065 SA
ATOM     14  C   UNL d   1     -43.661   9.605  23.637  0.00  0.00     0.028 C 
ENDBRANCH   5   8
ENDBRANCH   1   2
BRANCH   1  15
ATOM     15  C   UNL d   1     -47.600  13.567  22.438  0.00  0.00     0.099 C 
BRANCH  15  16
ATOM     16  C   UNL d   1     -48.270  14.030  22.565  0.00  0.00     0.286 C 
ATOM     17  N   UNL d   1     -49.023  13.743  22.354  0.00  0.00    -0.206 NA
ATOM     18  O   UNL d   1     -48.197  14.785  22.905  0.00  0.00    -0.265 OA
BRANCH  17  19
ATOM     19  C   UNL d   1     -49.692  14.205  22.481  0.00  0.00     0.107 A 
ATOM     20  C   UNL d   1     -50.393  14.045  22.065  0.00  0.00     0.112 A 
ATOM     21  C   UNL d   1     -51.064  14.507  22.192  0.00  0.00     0.026 A 
ATOM     22  C   UNL d   1     -51.040  15.133  22.735  0.00  0.00     0.002 A 
ATOM     23  C   UNL d   1     -50.339  15.292  23.151  0.00  0.00     0.002 A 
ATOM     24  C   UNL d   1     -49.668  14.830  23.024  0.00  0.00     0.021 A 
ATOM     25  C   UNL d   1     -50.311  15.913  23.693  0.00  0.00     0.000 C 
BRANCH  20  26
ATOM     26  O   UNL d   1     -50.417  13.423  21.524  0.00  0.00    -0.327 OA
ATOM     27  C   UNL d   1     -50.895  13.475  20.856  0.00  0.00     0.181 C 
ENDBRANCH  20  26
ENDBRANCH  17  19
ENDBRANCH  15  16
ENDBRANCH   1  15
TORSDOF 6
ENDMDL
MODEL 3
REMARK VINA RESULT:      -5.2      3.026      5.126
REMARK  6 active torsions:
REMARK  status: ('A' for Active; 'I' for Inactive)
REMARK    1  A    between atoms: C_7  and  C_1 
REMARK    2  A    between atoms: C_9  and  N_10 
REMARK       I    between atoms: N_10  and  C_11 
REMARK    3  A    between atoms: C_11  and  C_19 
REMARK    4  A    between atoms: S_15  and  C_12 
REMARK    5  A    between atoms: O_24  and  C_13 
REMARK    6  A    between atoms: C_19  and  S_15 
ROOT
ATOM      1  S   UNL d   1     -43.188  12.900  21.189  0.00  0.00    -0.061 SA
ENDROOT
BRANCH   1   2
ATOM      2  C   UNL d   1     -43.905  12.814  21.619  0.00  0.00     0.133 A 
ATOM      3  C   UNL d   1     -44.542  13.309  21.451  0.00  0.00     0.029 A 
ATOM      4  C   UNL d   1     -45.245  13.228  21.870  0.00  0.00     0.024 A 
ATOM      5  C   UNL d   1     -45.313  12.652  22.457  0.00  0.00     0.111 A 
ATOM      6  N   UNL d   1     -44.677  12.158  22.625  0.00  0.00    -0.147 NA
ATOM      7  N   UNL d   1     -43.973  12.238  22.206  0.00  0.00    -0.141 NA
BRANCH   5   8
ATOM      8  C   UNL d   1     -46.017  12.571  22.876  0.00  0.00     0.068 A 
ATOM      9  C   UNL d   1     -46.480  13.160  23.236  0.00  0.00     0.089 A 
ATOM     10  N   UNL d   1     -47.134  12.798  23.587  0.00  0.00    -0.238 NA
ATOM     11  C   UNL d   1     -46.315  13.971  23.243  0.00  0.00     0.021 C 
ATOM     12  C   UNL d   1     -47.075  11.988  23.444  0.00  0.00     0.111 A 
ATOM     13  S   UNL d   1     -46.390  11.845  23.007  0.00  0.00    -0.065 SA
ATOM     14  C   UNL d   1     -47.619  11.401  23.698  0.00  0.00     0.028 C 
ENDBRANCH   5   8
ENDBRANCH   1   2
BRANCH   1  15
ATOM     15  C   UNL d   1     -42.630  13.458  21.431  0.00  0.00     0.099 C 
BRANCH  15  16
ATOM     16  C   UNL d   1     -42.001  13.645  20.932  0.00  0.00     0.286 C 
ATOM     17  N   UNL d   1     -41.423  14.192  21.176  0.00  0.00    -0.206 NA
ATOM     18  O   UNL d   1     -41.943  13.288  20.184  0.00  0.00    -0.265 OA
BRANCH  17  19
ATOM     19  C   UNL d   1     -40.795  14.379  20.678  0.00  0.00     0.107 A 
ATOM     20  C   UNL d   1     -40.015  14.353  20.964  0.00  0.00     0.112 A 
ATOM     21  C   UNL d   1     -39.386  14.540  20.466  0.00  0.00     0.026 A 
ATOM     22  C   UNL d   1     -39.529  14.755  19.678  0.00  0.00     0.002 A 
ATOM     23  C   UNL d   1     -40.309  14.780  19.393  0.00  0.00     0.002 A 
ATOM     24  C   UNL d   1     -40.938  14.593  19.891  0.00  0.00     0.021 A 
ATOM     25  C   UNL d   1     -40.456  14.993  18.610  0.00  0.00     0.000 C 
BRANCH  20  26
ATOM     26  O   UNL d   1     -39.872  14.140  21.748  0.00  0.00    -0.327 OA
ATOM     27  C   UNL d   1     -39.099  14.052  22.017  0.00  0.00     0.181 C 
ENDBRANCH  20  26
ENDBRANCH  17  19
ENDBRANCH  15  16
ENDBRANCH   1  15
TORSDOF 6
ENDMDL
MODEL 4
REMARK VINA RESULT:      -5.1      3.646      7.063
REMARK  6 active torsions:
REMARK  status: ('A' for Active; 'I' for Inactive)
REMARK    1  A    between atoms: C_7  and  C_1 
REMARK    2  A    between atoms: C_9  and  N_10 
REMARK       I    between atoms: N_10  and  C_11 
REMARK    3  A    between atoms: C_11  and  C_19 
REMARK    4  A    between atoms: S_15  and  C_12 
REMARK    5  A    between atoms: O_24  and  C_13 
REMARK    6  A    between atoms: C_19  and  S_15 
ROOT
ATOM      1  S   UNL d   1     -42.950  12.886  21.463  0.00  0.00    -0.061 SA
ENDROOT
BRANCH   1   2
ATOM      2  C   UNL d   1     -42.342  13.300  21.057  0.00  0.00     0.133 A 
ATOM      3  C   UNL d   1     -41.775  13.715  21.488  0.00  0.00     0.029 A 
ATOM      4  C   UNL d   1     -41.178  14.121  21.094  0.00  0.00     0.024 A 
ATOM      5  C   UNL d   1     -41.146  14.113  20.269  0.00  0.00     0.111 A 
ATOM      6  N   UNL d   1     -41.711  13.698  19.839  0.00  0.00    -0.147 NA
ATOM      7  N   UNL d   1     -42.309  13.291  20.233  0.00  0.00    -0.141 NA
BRANCH   5   8
ATOM      8  C   UNL d   1     -40.547  14.519  19.876  0.00  0.00     0.068 A 
ATOM      9  C   UNL d   1     -40.468  15.337  19.752  0.00  0.00     0.089 A 
ATOM     10  N   UNL d   1     -39.772  15.469  19.327  0.00  0.00    -0.238 NA
ATOM     11  C   UNL d   1     -40.994  15.922  20.009  0.00  0.00     0.021 C 
ATOM     12  C   UNL d   1     -39.423  14.734  19.189  0.00  0.00     0.111 A 
ATOM     13  S   UNL d   1     -39.897  14.148  19.526  0.00  0.00    -0.065 SA
ATOM     14  C   UNL d   1     -38.705  14.598  18.776  0.00  0.00     0.028 C 
ENDBRANCH   5   8
ENDBRANCH   1   2
BRANCH   1  15
ATOM     15  C   UNL d   1     -43.735  13.126  21.378  0.00  0.00     0.099 C 
BRANCH  15  16
ATOM     16  C   UNL d   1     -44.303  12.848  21.906  0.00  0.00     0.286 C 
ATOM     17  N   UNL d   1     -45.014  13.269  22.014  0.00  0.00    -0.206 NA
ATOM     18  O   UNL d   1     -44.169  12.148  22.333  0.00  0.00    -0.265 OA
BRANCH  17  19
ATOM     19  C   UNL d   1     -45.582  12.992  22.542  0.00  0.00     0.107 A 
ATOM     20  C   UNL d   1     -46.177  13.501  22.819  0.00  0.00     0.112 A 
ATOM     21  C   UNL d   1     -46.745  13.224  23.347  0.00  0.00     0.026 A 
ATOM     22  C   UNL d   1     -46.725  12.436  23.604  0.00  0.00     0.002 A 
ATOM     23  C   UNL d   1     -46.130  11.927  23.326  0.00  0.00     0.002 A 
ATOM     24  C   UNL d   1     -45.562  12.204  22.799  0.00  0.00     0.021 A 
ATOM     25  C   UNL d   1     -46.107  11.143  23.579  0.00  0.00     0.000 C 
BRANCH  20  26
ATOM     26  O   UNL d   1     -46.197  14.285  22.564  0.00  0.00    -0.327 OA
ATOM     27  C   UNL d   1     -46.877  14.737  22.673  0.00  0.00     0.181 C 
ENDBRANCH  20  26
ENDBRANCH  17  19
ENDBRANCH  15  16
ENDBRANCH   1  15
TORSDOF 6
ENDMDL
MODEL 5
REMARK VINA RESULT:      -4.3      4.417      7.858
REMARK  6 active torsions:
REMARK  status: ('A' for Active; 'I' for Inactive)
REMARK    1  A    between atoms: C_7  and  C_1 
REMARK    2  A    between atoms: C_9  and  N_10 
REMARK       I    between atoms: N_10  and  C_11 
REMARK    3  A    between atoms: C_11  and  C_19 
REMARK    4  A    between atoms: S_15  and  C_12 
REMARK    5  A    between atoms: O_24  and  C_13 
REMARK    6  A    between atoms: C_19  and  S_15 
ROOT
ATOM      1  S   UNL d   1     -41.958  13.904  21.066  0.00  0.00    -0.061 SA
ENDROOT
BRANCH   1   2
ATOM      2  C   UNL d   1     -41.412  14.090  20.455  0.00  0.00     0.133 A 
ATOM      3  C   UNL d   1     -40.879  14.709  20.561  0.00  0.00     0.029 A 
ATOM      4  C   UNL d   1     -40.343  14.895  19.965  0.00  0.00     0.024 A 
ATOM      5  C   UNL d   1     -40.339  14.461  19.263  0.00  0.00     0.111 A 
ATOM      6  N   UNL d   1     -40.871  13.843  19.157  0.00  0.00    -0.147 NA
ATOM      7  N   UNL d   1     -41.408  13.657  19.753  0.00  0.00    -0.141 NA
BRANCH   5   8
ATOM      8  C   UNL d   1     -39.802  14.648  18.667  0.00  0.00     0.068 A 
ATOM      9  C   UNL d   1     -39.051  14.322  18.522  0.00  0.00     0.089 A 
ATOM     10  N   UNL d   1     -38.730  14.696  17.858  0.00  0.00    -0.238 NA
ATOM     11  C   UNL d   1     -38.685  13.727  18.965  0.00  0.00     0.021 C 
ATOM     12  C   UNL d   1     -39.282  15.249  17.595  0.00  0.00     0.111 A 
ATOM     13  S   UNL d   1     -39.942  15.222  18.090  0.00  0.00    -0.065 SA
ATOM     14  C   UNL d   1     -39.193  15.758  16.933  0.00  0.00     0.028 C 
ENDBRANCH   5   8
ENDBRANCH   1   2
BRANCH   1  15
ATOM     15  C   UNL d   1     -42.453  13.249  20.987  0.00  0.00     0.099 C 
BRANCH  15  16
ATOM     16  C   UNL d   1     -43.140  13.204  21.440  0.00  0.00     0.286 C 
ATOM     17  N   UNL d   1     -43.526  12.472  21.540  0.00  0.00    -0.206 NA
ATOM     18  O   UNL d   1     -43.450  13.887  21.797  0.00  0.00    -0.265 OA
BRANCH  17  19
ATOM     19  C   UNL d   1     -44.213  12.427  21.993  0.00  0.00     0.107 A 
ATOM     20  C   UNL d   1     -44.292  11.836  22.571  0.00  0.00     0.112 A 
ATOM     21  C   UNL d   1     -44.979  11.789  23.024  0.00  0.00     0.026 A 
ATOM     22  C   UNL d   1     -45.593  12.333  22.903  0.00  0.00     0.002 A 
ATOM     23  C   UNL d   1     -45.513  12.923  22.325  0.00  0.00     0.002 A 
ATOM     24  C   UNL d   1     -44.827  12.970  21.872  0.00  0.00     0.021 A 
ATOM     25  C   UNL d   1     -46.122  13.466  22.202  0.00  0.00     0.000 C 
BRANCH  20  26
ATOM     26  O   UNL d   1     -43.680  11.295  22.691  0.00  0.00    -0.327 OA
ATOM     27  C   UNL d   1     -43.767  10.691  23.244  0.00  0.00     0.181 C 
ENDBRANCH  20  26
ENDBRANCH  17  19
ENDBRANCH  15  16
ENDBRANCH   1  15
TORSDOF 6
ENDMDL
MODEL 6
REMARK VINA RESULT:      -3.9      1.963      6.074
REMARK  6 active torsions:
REMARK  status: ('A' for Active; 'I' for Inactive)
REMARK    1  A    between atoms: C_7  and  C_1 
REMARK    2  A    between atoms: C_9  and  N_10 
REMARK       I    between atoms: N_10  and  C_11 
REMARK    3  A    between atoms: C_11  and  C_19 
REMARK    4  A    between atoms: S_15  and  C_12 
REMARK    5  A    between atoms: O_24  and  C_13 
REMARK    6  A    between atoms: C_19  and  S_15 
ROOT
ATOM      1  S   UNL d   1     -47.023  13.403  22.484  0.00  0.00    -0.061 SA
ENDROOT
BRANCH   1   2
ATOM      2  C   UNL d   1     -46.215  13.265  22.297  0.00  0.00     0.133 A 
ATOM      3  C   UNL d   1     -46.023  12.828  21.625  0.00  0.00     0.029 A 
ATOM      4  C   UNL d   1     -45.233  12.691  21.438  0.00  0.00     0.024 A 
ATOM      5  C   UNL d   1     -44.636  12.989  21.923  0.00  0.00     0.111 A 
ATOM      6  N   UNL d   1     -44.828  13.425  22.593  0.00  0.00    -0.147 NA
ATOM      7  N   UNL d   1     -45.618  13.563  22.781  0.00  0.00    -0.141 NA
BRANCH   5   8
ATOM      8  C   UNL d   1     -43.846  12.851  21.735  0.00  0.00     0.068 A 
ATOM      9  C   UNL d   1     -43.353  12.229  21.982  0.00  0.00     0.089 A 
ATOM     10  N   UNL d   1     -42.608  12.338  21.642  0.00  0.00    -0.238 NA
ATOM     11  C   UNL d   1     -43.569  11.606  22.482  0.00  0.00     0.021 C 
ATOM     12  C   UNL d   1     -42.641  13.025  21.188  0.00  0.00     0.111 A 
ATOM     13  S   UNL d   1     -43.401  13.343  21.242  0.00  0.00    -0.065 SA
ATOM     14  C   UNL d   1     -42.010  13.352  20.741  0.00  0.00     0.028 C 
ENDBRANCH   5   8
ENDBRANCH   1   2
BRANCH   1  15
ATOM     15  C   UNL d   1     -47.318  13.176  23.220  0.00  0.00     0.099 C 
BRANCH  15  16
ATOM     16  C   UNL d   1     -48.132  13.130  23.334  0.00  0.00     0.286 C 
ATOM     17  N   UNL d   1     -48.611  13.798  23.197  0.00  0.00    -0.206 NA
ATOM     18  O   UNL d   1     -48.479  12.417  23.584  0.00  0.00    -0.265 OA
BRANCH  17  19
ATOM     19  C   UNL d   1     -49.425  13.752  23.311  0.00  0.00     0.107 A 
ATOM     20  C   UNL d   1     -49.862  14.440  23.475  0.00  0.00     0.112 A 
ATOM     21  C   UNL d   1     -50.677  14.395  23.589  0.00  0.00     0.026 A 
ATOM     22  C   UNL d   1     -51.063  13.663  23.540  0.00  0.00     0.002 A 
ATOM     23  C   UNL d   1     -50.626  12.977  23.376  0.00  0.00     0.002 A 
ATOM     24  C   UNL d   1     -49.812  13.021  23.262  0.00  0.00     0.021 A 
ATOM     25  C   UNL d   1     -51.008  12.247  23.326  0.00  0.00     0.000 C 
BRANCH  20  26
ATOM     26  O   UNL d   1     -49.477  15.168  23.524  0.00  0.00    -0.327 OA
ATOM     27  C   UNL d   1     -49.915  15.865  23.539  0.00  0.00     0.181 C 
ENDBRANCH  20  26
ENDBRANCH  17  19
ENDBRANCH  15  16
ENDBRANCH   1  15
TORSDOF 6
ENDMDL
