MODEL 1
REMARK VINA RESULT:      -2.4      0.000      0.000
REMARK  5 active torsions:
REMARK  status: ('A' for Active; 'I' for Inactive)
REMARK    1  A    between atoms: S_10  and  C_6 
REMARK    2  A    between atoms: C_15  and  S_10 
REMARK    3  A    between atoms: C_11  and  C_15 
REMARK       I    between atoms: N_13  and  C_11 
REMARK    4  A    between atoms: C_17  and  N_13 
REMARK    5  A    between atoms: O_25  and  C_18 
ROOT
ATOM      1  C   UNL d   1      31.204  16.394 -24.169  0.00  0.00     0.155 A 
ATOM      2  C   UNL d   1      30.887  17.143 -24.007  0.00  0.00     0.107 A 
ATOM      3  N   UNL d   1      32.451  16.802 -23.601  0.00  0.00    -0.250 N 
ATOM      4  C   UNL d   1      31.980  16.225 -23.967  0.00  0.00     0.285 A 
ATOM      5  N   UNL d   1      31.357  17.720 -23.641  0.00  0.00    -0.220 NA
ATOM      6  C   UNL d   1      32.135  17.541 -23.442  0.00  0.00     0.182 A 
ATOM      7  N   UNL d   1      30.618  15.941 -24.529  0.00  0.00    -0.239 NA
ATOM      8  C   UNL d   1      30.107  17.157 -24.265  0.00  0.00     0.037 A 
ATOM      9  C   UNL d   1      29.936  16.408 -24.592  0.00  0.00     0.083 A 
ATOM     10  O   UNL d   1      32.305  15.477 -24.126  0.00  0.00    -0.265 OA
ATOM     11  C   UNL d   1      33.235  16.632 -23.396  0.00  0.00     0.104 C 
ATOM     12  C   UNL d   1      29.527  17.739 -24.252  0.00  0.00     0.003 A 
ATOM     13  C   UNL d   1      29.184  16.252 -24.902  0.00  0.00     0.019 A 
ATOM     14  C   UNL d   1      28.776  17.584 -24.562  0.00  0.00     0.000 A 
ATOM     15  C   UNL d   1      28.608  16.844 -24.884  0.00  0.00     0.002 A 
ENDROOT
BRANCH   6  16
ATOM     16  S   UNL d   1      32.605  18.115 -23.077  0.00  0.00    -0.044 SA
BRANCH  16  17
ATOM     17  C   UNL d   1      32.424  18.916 -23.161  0.00  0.00     0.101 C 
BRANCH  17  18
ATOM     18  C   UNL d   1      32.659  19.454 -22.584  0.00  0.00     0.286 C 
ATOM     19  N   UNL d   1      32.313  20.195 -22.562  0.00  0.00    -0.208 NA
ATOM     20  O   UNL d   1      33.233  19.259 -22.033  0.00  0.00    -0.265 OA
BRANCH  19  21
ATOM     21  C   UNL d   1      32.546  20.741 -21.983  0.00  0.00     0.085 A 
ATOM     22  C   UNL d   1      32.455  20.562 -21.196  0.00  0.00     0.021 A 
ATOM     23  C   UNL d   1      32.688  21.108 -20.617  0.00  0.00     0.026 A 
ATOM     24  C   UNL d   1      33.011  21.833 -20.839  0.00  0.00     0.094 A 
ATOM     25  C   UNL d   1      33.100  22.007 -21.654  0.00  0.00     0.026 A 
ATOM     26  C   UNL d   1      32.867  21.462 -22.219  0.00  0.00     0.021 A 
BRANCH  24  27
ATOM     27  O   UNL d   1      33.241  22.372 -20.251  0.00  0.00    -0.328 OA
ATOM     28  C   UNL d   1      32.715  22.942 -19.983  0.00  0.00     0.181 C 
ENDBRANCH  24  27
ENDBRANCH  19  21
ENDBRANCH  17  18
ENDBRANCH  16  17
ENDBRANCH   6  16
TORSDOF 5
ENDMDL
MODEL 2
REMARK VINA RESULT:      -1.4      1.405      5.769
REMARK  5 active torsions:
REMARK  status: ('A' for Active; 'I' for Inactive)
REMARK    1  A    between atoms: S_10  and  C_6 
REMARK    2  A    between atoms: C_15  and  S_10 
REMARK    3  A    between atoms: C_11  and  C_15 
REMARK       I    between atoms: N_13  and  C_11 
REMARK    4  A    between atoms: C_17  and  N_13 
REMARK    5  A    between atoms: O_25  and  C_18 
ROOT
ATOM      1  C   UNL d   1      33.166  21.314 -22.090  0.00  0.00     0.155 A 
ATOM      2  C   UNL d   1      33.204  21.265 -22.917  0.00  0.00     0.107 A 
ATOM      3  N   UNL d   1      33.179  19.887 -22.009  0.00  0.00    -0.250 N 
ATOM      4  C   UNL d   1      33.153  20.630 -21.639  0.00  0.00     0.285 A 
ATOM      5  N   UNL d   1      33.229  20.523 -23.287  0.00  0.00    -0.220 NA
ATOM      6  C   UNL d   1      33.216  19.842 -22.825  0.00  0.00     0.182 A 
ATOM      7  N   UNL d   1      33.148  22.111 -21.881  0.00  0.00    -0.239 NA
ATOM      8  C   UNL d   1      33.209  22.028 -23.222  0.00  0.00     0.037 A 
ATOM      9  C   UNL d   1      33.174  22.559 -22.579  0.00  0.00     0.083 A 
ATOM     10  O   UNL d   1      33.116  20.670 -20.810  0.00  0.00    -0.265 OA
ATOM     11  C   UNL d   1      33.166  19.195 -21.554  0.00  0.00     0.104 C 
ATOM     12  C   UNL d   1      33.241  22.319 -23.991  0.00  0.00     0.003 A 
ATOM     13  C   UNL d   1      33.171  23.375 -22.714  0.00  0.00     0.019 A 
ATOM     14  C   UNL d   1      33.238  23.136 -24.125  0.00  0.00     0.000 A 
ATOM     15  C   UNL d   1      33.203  23.658 -23.489  0.00  0.00     0.002 A 
ENDROOT
BRANCH   6  16
ATOM     16  S   UNL d   1      33.241  19.102 -23.192  0.00  0.00    -0.044 SA
BRANCH  16  17
ATOM     17  C   UNL d   1      32.876  18.986 -23.922  0.00  0.00     0.101 C 
BRANCH  17  18
ATOM     18  C   UNL d   1      32.464  18.290 -24.072  0.00  0.00     0.286 C 
ATOM     19  N   UNL d   1      31.743  18.326 -24.459  0.00  0.00    -0.208 NA
ATOM     20  O   UNL d   1      32.763  17.563 -23.841  0.00  0.00    -0.265 OA
BRANCH  19  21
ATOM     21  C   UNL d   1      31.323  17.627 -24.612  0.00  0.00     0.085 A 
ATOM     22  C   UNL d   1      31.724  16.944 -24.794  0.00  0.00     0.021 A 
ATOM     23  C   UNL d   1      31.304  16.246 -24.948  0.00  0.00     0.026 A 
ATOM     24  C   UNL d   1      30.480  16.243 -24.916  0.00  0.00     0.094 A 
ATOM     25  C   UNL d   1      30.077  16.954 -24.727  0.00  0.00     0.026 A 
ATOM     26  C   UNL d   1      30.500  17.639 -24.577  0.00  0.00     0.021 A 
BRANCH  24  27
ATOM     27  O   UNL d   1      30.070  15.538 -25.072  0.00  0.00    -0.328 OA
ATOM     28  C   UNL d   1      29.251  15.516 -25.025  0.00  0.00     0.181 C 
ENDBRANCH  24  27
ENDBRANCH  19  21
ENDBRANCH  17  18
ENDBRANCH  16  17
ENDBRANCH   6  16
TORSDOF 5
ENDMDL
MODEL 3
REMARK VINA RESULT:      -0.1      2.349      6.681
REMARK  5 active torsions:
REMARK  status: ('A' for Active; 'I' for Inactive)
REMARK    1  A    between atoms: S_10  and  C_6 
REMARK    2  A    between atoms: C_15  and  S_10 
REMARK    3  A    between atoms: C_11  and  C_15 
REMARK       I    between atoms: N_13  and  C_11 
REMARK    4  A    between atoms: C_17  and  N_13 
REMARK    5  A    between atoms: O_25  and  C_18 
ROOT
ATOM      1  C   UNL d   1      32.043  23.234 -19.918  0.00  0.00     0.155 A 
ATOM      2  C   UNL d   1      32.651  22.747 -19.635  0.00  0.00     0.107 A 
ATOM      3  N   UNL d   1      32.241  22.713 -21.234  0.00  0.00    -0.250 N 
ATOM      4  C   UNL d   1      31.839  23.217 -20.711  0.00  0.00     0.285 A 
ATOM      5  N   UNL d   1      33.053  22.243 -20.157  0.00  0.00    -0.220 NA
ATOM      6  C   UNL d   1      32.841  22.232 -20.952  0.00  0.00     0.182 A 
ATOM      7  N   UNL d   1      31.748  23.670 -19.283  0.00  0.00    -0.239 NA
ATOM      8  C   UNL d   1      32.736  22.878 -18.828  0.00  0.00     0.037 A 
ATOM      9  C   UNL d   1      32.174  23.453 -18.605  0.00  0.00     0.083 A 
ATOM     10  O   UNL d   1      31.231  23.702 -21.002  0.00  0.00    -0.265 OA
ATOM     11  C   UNL d   1      32.035  22.694 -22.036  0.00  0.00     0.104 C 
ATOM     12  C   UNL d   1      33.241  22.559 -18.263  0.00  0.00     0.003 A 
ATOM     13  C   UNL d   1      32.125  23.702 -17.817  0.00  0.00     0.019 A 
ATOM     14  C   UNL d   1      33.192  22.808 -17.475  0.00  0.00     0.000 A 
ATOM     15  C   UNL d   1      32.636  23.377 -17.257  0.00  0.00     0.002 A 
ENDROOT
BRANCH   6  16
ATOM     16  S   UNL d   1      33.240  21.730 -21.473  0.00  0.00    -0.044 SA
BRANCH  16  17
ATOM     17  C   UNL d   1      33.158  20.912 -21.408  0.00  0.00     0.101 C 
BRANCH  17  18
ATOM     18  C   UNL d   1      33.151  20.443 -22.084  0.00  0.00     0.286 C 
ATOM     19  N   UNL d   1      33.053  19.634 -22.010  0.00  0.00    -0.208 NA
ATOM     20  O   UNL d   1      33.238  20.773 -22.828  0.00  0.00    -0.265 OA
BRANCH  19  21
ATOM     21  C   UNL d   1      33.045  19.156 -22.688  0.00  0.00     0.085 A 
ATOM     22  C   UNL d   1      33.087  18.348 -22.615  0.00  0.00     0.021 A 
ATOM     23  C   UNL d   1      33.078  17.870 -23.293  0.00  0.00     0.026 A 
ATOM     24  C   UNL d   1      33.028  18.214 -24.041  0.00  0.00     0.094 A 
ATOM     25  C   UNL d   1      32.985  19.049 -24.103  0.00  0.00     0.026 A 
ATOM     26  C   UNL d   1      32.994  19.513 -23.428  0.00  0.00     0.021 A 
BRANCH  24  27
ATOM     27  O   UNL d   1      33.020  17.726 -24.712  0.00  0.00    -0.328 OA
ATOM     28  C   UNL d   1      32.308  17.491 -25.046  0.00  0.00     0.181 C 
ENDBRANCH  24  27
ENDBRANCH  19  21
ENDBRANCH  17  18
ENDBRANCH  16  17
ENDBRANCH   6  16
TORSDOF 5
ENDMDL
