MODEL 1
REMARK VINA RESULT:      -2.0      0.000      0.000
REMARK  3 active torsions:
REMARK  status: ('A' for Active; 'I' for Inactive)
REMARK    1  A    between atoms: N_10  and  C_3 
REMARK    2  A    between atoms: C_15  and  N_4 
REMARK    3  A    between atoms: C_20  and  C_15 
ROOT
ATOM      1  C   UNL d   1      31.117  16.217 -23.571  0.00  0.00     0.191 A 
ATOM      2  C   UNL d   1      30.947  16.866 -24.059  0.00  0.00     0.173 A 
ATOM      3  C   UNL d   1      29.827  16.160 -23.887  0.00  0.00     0.738 A 
ATOM      4  N   UNL d   1      32.310  17.279 -23.966  0.00  0.00    -0.224 N 
ATOM      5  N   UNL d   1      30.426  15.783 -23.466  0.00  0.00    -0.041 NA
ATOM      6  N   UNL d   1      31.878  16.101 -23.283  0.00  0.00    -0.240 N 
ATOM      7  C   UNL d   1      32.476  16.632 -23.480  0.00  0.00     0.343 A 
ATOM      8  C   UNL d   1      31.547  17.395 -24.255  0.00  0.00     0.288 A 
ATOM      9  N   UNL d   1      30.146  16.829 -24.254  0.00  0.00    -0.130 N 
ATOM     10  O   UNL d   1      33.240  16.517 -23.192  0.00  0.00    -0.245 OA
ATOM     11  O   UNL d   1      31.381  18.042 -24.741  0.00  0.00    -0.265 OA
ATOM     12  C   UNL d   1      32.043  15.453 -22.797  0.00  0.00     0.105 C 
ATOM     13  C   UNL d   1      29.739  17.363 -24.730  0.00  0.00     0.118 C 
ENDROOT
BRANCH   4  14
ATOM     14  C   UNL d   1      32.913  17.812 -24.164  0.00  0.00     0.087 C 
BRANCH  14  15
ATOM     15  C   UNL d   1      32.982  18.525 -23.755  0.00  0.00     0.019 A 
ATOM     16  C   UNL d   1      32.959  18.531 -22.922  0.00  0.00     0.014 A 
ATOM     17  C   UNL d   1      33.029  19.244 -22.513  0.00  0.00     0.068 A 
ATOM     18 CL   UNL d   1      33.005  19.248 -21.690  0.00  0.00    -0.082 Cl
ATOM     19  C   UNL d   1      33.121  19.944 -22.925  0.00  0.00     0.068 A 
ATOM     20  C   UNL d   1      33.145  19.940 -23.764  0.00  0.00     0.012 A 
ATOM     21 CL   UNL d   1      33.191  20.657 -22.517  0.00  0.00    -0.082 Cl
ATOM     22  C   UNL d   1      33.075  19.222 -24.165  0.00  0.00     0.002 A 
ENDBRANCH  14  15
ENDBRANCH   4  14
BRANCH   3  23
ATOM     23  N   UNL d   1      29.041  15.913 -23.935  0.00  0.00    -0.059 N 
ATOM     24  N   UNL d   1      28.594  15.858 -24.624  0.00  0.00    -0.151 NA
ATOM     25  C   UNL d   1      27.836  15.587 -24.418  0.00  0.00     0.103 A 
ATOM     26  C   UNL d   1      27.209  15.453 -24.943  0.00  0.00     0.022 C 
ATOM     27  C   UNL d   1      27.825  15.478 -23.598  0.00  0.00     0.041 A 
ATOM     28  C   UNL d   1      28.569  15.680 -23.305  0.00  0.00     0.102 A 
ATOM     29  C   UNL d   1      28.798  15.651 -22.511  0.00  0.00     0.021 C 
ENDBRANCH   3  23
TORSDOF 3
ENDMDL
