MODEL 1
REMARK VINA RESULT:      -2.9      0.000      0.000
REMARK  5 active torsions:
REMARK  status: ('A' for Active; 'I' for Inactive)
REMARK    1  A    between atoms: C_12  and  N_1 
REMARK    2  A    between atoms: C_6  and  C_5 
REMARK    3  A    between atoms: C_7  and  C_6 
REMARK       I    between atoms: N_9  and  C_7 
REMARK    4  A    between atoms: C_13  and  N_9 
REMARK    5  A    between atoms: C_16  and  C_12 
ROOT
ATOM      1  N   UNL d   1      33.210  20.999 -21.939  0.00  0.00    -0.235 N 
ATOM      2  C   UNL d   1      33.229  20.350 -21.428  0.00  0.00     0.298 A 
ATOM      3  C   UNL d   1      33.210  20.729 -22.709  0.00  0.00     0.274 A 
ATOM      4  S   UNL d   1      33.241  19.667 -21.896  0.00  0.00    -0.022 SA
ATOM      5  C   UNL d   1      33.229  19.901 -22.686  0.00  0.00     0.095 A 
ATOM      6  O   UNL d   1      33.235  20.366 -20.603  0.00  0.00    -0.259 OA
ATOM      7  O   UNL d   1      33.194  21.190 -23.385  0.00  0.00    -0.266 OA
ENDROOT
BRANCH   5   8
ATOM      8  C   UNL d   1      33.236  19.396 -23.342  0.00  0.00     0.074 C 
BRANCH   8   9
ATOM      9  C   UNL d   1      32.813  18.688 -23.320  0.00  0.00     0.280 C 
ATOM     10  N   UNL d   1      32.560  18.335 -24.021  0.00  0.00    -0.208 NA
ATOM     11  O   UNL d   1      32.642  18.330 -22.592  0.00  0.00    -0.265 OA
BRANCH  10  12
ATOM     12  C   UNL d   1      32.139  17.629 -23.997  0.00  0.00     0.085 A 
ATOM     13  C   UNL d   1      31.317  17.634 -24.052  0.00  0.00     0.019 A 
ATOM     14  C   UNL d   1      30.895  16.924 -24.027  0.00  0.00     0.002 A 
ATOM     15  C   UNL d   1      31.297  16.208 -23.947  0.00  0.00     0.000 A 
ATOM     16  C   UNL d   1      32.125  16.204 -23.892  0.00  0.00     0.002 A 
ATOM     17  C   UNL d   1      32.537  16.914 -23.918  0.00  0.00     0.019 A 
ENDBRANCH  10  12
ENDBRANCH   8   9
ENDBRANCH   5   8
BRANCH   1  18
ATOM     18  C   UNL d   1      33.193  21.787 -21.705  0.00  0.00     0.086 C 
BRANCH  18  19
ATOM     19  C   UNL d   1      32.512  22.118 -21.385  0.00  0.00     0.019 C 
ATOM     20  C   UNL d   1      32.475  22.925 -21.235  0.00  0.00     0.002 C 
ENDBRANCH  18  19
ENDBRANCH   1  18
TORSDOF 5
ENDMDL
MODEL 2
REMARK VINA RESULT:      -2.7      1.025      1.643
REMARK  5 active torsions:
REMARK  status: ('A' for Active; 'I' for Inactive)
REMARK    1  A    between atoms: C_12  and  N_1 
REMARK    2  A    between atoms: C_6  and  C_5 
REMARK    3  A    between atoms: C_7  and  C_6 
REMARK       I    between atoms: N_9  and  C_7 
REMARK    4  A    between atoms: C_13  and  N_9 
REMARK    5  A    between atoms: C_16  and  C_12 
ROOT
ATOM      1  N   UNL d   1      32.975  21.772 -21.546  0.00  0.00    -0.235 N 
ATOM      2  C   UNL d   1      33.117  21.836 -22.357  0.00  0.00     0.298 A 
ATOM      3  C   UNL d   1      33.003  20.983 -21.335  0.00  0.00     0.274 A 
ATOM      4  S   UNL d   1      33.234  21.071 -22.649  0.00  0.00    -0.022 SA
ATOM      5  C   UNL d   1      33.164  20.545 -22.019  0.00  0.00     0.095 A 
ATOM      6  O   UNL d   1      33.140  22.529 -22.805  0.00  0.00    -0.259 OA
ATOM      7  O   UNL d   1      32.892  20.678 -20.584  0.00  0.00    -0.266 OA
ENDROOT
BRANCH   5   8
ATOM      8  C   UNL d   1      33.240  19.721 -22.062  0.00  0.00     0.074 C 
BRANCH   8   9
ATOM      9  C   UNL d   1      33.065  19.328 -22.767  0.00  0.00     0.280 C 
ATOM     10  N   UNL d   1      32.717  18.581 -22.747  0.00  0.00    -0.208 NA
ATOM     11  O   UNL d   1      33.240  19.686 -23.494  0.00  0.00    -0.265 OA
BRANCH  10  12
ATOM     12  C   UNL d   1      32.543  18.192 -23.451  0.00  0.00     0.085 A 
ATOM     13  C   UNL d   1      33.151  17.947 -23.950  0.00  0.00     0.019 A 
ATOM     14  C   UNL d   1      32.975  17.555 -24.656  0.00  0.00     0.002 A 
ATOM     15  C   UNL d   1      32.189  17.409 -24.862  0.00  0.00     0.000 A 
ATOM     16  C   UNL d   1      31.578  17.657 -24.359  0.00  0.00     0.002 A 
ATOM     17  C   UNL d   1      31.761  18.045 -23.658  0.00  0.00     0.019 A 
ENDBRANCH  10  12
ENDBRANCH   8   9
ENDBRANCH   5   8
BRANCH   1  18
ATOM     18  C   UNL d   1      32.830  22.401 -21.037  0.00  0.00     0.086 C 
BRANCH  18  19
ATOM     19  C   UNL d   1      32.071  22.704 -20.947  0.00  0.00     0.019 C 
ATOM     20  C   UNL d   1      31.944  23.370 -20.483  0.00  0.00     0.002 C 
ENDBRANCH  18  19
ENDBRANCH   1  18
TORSDOF 5
ENDMDL
MODEL 3
REMARK VINA RESULT:      -2.4      1.154      1.943
REMARK  5 active torsions:
REMARK  status: ('A' for Active; 'I' for Inactive)
REMARK    1  A    between atoms: C_12  and  N_1 
REMARK    2  A    between atoms: C_6  and  C_5 
REMARK    3  A    between atoms: C_7  and  C_6 
REMARK       I    between atoms: N_9  and  C_7 
REMARK    4  A    between atoms: C_13  and  N_9 
REMARK    5  A    between atoms: C_16  and  C_12 
ROOT
ATOM      1  N   UNL d   1      33.157  19.699 -22.627  0.00  0.00    -0.235 N 
ATOM      2  C   UNL d   1      33.073  19.764 -23.446  0.00  0.00     0.298 A 
ATOM      3  C   UNL d   1      33.144  18.909 -22.422  0.00  0.00     0.274 A 
ATOM      4  S   UNL d   1      33.007  18.998 -23.750  0.00  0.00    -0.022 SA
ATOM      5  C   UNL d   1      33.051  18.470 -23.119  0.00  0.00     0.095 A 
ATOM      6  O   UNL d   1      33.057  20.459 -23.891  0.00  0.00    -0.259 OA
ATOM      7  O   UNL d   1      33.211  18.602 -21.667  0.00  0.00    -0.266 OA
ENDROOT
BRANCH   5   8
ATOM      8  C   UNL d   1      33.009  17.644 -23.171  0.00  0.00     0.074 C 
BRANCH   8   9
ATOM      9  C   UNL d   1      32.430  17.291 -23.642  0.00  0.00     0.280 C 
ATOM     10  N   UNL d   1      32.005  16.644 -23.358  0.00  0.00    -0.208 NA
ATOM     11  O   UNL d   1      32.277  17.587 -24.401  0.00  0.00    -0.265 OA
BRANCH  10  12
ATOM     12  C   UNL d   1      31.429  16.294 -23.829  0.00  0.00     0.085 A 
ATOM     13  C   UNL d   1      31.641  15.901 -24.521  0.00  0.00     0.019 A 
ATOM     14  C   UNL d   1      31.061  15.550 -24.993  0.00  0.00     0.002 A 
ATOM     15  C   UNL d   1      30.267  15.592 -24.771  0.00  0.00     0.000 A 
ATOM     16  C   UNL d   1      30.055  15.988 -24.074  0.00  0.00     0.002 A 
ATOM     17  C   UNL d   1      30.637  16.335 -23.610  0.00  0.00     0.019 A 
ENDBRANCH  10  12
ENDBRANCH   8   9
ENDBRANCH   5   8
BRANCH   1  18
ATOM     18  C   UNL d   1      33.240  20.330 -22.106  0.00  0.00     0.086 C 
BRANCH  18  19
ATOM     19  C   UNL d   1      32.583  20.749 -21.842  0.00  0.00     0.019 C 
ATOM     20  C   UNL d   1      32.673  21.361 -21.303  0.00  0.00     0.002 C 
ENDBRANCH  18  19
ENDBRANCH   1  18
TORSDOF 5
ENDMDL
MODEL 4
REMARK VINA RESULT:      -2.2      1.384      4.616
REMARK  5 active torsions:
REMARK  status: ('A' for Active; 'I' for Inactive)
REMARK    1  A    between atoms: C_12  and  N_1 
REMARK    2  A    between atoms: C_6  and  C_5 
REMARK    3  A    between atoms: C_7  and  C_6 
REMARK       I    between atoms: N_9  and  C_7 
REMARK    4  A    between atoms: C_13  and  N_9 
REMARK    5  A    between atoms: C_16  and  C_12 
ROOT
ATOM      1  N   UNL d   1      31.583  16.927 -24.049  0.00  0.00    -0.235 N 
ATOM      2  C   UNL d   1      31.447  17.590 -24.522  0.00  0.00     0.298 A 
ATOM      3  C   UNL d   1      32.232  17.070 -23.575  0.00  0.00     0.274 A 
ATOM      4  S   UNL d   1      32.023  18.152 -24.334  0.00  0.00    -0.022 SA
ATOM      5  C   UNL d   1      32.508  17.831 -23.750  0.00  0.00     0.095 A 
ATOM      6  O   UNL d   1      30.848  17.686 -25.083  0.00  0.00    -0.259 OA
ATOM      7  O   UNL d   1      32.555  16.557 -23.025  0.00  0.00    -0.266 OA
ENDROOT
BRANCH   5   8
ATOM      8  C   UNL d   1      33.158  18.206 -23.398  0.00  0.00     0.074 C 
BRANCH   8   9
ATOM      9  C   UNL d   1      33.094  18.989 -23.144  0.00  0.00     0.280 C 
ATOM     10  N   UNL d   1      33.158  19.169 -22.342  0.00  0.00    -0.208 NA
ATOM     11  O   UNL d   1      32.966  19.594 -23.696  0.00  0.00    -0.265 OA
BRANCH  10  12
ATOM     12  C   UNL d   1      33.093  19.950 -22.091  0.00  0.00     0.085 A 
ATOM     13  C   UNL d   1      33.241  20.567 -22.616  0.00  0.00     0.019 A 
ATOM     14  C   UNL d   1      33.176  21.352 -22.362  0.00  0.00     0.002 A 
ATOM     15  C   UNL d   1      32.963  21.516 -21.582  0.00  0.00     0.000 A 
ATOM     16  C   UNL d   1      32.815  20.893 -21.055  0.00  0.00     0.002 A 
ATOM     17  C   UNL d   1      32.881  20.117 -21.315  0.00  0.00     0.019 A 
ENDBRANCH  10  12
ENDBRANCH   8   9
ENDBRANCH   5   8
BRANCH   1  18
ATOM     18  C   UNL d   1      31.137  16.236 -24.057  0.00  0.00     0.086 C 
BRANCH  18  19
ATOM     19  C   UNL d   1      30.647  16.043 -23.426  0.00  0.00     0.019 C 
ATOM     20  C   UNL d   1      30.082  15.453 -23.506  0.00  0.00     0.002 C 
ENDBRANCH  18  19
ENDBRANCH   1  18
TORSDOF 5
ENDMDL
MODEL 5
REMARK VINA RESULT:      -1.5      2.422      3.909
REMARK  5 active torsions:
REMARK  status: ('A' for Active; 'I' for Inactive)
REMARK    1  A    between atoms: C_12  and  N_1 
REMARK    2  A    between atoms: C_6  and  C_5 
REMARK    3  A    between atoms: C_7  and  C_6 
REMARK       I    between atoms: N_9  and  C_7 
REMARK    4  A    between atoms: C_13  and  N_9 
REMARK    5  A    between atoms: C_16  and  C_12 
ROOT
ATOM      1  N   UNL d   1      32.514  17.605 -23.992  0.00  0.00    -0.235 N 
ATOM      2  C   UNL d   1      32.618  16.806 -23.808  0.00  0.00     0.298 A 
ATOM      3  C   UNL d   1      31.824  17.690 -24.419  0.00  0.00     0.274 A 
ATOM      4  S   UNL d   1      31.977  16.393 -24.130  0.00  0.00    -0.022 SA
ATOM      5  C   UNL d   1      31.488  16.938 -24.506  0.00  0.00     0.095 A 
ATOM      6  O   UNL d   1      33.241  16.470 -23.383  0.00  0.00    -0.259 OA
ATOM      7  O   UNL d   1      31.516  18.390 -24.710  0.00  0.00    -0.266 OA
ENDROOT
BRANCH   5   8
ATOM      8  C   UNL d   1      30.782  16.764 -24.903  0.00  0.00     0.074 C 
BRANCH   8   9
ATOM      9  C   UNL d   1      30.132  16.478 -24.481  0.00  0.00     0.280 C 
ATOM     10  N   UNL d   1      29.383  16.799 -24.608  0.00  0.00    -0.208 NA
ATOM     11  O   UNL d   1      30.233  15.868 -23.929  0.00  0.00    -0.265 OA
BRANCH  10  12
ATOM     12  C   UNL d   1      28.738  16.512 -24.186  0.00  0.00     0.085 A 
ATOM     13  C   UNL d   1      28.374  16.982 -23.616  0.00  0.00     0.019 A 
ATOM     14  C   UNL d   1      27.725  16.693 -23.193  0.00  0.00     0.002 A 
ATOM     15  C   UNL d   1      27.441  15.932 -23.342  0.00  0.00     0.000 A 
ATOM     16  C   UNL d   1      27.809  15.461 -23.917  0.00  0.00     0.002 A 
ATOM     17  C   UNL d   1      28.453  15.755 -24.333  0.00  0.00     0.019 A 
ENDBRANCH  10  12
ENDBRANCH   8   9
ENDBRANCH   5   8
BRANCH   1  18
ATOM     18  C   UNL d   1      33.025  18.212 -23.777  0.00  0.00     0.086 C 
BRANCH  18  19
ATOM     19  C   UNL d   1      32.737  18.913 -23.459  0.00  0.00     0.019 C 
ATOM     20  C   UNL d   1      33.109  19.257 -22.812  0.00  0.00     0.002 C 
ENDBRANCH  18  19
ENDBRANCH   1  18
TORSDOF 5
ENDMDL
