MODEL 1
REMARK VINA RESULT:      58.8      0.000      0.000
REMARK  5 active torsions:
REMARK  status: ('A' for Active; 'I' for Inactive)
REMARK    1  A    between atoms: C_4  and  S_1 
REMARK    2  A    between atoms: N_5  and  S_1 
REMARK       I    between atoms: N_2  and  C_3 
REMARK    3  A    between atoms: C_3  and  C_6 
REMARK    4  A    between atoms: C_16  and  N_5 
REMARK    5  A    between atoms: C_19  and  C_16 
ROOT
ATOM      1  C   UNL d   1     -55.141-101.541 -42.907  0.00  0.00     0.057 A 
ATOM      2  C   UNL d   1     -54.732-101.002 -42.430  0.00  0.00     0.005 A 
ATOM      3  C   UNL d   1     -55.530-102.182 -42.556  0.00  0.00     0.005 A 
ATOM      4  C   UNL d   1     -55.102-101.746 -41.264  0.00  0.00     0.020 A 
ATOM      5  C   UNL d   1     -54.714-101.108 -41.606  0.00  0.00     0.002 A 
ATOM      6  C   UNL d   1     -55.510-102.285 -41.733  0.00  0.00     0.002 A 
ENDROOT
BRANCH   4   7
ATOM      7  C   UNL d   1     -55.083-101.849 -40.449  0.00  0.00     0.112 C 
BRANCH   7   8
ATOM      8  N   UNL d   1     -55.256-102.578 -40.116  0.00  0.00    -0.157 NA
BRANCH   8   9
ATOM      9  S   UNL d   1     -55.478-102.635 -39.328  0.00  0.00     0.285 S 
ATOM     10  O   UNL d   1     -54.712-102.854 -39.127  0.00  0.00    -0.198 OA
ATOM     11  O   UNL d   1     -56.252-102.415 -39.531  0.00  0.00    -0.198 OA
BRANCH   9  12
ATOM     12  C   UNL d   1     -55.700-102.694 -38.534  0.00  0.00     0.105 A 
ATOM     13  C   UNL d   1     -56.483-102.809 -38.334  0.00  0.00     0.012 A 
ATOM     14  C   UNL d   1     -56.705-102.868 -37.537  0.00  0.00     0.001 A 
ATOM     15  C   UNL d   1     -57.057-102.866 -38.940  0.00  0.00     0.001 C 
ATOM     16  C   UNL d   1     -56.140-102.811 -36.950  0.00  0.00     0.000 A 
ATOM     17  C   UNL d   1     -55.342-102.695 -37.141  0.00  0.00     0.001 A 
ATOM     18  C   UNL d   1     -55.126-102.637 -37.943  0.00  0.00     0.013 A 
ATOM     19  C   UNL d   1     -54.769-102.638 -36.551  0.00  0.00     0.000 C 
ENDBRANCH   9  12
ENDBRANCH   8   9
ENDBRANCH   7   8
ENDBRANCH   4   7
BRANCH   1  20
ATOM     20  C   UNL d   1     -55.160-101.438 -43.722  0.00  0.00     0.265 C 
ATOM     21  N   UNL d   1     -55.238-100.673 -44.045  0.00  0.00    -0.273 N 
ATOM     22  C   UNL d   1     -55.257-100.569 -44.864  0.00  0.00     0.067 A 
ATOM     23  C   UNL d   1     -55.296-100.023 -43.547  0.00  0.00     0.083 A 
ATOM     24  C   UNL d   1     -55.199-101.223 -45.366  0.00  0.00     0.019 C 
ATOM     25  C   UNL d   1     -55.334 -99.812 -45.180  0.00  0.00     0.018 A 
ATOM     26  C   UNL d   1     -55.390 -99.173 -44.674  0.00  0.00     0.003 A 
ATOM     27  C   UNL d   1     -55.372 -99.275 -43.862  0.00  0.00     0.019 A 
ATOM     28  O   UNL d   1     -55.102-102.094 -44.220  0.00  0.00    -0.267 OA
ENDBRANCH   1  20
TORSDOF 5
ENDMDL
