MODEL 1
REMARK VINA RESULT:      -5.0      0.000      0.000
REMARK  4 active torsions:
REMARK  status: ('A' for Active; 'I' for Inactive)
REMARK    1  A    between atoms: C_7  and  C_2 
REMARK    2  A    between atoms: C_6  and  C_3 
REMARK    3  A    between atoms: C_9  and  C_6 
REMARK    4  A    between atoms: O_15  and  C_10 
ROOT
ATOM      1  N   UNL d   1     -41.377-121.481 -52.812  0.00  0.00    -0.201 NA
ATOM      2  C   UNL d   1     -41.399-122.286 -52.977  0.00  0.00     0.114 A 
ATOM      3  C   UNL d   1     -41.227-122.119 -51.671  0.00  0.00     0.089 A 
ATOM      4  C   UNL d   1     -41.272-121.371 -52.015  0.00  0.00     0.286 A 
ATOM      5  S   UNL d   1     -41.304-122.688 -52.250  0.00  0.00    -0.063 SA
ATOM      6  O   UNL d   1     -41.221-120.644 -51.629  0.00  0.00    -0.265 OA
ENDROOT
BRANCH   3   7
ATOM      7  C   UNL d   1     -41.123-122.285 -50.873  0.00  0.00     0.011 C 
BRANCH   7   8
ATOM      8  C   UNL d   1     -41.698-122.670 -50.420  0.00  0.00     0.001 A 
ATOM      9  C   UNL d   1     -41.687-123.466 -50.290  0.00  0.00     0.002 A 
ATOM     10  C   UNL d   1     -42.269-123.817 -49.839  0.00  0.00     0.024 A 
ATOM     11  C   UNL d   1     -42.864-123.395 -49.514  0.00  0.00     0.094 A 
ATOM     12  C   UNL d   1     -42.889-122.578 -49.639  0.00  0.00     0.024 A 
ATOM     13  C   UNL d   1     -42.310-122.206 -50.092  0.00  0.00     0.002 A 
BRANCH  11  14
ATOM     14  O   UNL d   1     -43.451-123.762 -49.057  0.00  0.00    -0.328 OA
ATOM     15  C   UNL d   1     -43.391-123.779 -48.243  0.00  0.00     0.181 C 
ENDBRANCH  11  14
ENDBRANCH   7   8
ENDBRANCH   3   7
BRANCH   2  16
ATOM     16  C   UNL d   1     -41.496-122.634 -53.718  0.00  0.00     0.024 A 
ATOM     17  C   UNL d   1     -41.127-123.349 -53.880  0.00  0.00     0.002 A 
ATOM     18  C   UNL d   1     -41.225-123.697 -54.622  0.00  0.00     0.000 A 
ATOM     19  C   UNL d   1     -41.690-123.326 -55.194  0.00  0.00     0.000 A 
ATOM     20  C   UNL d   1     -42.058-122.606 -55.023  0.00  0.00     0.000 A 
ATOM     21  C   UNL d   1     -41.961-122.259 -54.281  0.00  0.00     0.002 A 
ENDBRANCH   2  16
TORSDOF 4
ENDMDL
MODEL 2
REMARK VINA RESULT:      -3.7      1.284      4.381
REMARK  4 active torsions:
REMARK  status: ('A' for Active; 'I' for Inactive)
REMARK    1  A    between atoms: C_7  and  C_2 
REMARK    2  A    between atoms: C_6  and  C_3 
REMARK    3  A    between atoms: C_9  and  C_6 
REMARK    4  A    between atoms: O_15  and  C_10 
ROOT
ATOM      1  N   UNL d   1     -41.765-121.699 -50.651  0.00  0.00    -0.201 NA
ATOM      2  C   UNL d   1     -41.980-122.492 -50.657  0.00  0.00     0.114 A 
ATOM      3  C   UNL d   1     -41.417-122.190 -51.821  0.00  0.00     0.089 A 
ATOM      4  C   UNL d   1     -41.420-121.506 -51.359  0.00  0.00     0.286 A 
ATOM      5  S   UNL d   1     -41.759-122.801 -51.400  0.00  0.00    -0.063 SA
ATOM      6  O   UNL d   1     -41.128-120.765 -51.571  0.00  0.00    -0.265 OA
ENDROOT
BRANCH   3   7
ATOM      7  C   UNL d   1     -41.123-122.265 -52.584  0.00  0.00     0.011 C 
BRANCH   7   8
ATOM      8  C   UNL d   1     -41.606-122.206 -53.254  0.00  0.00     0.001 A 
ATOM      9  C   UNL d   1     -42.073-121.564 -53.397  0.00  0.00     0.002 A 
ATOM     10  C   UNL d   1     -42.538-121.536 -54.067  0.00  0.00     0.024 A 
ATOM     11  C   UNL d   1     -42.551-122.131 -54.598  0.00  0.00     0.094 A 
ATOM     12  C   UNL d   1     -42.077-122.797 -54.464  0.00  0.00     0.024 A 
ATOM     13  C   UNL d   1     -41.601-122.843 -53.794  0.00  0.00     0.002 A 
BRANCH  11  14
ATOM     14  O   UNL d   1     -43.028-122.092 -55.275  0.00  0.00    -0.328 OA
ATOM     15  C   UNL d   1     -42.725-122.296 -56.006  0.00  0.00     0.181 C 
ENDBRANCH  11  14
ENDBRANCH   7   8
ENDBRANCH   3   7
BRANCH   2  16
ATOM     16  C   UNL d   1     -42.347-122.907 -50.045  0.00  0.00     0.024 A 
ATOM     17  C   UNL d   1     -43.159-122.846 -49.946  0.00  0.00     0.002 A 
ATOM     18  C   UNL d   1     -43.525-123.260 -49.334  0.00  0.00     0.000 A 
ATOM     19  C   UNL d   1     -43.075-123.731 -48.827  0.00  0.00     0.000 A 
ATOM     20  C   UNL d   1     -42.258-123.787 -48.933  0.00  0.00     0.000 A 
ATOM     21  C   UNL d   1     -41.892-123.373 -49.545  0.00  0.00     0.002 A 
ENDBRANCH   2  16
TORSDOF 4
ENDMDL
MODEL 3
REMARK VINA RESULT:      -3.6      1.556      4.497
REMARK  4 active torsions:
REMARK  status: ('A' for Active; 'I' for Inactive)
REMARK    1  A    between atoms: C_7  and  C_2 
REMARK    2  A    between atoms: C_6  and  C_3 
REMARK    3  A    between atoms: C_9  and  C_6 
REMARK    4  A    between atoms: O_15  and  C_10 
ROOT
ATOM      1  N   UNL d   1     -42.658-122.291 -50.065  0.00  0.00    -0.201 NA
ATOM      2  C   UNL d   1     -42.067-122.727 -49.696  0.00  0.00     0.114 A 
ATOM      3  C   UNL d   1     -41.619-122.301 -50.871  0.00  0.00     0.089 A 
ATOM      4  C   UNL d   1     -42.392-122.027 -50.784  0.00  0.00     0.286 A 
ATOM      5  S   UNL d   1     -41.408-122.731 -50.211  0.00  0.00    -0.063 SA
ATOM      6  O   UNL d   1     -42.819-121.571 -51.322  0.00  0.00    -0.265 OA
ENDROOT
BRANCH   3   7
ATOM      7  C   UNL d   1     -41.123-122.172 -51.514  0.00  0.00     0.011 C 
BRANCH   7   8
ATOM      8  C   UNL d   1     -41.191-122.599 -52.220  0.00  0.00     0.001 A 
ATOM      9  C   UNL d   1     -41.227-123.405 -52.237  0.00  0.00     0.002 A 
ATOM     10  C   UNL d   1     -41.294-123.797 -52.950  0.00  0.00     0.024 A 
ATOM     11  C   UNL d   1     -41.326-123.408 -53.646  0.00  0.00     0.094 A 
ATOM     12  C   UNL d   1     -41.289-122.581 -53.643  0.00  0.00     0.024 A 
ATOM     13  C   UNL d   1     -41.221-122.168 -52.934  0.00  0.00     0.002 A 
BRANCH  11  14
ATOM     14  O   UNL d   1     -41.394-123.817 -54.364  0.00  0.00    -0.328 OA
ATOM     15  C   UNL d   1     -41.684-123.441 -55.028  0.00  0.00     0.181 C 
ENDBRANCH  11  14
ENDBRANCH   7   8
ENDBRANCH   3   7
BRANCH   2  16
ATOM     16  C   UNL d   1     -42.112-123.092 -48.958  0.00  0.00     0.024 A 
ATOM     17  C   UNL d   1     -41.428-123.196 -48.517  0.00  0.00     0.002 A 
ATOM     18  C   UNL d   1     -41.474-123.561 -47.778  0.00  0.00     0.000 A 
ATOM     19  C   UNL d   1     -42.203-123.817 -47.489  0.00  0.00     0.000 A 
ATOM     20  C   UNL d   1     -42.887-123.708 -47.939  0.00  0.00     0.000 A 
ATOM     21  C   UNL d   1     -42.841-123.343 -48.677  0.00  0.00     0.002 A 
ENDBRANCH   2  16
TORSDOF 4
ENDMDL
