MODEL 1
REMARK VINA RESULT:      -6.9      0.000      0.000
REMARK  8 active torsions:
REMARK  status: ('A' for Active; 'I' for Inactive)
REMARK    1  A    between atoms: N_2  and  C_1 
REMARK    2  A    between atoms: N_3  and  C_1 
REMARK    3  A    between atoms: C_6  and  C_1 
REMARK       I    between atoms: C_4  and  N_2 
REMARK       I    between atoms: C_5  and  N_3 
REMARK    4  A    between atoms: O_11  and  C_4 
REMARK    5  A    between atoms: O_12  and  C_5 
REMARK    6  A    between atoms: C_10  and  C_6 
REMARK    7  A    between atoms: C_15  and  O_11 
REMARK    8  A    between atoms: C_16  and  O_12 
ROOT
ATOM      1  C   UNL d   1     -48.178  13.349  22.371  0.00  0.00     0.211 C 
ENDROOT
BRANCH   1   2
ATOM      2  N   UNL d   1     -48.518  13.851  22.916  0.00  0.00    -0.163 NA
ATOM      3  C   UNL d   1     -48.612  14.647  22.740  0.00  0.00     0.394 C 
ATOM      4  O   UNL d   1     -48.368  14.962  22.016  0.00  0.00    -0.236 OA
BRANCH   3   5
ATOM      5  O   UNL d   1     -48.957  15.155  23.292  0.00  0.00    -0.256 OA
BRANCH   5   6
ATOM      6  C   UNL d   1     -49.662  15.560  23.105  0.00  0.00     0.128 C 
ATOM      7  C   UNL d   1     -50.107  15.921  23.697  0.00  0.00     0.029 C 
ENDBRANCH   5   6
ENDBRANCH   3   5
ENDBRANCH   1   2
BRANCH   1   8
ATOM      8  N   UNL d   1     -47.401  13.494  22.077  0.00  0.00    -0.163 NA
ATOM      9  C   UNL d   1     -46.736  13.316  22.527  0.00  0.00     0.394 C 
ATOM     10  O   UNL d   1     -46.845  12.995  23.270  0.00  0.00    -0.236 OA
BRANCH   9  11
ATOM     11  O   UNL d   1     -45.964  13.461  22.232  0.00  0.00    -0.256 OA
BRANCH  11  12
ATOM     12  C   UNL d   1     -45.564  12.924  22.199  0.00  0.00     0.128 C 
ATOM     13  C   UNL d   1     -44.754  13.064  21.986  0.00  0.00     0.029 C 
ENDBRANCH  11  12
ENDBRANCH   9  11
ENDBRANCH   1   8
BRANCH   1  14
ATOM     14  C   UNL d   1     -48.598  12.682  22.096  0.00  0.00     0.231 C 
ATOM     15  O   UNL d   1     -48.430  12.365  21.351  0.00  0.00    -0.283 OA
BRANCH  14  16
ATOM     16  C   UNL d   1     -49.197  12.322  22.572  0.00  0.00     0.042 A 
ATOM     17  C   UNL d   1     -48.983  11.816  23.182  0.00  0.00     0.003 A 
ATOM     18  C   UNL d   1     -49.552  11.459  23.653  0.00  0.00     0.000 A 
ATOM     19  C   UNL d   1     -50.369  11.615  23.509  0.00  0.00     0.000 A 
ATOM     20  C   UNL d   1     -50.570  12.118  22.901  0.00  0.00     0.000 A 
ATOM     21  C   UNL d   1     -49.991  12.473  22.431  0.00  0.00     0.003 A 
ENDBRANCH  14  16
ENDBRANCH   1  14
TORSDOF 8
ENDMDL
MODEL 2
REMARK VINA RESULT:      -6.8      0.716      3.063
REMARK  8 active torsions:
REMARK  status: ('A' for Active; 'I' for Inactive)
REMARK    1  A    between atoms: N_2  and  C_1 
REMARK    2  A    between atoms: N_3  and  C_1 
REMARK    3  A    between atoms: C_6  and  C_1 
REMARK       I    between atoms: C_4  and  N_2 
REMARK       I    between atoms: C_5  and  N_3 
REMARK    4  A    between atoms: O_11  and  C_4 
REMARK    5  A    between atoms: O_12  and  C_5 
REMARK    6  A    between atoms: C_10  and  C_6 
REMARK    7  A    between atoms: C_15  and  O_11 
REMARK    8  A    between atoms: C_16  and  O_12 
ROOT
ATOM      1  C   UNL d   1     -47.801  13.224  23.001  0.00  0.00     0.211 C 
ENDROOT
BRANCH   1   2
ATOM      2  N   UNL d   1     -47.234  13.285  22.418  0.00  0.00    -0.163 NA
ATOM      3  C   UNL d   1     -46.438  13.287  22.616  0.00  0.00     0.394 C 
ATOM      4  O   UNL d   1     -46.188  13.226  23.402  0.00  0.00    -0.236 OA
BRANCH   3   5
ATOM      5  O   UNL d   1     -45.864  13.349  22.026  0.00  0.00    -0.256 OA
BRANCH   5   6
ATOM      6  C   UNL d   1     -45.054  13.305  22.223  0.00  0.00     0.128 C 
ATOM      7  C   UNL d   1     -44.504  13.036  21.672  0.00  0.00     0.029 C 
ENDBRANCH   5   6
ENDBRANCH   3   5
ENDBRANCH   1   2
BRANCH   1   8
ATOM      8  N   UNL d   1     -48.141  13.912  23.348  0.00  0.00    -0.163 NA
ATOM      9  C   UNL d   1     -48.383  14.547  22.884  0.00  0.00     0.394 C 
ATOM     10  O   UNL d   1     -48.285  14.495  22.074  0.00  0.00    -0.236 OA
BRANCH   9  11
ATOM     11  O   UNL d   1     -48.721  15.232  23.231  0.00  0.00    -0.256 OA
BRANCH  11  12
ATOM     12  C   UNL d   1     -49.185  15.543  22.860  0.00  0.00     0.128 C 
ATOM     13  C   UNL d   1     -49.855  15.860  23.275  0.00  0.00     0.029 C 
ENDBRANCH  11  12
ENDBRANCH   9  11
ENDBRANCH   1   8
BRANCH   1  14
ATOM     14  C   UNL d   1     -48.052  12.472  23.263  0.00  0.00     0.231 C 
ATOM     15  O   UNL d   1     -47.538  11.991  23.696  0.00  0.00    -0.283 OA
BRANCH  14  16
ATOM     16  C   UNL d   1     -48.831  12.192  23.090  0.00  0.00     0.042 A 
ATOM     17  C   UNL d   1     -49.378  12.111  23.696  0.00  0.00     0.003 A 
ATOM     18  C   UNL d   1     -50.139  11.841  23.544  0.00  0.00     0.000 A 
ATOM     19  C   UNL d   1     -50.361  11.644  22.754  0.00  0.00     0.000 A 
ATOM     20  C   UNL d   1     -49.810  11.729  22.161  0.00  0.00     0.000 A 
ATOM     21  C   UNL d   1     -49.047  12.001  22.321  0.00  0.00     0.003 A 
ENDBRANCH  14  16
ENDBRANCH   1  14
TORSDOF 8
ENDMDL
MODEL 3
REMARK VINA RESULT:      -6.5      8.564     10.100
REMARK  8 active torsions:
REMARK  status: ('A' for Active; 'I' for Inactive)
REMARK    1  A    between atoms: N_2  and  C_1 
REMARK    2  A    between atoms: N_3  and  C_1 
REMARK    3  A    between atoms: C_6  and  C_1 
REMARK       I    between atoms: C_4  and  N_2 
REMARK       I    between atoms: C_5  and  N_3 
REMARK    4  A    between atoms: O_11  and  C_4 
REMARK    5  A    between atoms: O_12  and  C_5 
REMARK    6  A    between atoms: C_10  and  C_6 
REMARK    7  A    between atoms: C_15  and  O_11 
REMARK    8  A    between atoms: C_16  and  O_12 
ROOT
ATOM      1  C   UNL d   1     -39.676  14.811  18.450  0.00  0.00     0.211 C 
ENDROOT
BRANCH   1   2
ATOM      2  N   UNL d   1     -39.613  14.008  18.326  0.00  0.00    -0.163 NA
ATOM      3  C   UNL d   1     -38.962  13.703  17.929  0.00  0.00     0.394 C 
ATOM      4  O   UNL d   1     -38.359  14.193  17.647  0.00  0.00    -0.236 OA
BRANCH   3   5
ATOM      5  O   UNL d   1     -38.898  12.889  17.803  0.00  0.00    -0.256 OA
BRANCH   5   6
ATOM      6  C   UNL d   1     -38.147  12.525  17.792  0.00  0.00     0.128 C 
ATOM      7  C   UNL d   1     -38.071  11.731  17.586  0.00  0.00     0.029 C 
ENDBRANCH   5   6
ENDBRANCH   3   5
ENDBRANCH   1   2
BRANCH   1   8
ATOM      8  N   UNL d   1     -40.008  15.315  17.861  0.00  0.00    -0.163 NA
ATOM      9  C   UNL d   1     -40.695  15.105  17.459  0.00  0.00     0.394 C 
ATOM     10  O   UNL d   1     -41.050  14.392  17.645  0.00  0.00    -0.236 OA
BRANCH   9  11
ATOM     11  O   UNL d   1     -41.024  15.608  16.874  0.00  0.00    -0.256 OA
BRANCH  11  12
ATOM     12  C   UNL d   1     -41.522  15.341  16.514  0.00  0.00     0.128 C 
ATOM     13  C   UNL d   1     -42.017  15.884  16.087  0.00  0.00     0.029 C 
ENDBRANCH  11  12
ENDBRANCH   9  11
ENDBRANCH   1   8
BRANCH   1  14
ATOM     14  C   UNL d   1     -39.410  15.146  19.167  0.00  0.00     0.231 C 
ATOM     15  O   UNL d   1     -38.674  15.519  19.202  0.00  0.00    -0.283 OA
BRANCH  14  16
ATOM     16  C   UNL d   1     -39.888  15.110  19.864  0.00  0.00     0.042 A 
ATOM     17  C   UNL d   1     -39.798  14.484  20.387  0.00  0.00     0.003 A 
ATOM     18  C   UNL d   1     -40.254  14.434  21.067  0.00  0.00     0.000 A 
ATOM     19  C   UNL d   1     -40.823  15.036  21.232  0.00  0.00     0.000 A 
ATOM     20  C   UNL d   1     -40.904  15.652  20.706  0.00  0.00     0.000 A 
ATOM     21  C   UNL d   1     -40.441  15.695  20.024  0.00  0.00     0.003 A 
ENDBRANCH  14  16
ENDBRANCH   1  14
TORSDOF 8
ENDMDL
MODEL 4
REMARK VINA RESULT:      -6.2      7.974     10.174
REMARK  8 active torsions:
REMARK  status: ('A' for Active; 'I' for Inactive)
REMARK    1  A    between atoms: N_2  and  C_1 
REMARK    2  A    between atoms: N_3  and  C_1 
REMARK    3  A    between atoms: C_6  and  C_1 
REMARK       I    between atoms: C_4  and  N_2 
REMARK       I    between atoms: C_5  and  N_3 
REMARK    4  A    between atoms: O_11  and  C_4 
REMARK    5  A    between atoms: O_12  and  C_5 
REMARK    6  A    between atoms: C_10  and  C_6 
REMARK    7  A    between atoms: C_15  and  O_11 
REMARK    8  A    between atoms: C_16  and  O_12 
ROOT
ATOM      1  C   UNL d   1     -39.657  14.509  18.211  0.00  0.00     0.211 C 
ENDROOT
BRANCH   1   2
ATOM      2  N   UNL d   1     -40.282  14.494  17.689  0.00  0.00    -0.163 NA
ATOM      3  C   UNL d   1     -40.554  15.191  17.351  0.00  0.00     0.394 C 
ATOM      4  O   UNL d   1     -40.207  15.921  17.528  0.00  0.00    -0.236 OA
BRANCH   3   5
ATOM      5  O   UNL d   1     -41.188  15.176  16.823  0.00  0.00    -0.256 OA
BRANCH   5   6
ATOM      6  C   UNL d   1     -41.449  15.882  16.462  0.00  0.00     0.128 C 
ATOM      7  C   UNL d   1     -42.121  15.884  15.985  0.00  0.00     0.029 C 
ENDBRANCH   5   6
ENDBRANCH   3   5
ENDBRANCH   1   2
BRANCH   1   8
ATOM      8  N   UNL d   1     -39.784  14.631  19.035  0.00  0.00    -0.163 NA
ATOM      9  C   UNL d   1     -40.386  14.237  19.435  0.00  0.00     0.394 C 
ATOM     10  O   UNL d   1     -40.860  13.722  19.013  0.00  0.00    -0.236 OA
BRANCH   9  11
ATOM     11  O   UNL d   1     -40.511  14.360  20.255  0.00  0.00    -0.256 OA
BRANCH  11  12
ATOM     12  C   UNL d   1     -41.149  14.320  20.457  0.00  0.00     0.128 C 
ATOM     13  C   UNL d   1     -41.281  14.269  21.295  0.00  0.00     0.029 C 
ENDBRANCH  11  12
ENDBRANCH   9  11
ENDBRANCH   1   8
BRANCH   1  14
ATOM     14  C   UNL d   1     -38.876  14.404  17.933  0.00  0.00     0.231 C 
ATOM     15  O   UNL d   1     -38.386  15.058  17.818  0.00  0.00    -0.283 OA
BRANCH  14  16
ATOM     16  C   UNL d   1     -38.578  13.630  17.767  0.00  0.00     0.042 A 
ATOM     17  C   UNL d   1     -38.584  13.349  16.996  0.00  0.00     0.003 A 
ATOM     18  C   UNL d   1     -38.298  12.600  16.818  0.00  0.00     0.000 A 
ATOM     19  C   UNL d   1     -37.993  12.113  17.437  0.00  0.00     0.000 A 
ATOM     20  C   UNL d   1     -37.992  12.403  18.198  0.00  0.00     0.000 A 
ATOM     21  C   UNL d   1     -38.282  13.156  18.369  0.00  0.00     0.003 A 
ENDBRANCH  14  16
ENDBRANCH   1  14
TORSDOF 8
ENDMDL
MODEL 5
REMARK VINA RESULT:      -5.9      1.169      3.578
REMARK  8 active torsions:
REMARK  status: ('A' for Active; 'I' for Inactive)
REMARK    1  A    between atoms: N_2  and  C_1 
REMARK    2  A    between atoms: N_3  and  C_1 
REMARK    3  A    between atoms: C_6  and  C_1 
REMARK       I    between atoms: C_4  and  N_2 
REMARK       I    between atoms: C_5  and  N_3 
REMARK    4  A    between atoms: O_11  and  C_4 
REMARK    5  A    between atoms: O_12  and  C_5 
REMARK    6  A    between atoms: C_10  and  C_6 
REMARK    7  A    between atoms: C_15  and  O_11 
REMARK    8  A    between atoms: C_16  and  O_12 
ROOT
ATOM      1  C   UNL d   1     -47.336  13.473  22.867  0.00  0.00     0.211 C 
ENDROOT
BRANCH   1   2
ATOM      2  N   UNL d   1     -46.804  13.227  22.300  0.00  0.00    -0.163 NA
ATOM      3  C   UNL d   1     -46.002  13.198  22.472  0.00  0.00     0.394 C 
ATOM      4  O   UNL d   1     -45.712  13.413  23.215  0.00  0.00    -0.236 OA
BRANCH   3   5
ATOM      5  O   UNL d   1     -45.464  12.949  21.897  0.00  0.00    -0.256 OA
BRANCH   5   6
ATOM      6  C   UNL d   1     -44.648  12.930  22.069  0.00  0.00     0.128 C 
ATOM      7  C   UNL d   1     -44.103  12.718  21.487  0.00  0.00     0.029 C 
ENDBRANCH   5   6
ENDBRANCH   3   5
ENDBRANCH   1   2
BRANCH   1   8
ATOM      8  N   UNL d   1     -47.691  12.919  23.395  0.00  0.00    -0.163 NA
ATOM      9  C   UNL d   1     -47.988  12.202  23.123  0.00  0.00     0.394 C 
ATOM     10  O   UNL d   1     -47.930  12.037  22.325  0.00  0.00    -0.236 OA
BRANCH   9  11
ATOM     11  O   UNL d   1     -48.340  11.653  23.650  0.00  0.00    -0.256 OA
BRANCH  11  12
ATOM     12  C   UNL d   1     -48.723  11.184  23.362  0.00  0.00     0.128 C 
ATOM     13  C   UNL d   1     -49.494  11.063  23.697  0.00  0.00     0.029 C 
ENDBRANCH  11  12
ENDBRANCH   9  11
ENDBRANCH   1   8
BRANCH   1  14
ATOM     14  C   UNL d   1     -47.536  14.281  22.932  0.00  0.00     0.231 C 
ATOM     15  O   UNL d   1     -46.984  14.822  23.224  0.00  0.00    -0.283 OA
BRANCH  14  16
ATOM     16  C   UNL d   1     -48.302  14.556  22.702  0.00  0.00     0.042 A 
ATOM     17  C   UNL d   1     -48.496  14.599  21.906  0.00  0.00     0.003 A 
ATOM     18  C   UNL d   1     -49.235  14.864  21.667  0.00  0.00     0.000 A 
ATOM     19  C   UNL d   1     -49.803  15.096  22.247  0.00  0.00     0.000 A 
ATOM     20  C   UNL d   1     -49.598  15.049  23.034  0.00  0.00     0.000 A 
ATOM     21  C   UNL d   1     -48.853  14.781  23.267  0.00  0.00     0.003 A 
ENDBRANCH  14  16
ENDBRANCH   1  14
TORSDOF 8
ENDMDL
MODEL 6
REMARK VINA RESULT:      -5.9      1.012      2.636
REMARK  8 active torsions:
REMARK  status: ('A' for Active; 'I' for Inactive)
REMARK    1  A    between atoms: N_2  and  C_1 
REMARK    2  A    between atoms: N_3  and  C_1 
REMARK    3  A    between atoms: C_6  and  C_1 
REMARK       I    between atoms: C_4  and  N_2 
REMARK       I    between atoms: C_5  and  N_3 
REMARK    4  A    between atoms: O_11  and  C_4 
REMARK    5  A    between atoms: O_12  and  C_5 
REMARK    6  A    between atoms: C_10  and  C_6 
REMARK    7  A    between atoms: C_15  and  O_11 
REMARK    8  A    between atoms: C_16  and  O_12 
ROOT
ATOM      1  C   UNL d   1     -47.547  13.687  22.807  0.00  0.00     0.211 C 
ENDROOT
BRANCH   1   2
ATOM      2  N   UNL d   1     -47.885  13.180  23.349  0.00  0.00    -0.163 NA
ATOM      3  C   UNL d   1     -48.137  12.435  23.114  0.00  0.00     0.394 C 
ATOM      4  O   UNL d   1     -48.057  12.178  22.332  0.00  0.00    -0.236 OA
BRANCH   3   5
ATOM      5  O   UNL d   1     -48.479  11.922  23.662  0.00  0.00    -0.256 OA
BRANCH   5   6
ATOM      6  C   UNL d   1     -48.960  11.291  23.402  0.00  0.00     0.128 C 
ATOM      7  C   UNL d   1     -49.728  11.205  23.687  0.00  0.00     0.029 C 
ENDBRANCH   5   6
ENDBRANCH   3   5
ENDBRANCH   1   2
BRANCH   1   8
ATOM      8  N   UNL d   1     -46.962  13.413  22.266  0.00  0.00    -0.163 NA
ATOM      9  C   UNL d   1     -46.160  13.474  22.438  0.00  0.00     0.394 C 
ATOM     10  O   UNL d   1     -45.941  13.808  23.152  0.00  0.00    -0.236 OA
BRANCH   9  11
ATOM     11  O   UNL d   1     -45.580  13.201  21.898  0.00  0.00    -0.256 OA
BRANCH  11  12
ATOM     12  C   UNL d   1     -44.944  13.269  22.100  0.00  0.00     0.128 C 
ATOM     13  C   UNL d   1     -44.359  12.820  21.677  0.00  0.00     0.029 C 
ENDBRANCH  11  12
ENDBRANCH   9  11
ENDBRANCH   1   8
BRANCH   1  14
ATOM     14  C   UNL d   1     -47.777  14.489  22.783  0.00  0.00     0.231 C 
ATOM     15  O   UNL d   1     -47.219  15.084  22.913  0.00  0.00    -0.283 OA
BRANCH  14  16
ATOM     16  C   UNL d   1     -48.580  14.703  22.627  0.00  0.00     0.042 A 
ATOM     17  C   UNL d   1     -49.045  15.009  23.231  0.00  0.00     0.003 A 
ATOM     18  C   UNL d   1     -49.826  15.221  23.095  0.00  0.00     0.000 A 
ATOM     19  C   UNL d   1     -50.156  15.124  22.324  0.00  0.00     0.000 A 
ATOM     20  C   UNL d   1     -49.686  14.819  21.733  0.00  0.00     0.000 A 
ATOM     21  C   UNL d   1     -48.901  14.608  21.877  0.00  0.00     0.003 A 
ENDBRANCH  14  16
ENDBRANCH   1  14
TORSDOF 8
ENDMDL
MODEL 7
REMARK VINA RESULT:      -5.7      8.108     10.218
REMARK  8 active torsions:
REMARK  status: ('A' for Active; 'I' for Inactive)
REMARK    1  A    between atoms: N_2  and  C_1 
REMARK    2  A    between atoms: N_3  and  C_1 
REMARK    3  A    between atoms: C_6  and  C_1 
REMARK       I    between atoms: C_4  and  N_2 
REMARK       I    between atoms: C_5  and  N_3 
REMARK    4  A    between atoms: O_11  and  C_4 
REMARK    5  A    between atoms: O_12  and  C_5 
REMARK    6  A    between atoms: C_10  and  C_6 
REMARK    7  A    between atoms: C_15  and  O_11 
REMARK    8  A    between atoms: C_16  and  O_12 
ROOT
ATOM      1  C   UNL d   1     -39.538  14.558  18.204  0.00  0.00     0.211 C 
ENDROOT
BRANCH   1   2
ATOM      2  N   UNL d   1     -39.610  14.750  18.993  0.00  0.00    -0.163 NA
ATOM      3  C   UNL d   1     -40.199  14.404  19.448  0.00  0.00     0.394 C 
ATOM      4  O   UNL d   1     -40.730  13.858  19.126  0.00  0.00    -0.236 OA
BRANCH   3   5
ATOM      5  O   UNL d   1     -40.272  14.598  20.247  0.00  0.00    -0.256 OA
BRANCH   5   6
ATOM      6  C   UNL d   1     -40.985  14.440  20.653  0.00  0.00     0.128 C 
ATOM      7  C   UNL d   1     -41.391  15.046  21.037  0.00  0.00     0.029 C 
ENDBRANCH   5   6
ENDBRANCH   3   5
ENDBRANCH   1   2
BRANCH   1   8
ATOM      8  N   UNL d   1     -40.213  14.537  17.700  0.00  0.00    -0.163 NA
ATOM      9  C   UNL d   1     -40.494  15.219  17.335  0.00  0.00     0.394 C 
ATOM     10  O   UNL d   1     -40.100  15.922  17.473  0.00  0.00    -0.236 OA
BRANCH   9  11
ATOM     11  O   UNL d   1     -41.166  15.196  16.835  0.00  0.00    -0.256 OA
BRANCH  11  12
ATOM     12  C   UNL d   1     -41.451  15.790  16.708  0.00  0.00     0.128 C 
ATOM     13  C   UNL d   1     -41.919  15.845  16.001  0.00  0.00     0.029 C 
ENDBRANCH  11  12
ENDBRANCH   9  11
ENDBRANCH   1   8
BRANCH   1  14
ATOM     14  C   UNL d   1     -38.788  14.379  17.883  0.00  0.00     0.231 C 
ATOM     15  O   UNL d   1     -38.281  14.989  17.650  0.00  0.00    -0.283 OA
BRANCH  14  16
ATOM     16  C   UNL d   1     -38.536  13.577  17.793  0.00  0.00     0.042 A 
ATOM     17  C   UNL d   1     -38.189  13.186  18.426  0.00  0.00     0.003 A 
ATOM     18  C   UNL d   1     -37.940  12.407  18.355  0.00  0.00     0.000 A 
ATOM     19  C   UNL d   1     -38.042  12.003  17.621  0.00  0.00     0.000 A 
ATOM     20  C   UNL d   1     -38.388  12.400  17.000  0.00  0.00     0.000 A 
ATOM     21  C   UNL d   1     -38.636  13.184  17.080  0.00  0.00     0.003 A 
ENDBRANCH  14  16
ENDBRANCH   1  14
TORSDOF 8
ENDMDL
MODEL 8
REMARK VINA RESULT:      -5.3      6.124      8.938
REMARK  8 active torsions:
REMARK  status: ('A' for Active; 'I' for Inactive)
REMARK    1  A    between atoms: N_2  and  C_1 
REMARK    2  A    between atoms: N_3  and  C_1 
REMARK    3  A    between atoms: C_6  and  C_1 
REMARK       I    between atoms: C_4  and  N_2 
REMARK       I    between atoms: C_5  and  N_3 
REMARK    4  A    between atoms: O_11  and  C_4 
REMARK    5  A    between atoms: O_12  and  C_5 
REMARK    6  A    between atoms: C_10  and  C_6 
REMARK    7  A    between atoms: C_15  and  O_11 
REMARK    8  A    between atoms: C_16  and  O_12 
ROOT
ATOM      1  C   UNL d   1     -40.414  14.540  20.372  0.00  0.00     0.211 C 
ENDROOT
BRANCH   1   2
ATOM      2  N   UNL d   1     -40.859  13.879  20.543  0.00  0.00    -0.163 NA
ATOM      3  C   UNL d   1     -41.605  13.960  20.876  0.00  0.00     0.394 C 
ATOM      4  O   UNL d   1     -41.924  14.703  21.047  0.00  0.00    -0.236 OA
BRANCH   3   5
ATOM      5  O   UNL d   1     -42.056  13.290  21.049  0.00  0.00    -0.256 OA
BRANCH   5   6
ATOM      6  C   UNL d   1     -42.854  13.371  21.279  0.00  0.00     0.128 C 
ATOM      7  C   UNL d   1     -43.317  12.705  21.424  0.00  0.00     0.029 C 
ENDBRANCH   5   6
ENDBRANCH   3   5
ENDBRANCH   1   2
BRANCH   1   8
ATOM      8  N   UNL d   1     -40.565  14.996  19.680  0.00  0.00    -0.163 NA
ATOM      9  C   UNL d   1     -40.545  14.653  18.932  0.00  0.00     0.394 C 
ATOM     10  O   UNL d   1     -40.374  13.856  18.875  0.00  0.00    -0.236 OA
BRANCH   9  11
ATOM     11  O   UNL d   1     -40.696  15.109  18.244  0.00  0.00    -0.256 OA
BRANCH  11  12
ATOM     12  C   UNL d   1     -40.539  14.813  17.663  0.00  0.00     0.128 C 
ATOM     13  C   UNL d   1     -40.691  15.258  16.956  0.00  0.00     0.029 C 
ENDBRANCH  11  12
ENDBRANCH   9  11
ENDBRANCH   1   8
BRANCH   1  14
ATOM     14  C   UNL d   1     -39.798  14.774  20.885  0.00  0.00     0.231 C 
ATOM     15  O   UNL d   1     -39.797  15.533  21.211  0.00  0.00    -0.283 OA
BRANCH  14  16
ATOM     16  C   UNL d   1     -39.170  14.241  21.078  0.00  0.00     0.042 A 
ATOM     17  C   UNL d   1     -39.180  13.842  21.795  0.00  0.00     0.003 A 
ATOM     18  C   UNL d   1     -38.578  13.322  21.996  0.00  0.00     0.000 A 
ATOM     19  C   UNL d   1     -37.940  13.196  21.459  0.00  0.00     0.000 A 
ATOM     20  C   UNL d   1     -37.940  13.597  20.751  0.00  0.00     0.000 A 
ATOM     21  C   UNL d   1     -38.549  14.119  20.555  0.00  0.00     0.003 A 
ENDBRANCH  14  16
ENDBRANCH   1  14
TORSDOF 8
ENDMDL
MODEL 9
REMARK VINA RESULT:      -5.1      5.961      9.005
REMARK  8 active torsions:
REMARK  status: ('A' for Active; 'I' for Inactive)
REMARK    1  A    between atoms: N_2  and  C_1 
REMARK    2  A    between atoms: N_3  and  C_1 
REMARK    3  A    between atoms: C_6  and  C_1 
REMARK       I    between atoms: C_4  and  N_2 
REMARK       I    between atoms: C_5  and  N_3 
REMARK    4  A    between atoms: O_11  and  C_4 
REMARK    5  A    between atoms: O_12  and  C_5 
REMARK    6  A    between atoms: C_10  and  C_6 
REMARK    7  A    between atoms: C_15  and  O_11 
REMARK    8  A    between atoms: C_16  and  O_12 
ROOT
ATOM      1  C   UNL d   1     -40.458  14.631  20.627  0.00  0.00     0.211 C 
ENDROOT
BRANCH   1   2
ATOM      2  N   UNL d   1     -40.374  14.569  19.819  0.00  0.00    -0.163 NA
ATOM      3  C   UNL d   1     -40.559  15.206  19.335  0.00  0.00     0.394 C 
ATOM      4  O   UNL d   1     -40.833  15.921  19.649  0.00  0.00    -0.236 OA
BRANCH   3   5
ATOM      5  O   UNL d   1     -40.473  15.144  18.517  0.00  0.00    -0.256 OA
BRANCH   5   6
ATOM      6  C   UNL d   1     -40.717  15.770  18.021  0.00  0.00     0.128 C 
ATOM      7  C   UNL d   1     -40.724  15.676  17.203  0.00  0.00     0.029 C 
ENDBRANCH   5   6
ENDBRANCH   3   5
ENDBRANCH   1   2
BRANCH   1   8
ATOM      8  N   UNL d   1     -41.201  14.480  20.997  0.00  0.00    -0.163 NA
ATOM      9  C   UNL d   1     -41.641  13.810  20.811  0.00  0.00     0.394 C 
ATOM     10  O   UNL d   1     -41.340  13.291  20.257  0.00  0.00    -0.236 OA
BRANCH   9  11
ATOM     11  O   UNL d   1     -42.379  13.662  21.180  0.00  0.00    -0.256 OA
BRANCH  11  12
ATOM     12  C   UNL d   1     -42.639  13.054  21.069  0.00  0.00     0.128 C 
ATOM     13  C   UNL d   1     -43.382  12.883  21.444  0.00  0.00     0.029 C 
ENDBRANCH  11  12
ENDBRANCH   9  11
ENDBRANCH   1   8
BRANCH   1  14
ATOM     14  C   UNL d   1     -39.806  14.846  21.102  0.00  0.00     0.231 C 
ATOM     15  O   UNL d   1     -39.729  15.622  21.374  0.00  0.00    -0.283 OA
BRANCH  14  16
ATOM     16  C   UNL d   1     -39.217  14.276  21.310  0.00  0.00     0.042 A 
ATOM     17  C   UNL d   1     -38.631  14.079  20.769  0.00  0.00     0.003 A 
ATOM     18  C   UNL d   1     -38.053  13.528  20.956  0.00  0.00     0.000 A 
ATOM     19  C   UNL d   1     -38.060  13.158  21.714  0.00  0.00     0.000 A 
ATOM     20  C   UNL d   1     -38.645  13.360  22.242  0.00  0.00     0.000 A 
ATOM     21  C   UNL d   1     -39.223  13.915  22.047  0.00  0.00     0.003 A 
ENDBRANCH  14  16
ENDBRANCH   1  14
TORSDOF 8
ENDMDL
