MODEL 1
REMARK VINA RESULT:      25.7      0.000      0.000
REMARK  3 active torsions:
REMARK  status: ('A' for Active; 'I' for Inactive)
REMARK    1  A    between atoms: C_6  and  N_1 
REMARK    2  A    between atoms: C_7  and  C_6 
REMARK    3  A    between atoms: C_8  and  C_7 
ROOT
ATOM      1  N   UNL d   1      13.972  12.883  -2.835  0.00  0.00    -0.305 N 
ATOM      2  C   UNL d   1      13.579  12.489  -3.441  0.00  0.00     0.064 A 
ATOM      3  C   UNL d   1      14.126  13.882  -2.788  0.00  0.00     0.064 A 
ATOM      4  C   UNL d   1      13.449  13.195  -3.831  0.00  0.00     0.018 A 
ATOM      5  C   UNL d   1      13.721  13.898  -3.508  0.00  0.00     0.018 A 
ATOM      6  C   UNL d   1      14.401  14.573  -2.456  0.00  0.00     0.018 A 
ATOM      7  C   UNL d   1      13.305  11.779  -3.767  0.00  0.00     0.018 A 
ATOM      8  C   UNL d   1      13.040  13.204  -4.556  0.00  0.00     0.002 A 
ATOM      9  C   UNL d   1      13.593  14.611  -3.894  0.00  0.00     0.002 A 
ATOM     10  C   UNL d   1      13.872  15.314  -3.558  0.00  0.00     0.000 A 
ATOM     11  C   UNL d   1      12.898  11.779  -4.487  0.00  0.00     0.002 A 
ATOM     12  C   UNL d   1      14.275  15.292  -2.841  0.00  0.00     0.002 A 
ATOM     13  C   UNL d   1      12.769  12.501  -4.879  0.00  0.00     0.000 A 
ENDROOT
BRANCH   1  14
ATOM     14  C   UNL d   1      14.279  12.455  -2.196  0.00  0.00     0.086 C 
BRANCH  14  15
ATOM     15  C   UNL d   1      13.798  11.991  -1.712  0.00  0.00     0.089 C 
BRANCH  15  16
ATOM     16  C   UNL d   1      13.986  11.906  -0.911  0.00  0.00     0.213 C 
ATOM     17  O   UNL d   1      14.772  11.781  -0.684  0.00  0.00    -0.644 OA
ATOM     18  O   UNL d   1      13.394  11.946  -0.338  0.00  0.00    -0.644 OA
ENDBRANCH  15  16
ENDBRANCH  14  15
ENDBRANCH   1  14
TORSDOF 3
ENDMDL
MODEL 2
REMARK VINA RESULT:      25.7      1.776      3.377
REMARK  3 active torsions:
REMARK  status: ('A' for Active; 'I' for Inactive)
REMARK    1  A    between atoms: C_6  and  N_1 
REMARK    2  A    between atoms: C_7  and  C_6 
REMARK    3  A    between atoms: C_8  and  C_7 
ROOT
ATOM      1  N   UNL d   1      14.458  13.531  -1.960  0.00  0.00    -0.305 N 
ATOM      2  C   UNL d   1      14.653  13.137  -1.265  0.00  0.00     0.064 A 
ATOM      3  C   UNL d   1      13.936  13.136  -2.732  0.00  0.00     0.064 A 
ATOM      4  C   UNL d   1      14.276  12.461  -1.528  0.00  0.00     0.018 A 
ATOM      5  C   UNL d   1      13.914  12.455  -2.264  0.00  0.00     0.018 A 
ATOM      6  C   UNL d   1      13.580  13.142  -3.465  0.00  0.00     0.018 A 
ATOM      7  C   UNL d   1      15.018  13.143  -0.522  0.00  0.00     0.018 A 
ATOM      8  C   UNL d   1      14.258  11.779  -1.053  0.00  0.00     0.002 A 
ATOM      9  C   UNL d   1      13.534  11.780  -2.536  0.00  0.00     0.002 A 
ATOM     10  C   UNL d   1      13.173  11.786  -3.280  0.00  0.00     0.000 A 
ATOM     11  C   UNL d   1      15.005  12.469  -0.043  0.00  0.00     0.002 A 
ATOM     12  C   UNL d   1      13.197  12.466  -3.741  0.00  0.00     0.002 A 
ATOM     13  C   UNL d   1      14.620  11.786  -0.318  0.00  0.00     0.000 A 
ENDROOT
BRANCH   1  14
ATOM     14  C   UNL d   1      14.693  14.317  -2.068  0.00  0.00     0.086 C 
BRANCH  14  15
ATOM     15  C   UNL d   1      14.611  14.882  -1.472  0.00  0.00     0.089 C 
BRANCH  15  16
ATOM     16  C   UNL d   1      14.768  15.677  -1.639  0.00  0.00     0.213 C 
ATOM     17  O   UNL d   1      14.687  15.958  -2.413  0.00  0.00    -0.644 OA
ATOM     18  O   UNL d   1      15.004  16.189  -1.037  0.00  0.00    -0.644 OA
ENDBRANCH  15  16
ENDBRANCH  14  15
ENDBRANCH   1  14
TORSDOF 3
ENDMDL
MODEL 3
REMARK VINA RESULT:      26.4      1.748      2.972
REMARK  3 active torsions:
REMARK  status: ('A' for Active; 'I' for Inactive)
REMARK    1  A    between atoms: C_6  and  N_1 
REMARK    2  A    between atoms: C_7  and  C_6 
REMARK    3  A    between atoms: C_8  and  C_7 
ROOT
ATOM      1  N   UNL d   1      14.385  13.505  -2.236  0.00  0.00    -0.305 N 
ATOM      2  C   UNL d   1      13.952  13.117  -2.818  0.00  0.00     0.064 A 
ATOM      3  C   UNL d   1      14.643  13.115  -1.339  0.00  0.00     0.064 A 
ATOM      4  C   UNL d   1      13.894  12.451  -2.348  0.00  0.00     0.018 A 
ATOM      5  C   UNL d   1      14.239  12.444  -1.604  0.00  0.00     0.018 A 
ATOM      6  C   UNL d   1      14.990  13.121  -0.602  0.00  0.00     0.018 A 
ATOM      7  C   UNL d   1      13.603  13.123  -3.569  0.00  0.00     0.018 A 
ATOM      8  C   UNL d   1      13.487  11.779  -2.620  0.00  0.00     0.002 A 
ATOM      9  C   UNL d   1      14.186  11.779  -1.125  0.00  0.00     0.002 A 
ATOM     10  C   UNL d   1      14.538  11.785  -0.377  0.00  0.00     0.000 A 
ATOM     11  C   UNL d   1      13.196  12.459  -3.848  0.00  0.00     0.002 A 
ATOM     12  C   UNL d   1      14.938  12.455  -0.118  0.00  0.00     0.002 A 
ATOM     13  C   UNL d   1      13.142  11.786  -3.364  0.00  0.00     0.000 A 
ENDROOT
BRANCH   1  14
ATOM     14  C   UNL d   1      14.648  14.279  -2.366  0.00  0.00     0.086 C 
BRANCH  14  15
ATOM     15  C   UNL d   1      14.418  14.904  -1.878  0.00  0.00     0.089 C 
BRANCH  15  16
ATOM     16  C   UNL d   1      14.638  15.677  -2.074  0.00  0.00     0.213 C 
ATOM     17  O   UNL d   1      14.755  16.235  -1.475  0.00  0.00    -0.644 OA
ATOM     18  O   UNL d   1      14.741  15.892  -2.863  0.00  0.00    -0.644 OA
ENDBRANCH  15  16
ENDBRANCH  14  15
ENDBRANCH   1  14
TORSDOF 3
ENDMDL
