MODEL 1
REMARK VINA RESULT:      -3.4      0.000      0.000
REMARK  3 active torsions:
REMARK  status: ('A' for Active; 'I' for Inactive)
REMARK    1  A    between atoms: N_4  and  C_1 
REMARK       I    between atoms: C_7  and  N_4 
REMARK    2  A    between atoms: C_10  and  C_7 
REMARK    3  A    between atoms: O_16  and  C_15 
ROOT
ATOM      1  N   UNL d   1      33.241  21.077 -21.607  0.00  0.00    -0.183 NA
ATOM      2  C   UNL d   1      32.553  21.459 -21.350  0.00  0.00     0.281 C 
ATOM      3  O   UNL d   1      31.805  21.147 -21.554  0.00  0.00    -0.265 OA
ENDROOT
BRANCH   1   4
ATOM      4  C   UNL d   1      33.192  20.387 -22.067  0.00  0.00     0.197 A 
ATOM      5  N   UNL d   1      33.086  20.361 -22.892  0.00  0.00    -0.221 NA
ATOM      6  C   UNL d   1      33.068  19.564 -23.122  0.00  0.00     0.092 A 
ATOM      7  C   UNL d   1      32.978  19.207 -23.860  0.00  0.00     0.039 A 
ATOM      8  C   UNL d   1      33.164  19.095 -22.440  0.00  0.00     0.068 A 
ATOM      9  C   UNL d   1      32.984  18.374 -23.919  0.00  0.00     0.082 A 
ATOM     10  N   UNL d   1      33.079  17.915 -23.244  0.00  0.00    -0.301 N 
ATOM     11  C   UNL d   1      33.169  18.276 -22.508  0.00  0.00     0.088 A 
ATOM     12  C   UNL d   1      33.084  17.083 -23.307  0.00  0.00     0.100 C 
ATOM     13  S   UNL d   1      33.240  19.608 -21.794  0.00  0.00    -0.045 SA
ENDBRANCH   1   4
BRANCH   2  14
ATOM     14  C   UNL d   1      32.602  22.146 -20.893  0.00  0.00     0.060 A 
ATOM     15  C   UNL d   1      32.877  22.106 -20.119  0.00  0.00     0.029 A 
ATOM     16  C   UNL d   1      32.924  22.787 -19.669  0.00  0.00     0.094 A 
ATOM     17  C   UNL d   1      32.698  23.512 -19.988  0.00  0.00     0.024 A 
ATOM     18  C   UNL d   1      32.423  23.544 -20.766  0.00  0.00     0.002 A 
ATOM     19  C   UNL d   1      32.375  22.863 -21.216  0.00  0.00     0.005 A 
BRANCH  16  20
ATOM     20  O   UNL d   1      33.205  22.755 -18.875  0.00  0.00    -0.328 OA
ATOM     21  C   UNL d   1      32.969  23.322 -18.322  0.00  0.00     0.181 C 
ENDBRANCH  16  20
ENDBRANCH   2  14
TORSDOF 3
ENDMDL
MODEL 2
REMARK VINA RESULT:      -2.9      1.453      4.936
REMARK  3 active torsions:
REMARK  status: ('A' for Active; 'I' for Inactive)
REMARK    1  A    between atoms: N_4  and  C_1 
REMARK       I    between atoms: C_7  and  N_4 
REMARK    2  A    between atoms: C_10  and  C_7 
REMARK    3  A    between atoms: O_16  and  C_15 
ROOT
ATOM      1  N   UNL d   1      32.643  19.701 -22.027  0.00  0.00    -0.183 NA
ATOM      2  C   UNL d   1      32.938  19.720 -22.801  0.00  0.00     0.281 C 
ATOM      3  O   UNL d   1      33.241  20.435 -23.110  0.00  0.00    -0.265 OA
ENDROOT
BRANCH   1   4
ATOM      4  C   UNL d   1      32.646  20.387 -21.558  0.00  0.00     0.197 A 
ATOM      5  N   UNL d   1      32.160  21.053 -21.671  0.00  0.00    -0.221 NA
ATOM      6  C   UNL d   1      32.345  21.607 -21.081  0.00  0.00     0.092 A 
ATOM      7  C   UNL d   1      32.046  22.358 -20.919  0.00  0.00     0.039 A 
ATOM      8  C   UNL d   1      32.946  21.284 -20.602  0.00  0.00     0.068 A 
ATOM      9  C   UNL d   1      32.349  22.792 -20.272  0.00  0.00     0.082 A 
ATOM     10  N   UNL d   1      32.941  22.470 -19.803  0.00  0.00    -0.301 N 
ATOM     11  C   UNL d   1      33.237  21.718 -19.968  0.00  0.00     0.088 A 
ATOM     12  C   UNL d   1      33.241  22.907 -19.158  0.00  0.00     0.100 C 
ATOM     13  S   UNL d   1      33.126  20.532 -20.901  0.00  0.00    -0.045 SA
ENDBRANCH   1   4
BRANCH   2  14
ATOM     14  C   UNL d   1      32.934  19.038 -23.267  0.00  0.00     0.060 A 
ATOM     15  C   UNL d   1      32.623  18.338 -22.969  0.00  0.00     0.029 A 
ATOM     16  C   UNL d   1      32.620  17.664 -23.432  0.00  0.00     0.094 A 
ATOM     17  C   UNL d   1      32.928  17.685 -24.197  0.00  0.00     0.024 A 
ATOM     18  C   UNL d   1      33.238  18.392 -24.489  0.00  0.00     0.002 A 
ATOM     19  C   UNL d   1      33.241  19.066 -24.025  0.00  0.00     0.005 A 
BRANCH  16  20
ATOM     20  O   UNL d   1      32.303  16.942 -23.134  0.00  0.00    -0.328 OA
ATOM     21  C   UNL d   1      31.729  16.528 -23.559  0.00  0.00     0.181 C 
ENDBRANCH  16  20
ENDBRANCH   2  14
TORSDOF 3
ENDMDL
MODEL 3
REMARK VINA RESULT:      -2.4      1.794      5.293
REMARK  3 active torsions:
REMARK  status: ('A' for Active; 'I' for Inactive)
REMARK    1  A    between atoms: N_4  and  C_1 
REMARK       I    between atoms: C_7  and  N_4 
REMARK    2  A    between atoms: C_10  and  C_7 
REMARK    3  A    between atoms: O_16  and  C_15 
ROOT
ATOM      1  N   UNL d   1      33.241  18.539 -22.689  0.00  0.00    -0.183 NA
ATOM      2  C   UNL d   1      32.697  18.301 -23.267  0.00  0.00     0.281 C 
ATOM      3  O   UNL d   1      32.142  18.851 -23.564  0.00  0.00    -0.265 OA
ENDROOT
BRANCH   1   4
ATOM      4  C   UNL d   1      33.237  19.319 -22.403  0.00  0.00     0.197 A 
ATOM      5  N   UNL d   1      33.241  20.007 -22.873  0.00  0.00    -0.221 NA
ATOM      6  C   UNL d   1      33.235  20.663 -22.364  0.00  0.00     0.092 A 
ATOM      7  C   UNL d   1      33.235  21.474 -22.514  0.00  0.00     0.039 A 
ATOM      8  C   UNL d   1      33.226  20.383 -21.580  0.00  0.00     0.068 A 
ATOM      9  C   UNL d   1      33.228  22.012 -21.874  0.00  0.00     0.082 A 
ATOM     10  N   UNL d   1      33.220  21.730 -21.102  0.00  0.00    -0.301 N 
ATOM     11  C   UNL d   1      33.219  20.918 -20.957  0.00  0.00     0.088 A 
ATOM     12  C   UNL d   1      33.212  22.271 -20.465  0.00  0.00     0.100 C 
ATOM     13  S   UNL d   1      33.228  19.555 -21.611  0.00  0.00    -0.045 SA
ENDBRANCH   1   4
BRANCH   2  14
ATOM     14  C   UNL d   1      32.702  17.526 -23.551  0.00  0.00     0.060 A 
ATOM     15  C   UNL d   1      32.193  16.967 -23.228  0.00  0.00     0.029 A 
ATOM     16  C   UNL d   1      32.199  16.199 -23.511  0.00  0.00     0.094 A 
ATOM     17  C   UNL d   1      32.714  15.985 -24.118  0.00  0.00     0.024 A 
ATOM     18  C   UNL d   1      33.222  16.552 -24.437  0.00  0.00     0.002 A 
ATOM     19  C   UNL d   1      33.216  17.320 -24.154  0.00  0.00     0.005 A 
BRANCH  16  20
ATOM     20  O   UNL d   1      31.680  15.620 -23.186  0.00  0.00    -0.328 OA
ATOM     21  C   UNL d   1      30.915  15.525 -23.485  0.00  0.00     0.181 C 
ENDBRANCH  16  20
ENDBRANCH   2  14
TORSDOF 3
ENDMDL
MODEL 4
REMARK VINA RESULT:      -1.5      1.622      4.935
REMARK  3 active torsions:
REMARK  status: ('A' for Active; 'I' for Inactive)
REMARK    1  A    between atoms: N_4  and  C_1 
REMARK       I    between atoms: C_7  and  N_4 
REMARK    2  A    between atoms: C_10  and  C_7 
REMARK    3  A    between atoms: O_16  and  C_15 
ROOT
ATOM      1  N   UNL d   1      33.241  21.349 -20.800  0.00  0.00    -0.183 NA
ATOM      2  C   UNL d   1      32.677  21.220 -21.392  0.00  0.00     0.281 C 
ATOM      3  O   UNL d   1      31.925  21.581 -21.333  0.00  0.00    -0.265 OA
ENDROOT
BRANCH   1   4
ATOM      4  C   UNL d   1      33.064  21.834 -20.148  0.00  0.00     0.197 A 
ATOM      5  N   UNL d   1      32.674  22.568 -20.183  0.00  0.00    -0.221 NA
ATOM      6  C   UNL d   1      32.612  22.862 -19.410  0.00  0.00     0.092 A 
ATOM      7  C   UNL d   1      32.283  23.556 -19.110  0.00  0.00     0.039 A 
ATOM      8  C   UNL d   1      32.965  22.310 -18.894  0.00  0.00     0.068 A 
ATOM      9  C   UNL d   1      32.305  23.702 -18.288  0.00  0.00     0.082 A 
ATOM     10  N   UNL d   1      32.654  23.154 -17.783  0.00  0.00    -0.301 N 
ATOM     11  C   UNL d   1      32.982  22.461 -18.087  0.00  0.00     0.088 A 
ATOM     12  C   UNL d   1      32.675  23.304 -16.962  0.00  0.00     0.100 C 
ATOM     13  S   UNL d   1      33.241  21.680 -19.356  0.00  0.00    -0.045 SA
ENDBRANCH   1   4
BRANCH   2  14
ATOM     14  C   UNL d   1      32.853  20.738 -22.039  0.00  0.00     0.060 A 
ATOM     15  C   UNL d   1      32.881  19.921 -21.948  0.00  0.00     0.029 A 
ATOM     16  C   UNL d   1      33.055  19.445 -22.591  0.00  0.00     0.094 A 
ATOM     17  C   UNL d   1      33.204  19.783 -23.328  0.00  0.00     0.024 A 
ATOM     18  C   UNL d   1      33.174  20.603 -23.411  0.00  0.00     0.002 A 
ATOM     19  C   UNL d   1      32.999  21.079 -22.768  0.00  0.00     0.005 A 
BRANCH  16  20
ATOM     20  O   UNL d   1      33.086  18.607 -22.505  0.00  0.00    -0.328 OA
ATOM     21  C   UNL d   1      32.614  18.120 -22.977  0.00  0.00     0.181 C 
ENDBRANCH  16  20
ENDBRANCH   2  14
TORSDOF 3
ENDMDL
