MODEL 1
REMARK VINA RESULT:      -3.0      0.000      0.000
REMARK  4 active torsions:
REMARK  status: ('A' for Active; 'I' for Inactive)
REMARK       I    between atoms: N_2  and  C_1 
REMARK    1  A    between atoms: C_4  and  C_1 
REMARK    2  A    between atoms: C_14  and  N_3 
REMARK    3  A    between atoms: C_5  and  C_6 
REMARK    4  A    between atoms: C_17  and  C_14 
ROOT
ATOM      1  C   UNL d   1      32.110  18.444 -24.343  0.00  0.00     0.265 C 
ATOM      2  N   UNL d   1      32.392  18.859 -23.698  0.00  0.00    -0.269 N 
ATOM      3  N   UNL d   1      32.963  19.699 -22.406  0.00  0.00    -0.300 N 
ATOM      4  O   UNL d   1      32.389  18.623 -25.095  0.00  0.00    -0.267 OA
ATOM      5  C   UNL d   1      32.120  18.690 -22.944  0.00  0.00     0.102 A 
ATOM      6  C   UNL d   1      32.959  19.460 -23.807  0.00  0.00     0.102 A 
ATOM      7  C   UNL d   1      33.241  19.876 -23.160  0.00  0.00     0.100 A 
ATOM      8  C   UNL d   1      32.410  19.114 -22.299  0.00  0.00     0.100 A 
ENDROOT
BRANCH   1   9
ATOM      9  C   UNL d   1      31.542  17.843 -24.233  0.00  0.00     0.057 A 
ATOM     10  C   UNL d   1      30.760  17.986 -24.411  0.00  0.00     0.004 A 
ATOM     11  C   UNL d   1      30.192  17.385 -24.302  0.00  0.00    -0.004 A 
ATOM     12  C   UNL d   1      30.421  16.657 -24.017  0.00  0.00    -0.023 A 
ATOM     13  C   UNL d   1      31.210  16.508 -23.835  0.00  0.00    -0.004 A 
ATOM     14  C   UNL d   1      31.778  17.109 -23.945  0.00  0.00     0.004 A 
BRANCH  12  15
ATOM     15  C   UNL d   1      29.862  16.065 -23.908  0.00  0.00     0.019 C 
ATOM     16  C   UNL d   1      29.384  16.412 -24.484  0.00  0.00     0.004 C 
ATOM     17  C   UNL d   1      29.299  15.469 -23.800  0.00  0.00     0.004 C 
ATOM     18  C   UNL d   1      30.345  15.714 -23.326  0.00  0.00     0.004 C 
ENDBRANCH  12  15
ENDBRANCH   1   9
BRANCH   3  19
ATOM     19  C   UNL d   1      33.241  20.112 -21.753  0.00  0.00     0.080 C 
BRANCH  19  20
ATOM     20  C   UNL d   1      32.961  20.864 -21.586  0.00  0.00     0.018 A 
ATOM     21  C   UNL d   1      32.435  20.998 -20.941  0.00  0.00     0.002 A 
ATOM     22  C   UNL d   1      32.163  21.757 -20.787  0.00  0.00     0.000 A 
ATOM     23  C   UNL d   1      32.406  22.398 -21.265  0.00  0.00     0.000 A 
ATOM     24  C   UNL d   1      32.925  22.263 -21.900  0.00  0.00     0.000 A 
ATOM     25  C   UNL d   1      33.201  21.499 -22.059  0.00  0.00     0.002 A 
ENDBRANCH  19  20
ENDBRANCH   3  19
TORSDOF 4
ENDMDL
MODEL 2
REMARK VINA RESULT:      -2.7      1.064      1.830
REMARK  4 active torsions:
REMARK  status: ('A' for Active; 'I' for Inactive)
REMARK       I    between atoms: N_2  and  C_1 
REMARK    1  A    between atoms: C_4  and  C_1 
REMARK    2  A    between atoms: C_14  and  N_3 
REMARK    3  A    between atoms: C_5  and  C_6 
REMARK    4  A    between atoms: C_17  and  C_14 
ROOT
ATOM      1  C   UNL d   1      31.841  16.371 -24.011  0.00  0.00     0.265 C 
ATOM      2  N   UNL d   1      32.133  17.120 -23.863  0.00  0.00    -0.269 N 
ATOM      3  N   UNL d   1      32.727  18.623 -23.566  0.00  0.00    -0.300 N 
ATOM      4  O   UNL d   1      32.357  15.770 -24.233  0.00  0.00    -0.267 OA
ATOM      5  C   UNL d   1      31.628  17.725 -23.641  0.00  0.00     0.102 A 
ATOM      6  C   UNL d   1      32.950  17.269 -23.938  0.00  0.00     0.102 A 
ATOM      7  C   UNL d   1      33.241  18.019 -23.789  0.00  0.00     0.100 A 
ATOM      8  C   UNL d   1      31.931  18.478 -23.493  0.00  0.00     0.100 A 
ENDROOT
BRANCH   1   9
ATOM      9  C   UNL d   1      31.024  16.222 -23.936  0.00  0.00     0.057 A 
ATOM     10  C   UNL d   1      30.738  15.852 -23.269  0.00  0.00     0.004 A 
ATOM     11  C   UNL d   1      29.921  15.703 -23.194  0.00  0.00    -0.004 A 
ATOM     12  C   UNL d   1      29.411  15.928 -23.787  0.00  0.00    -0.023 A 
ATOM     13  C   UNL d   1      29.695  16.302 -24.464  0.00  0.00    -0.004 A 
ATOM     14  C   UNL d   1      30.512  16.451 -24.539  0.00  0.00     0.004 A 
BRANCH  12  15
ATOM     15  C   UNL d   1      28.606  15.781 -23.713  0.00  0.00     0.019 C 
ATOM     16  C   UNL d   1      28.525  15.814 -24.533  0.00  0.00     0.004 C 
ATOM     17  C   UNL d   1      27.796  15.633 -23.639  0.00  0.00     0.004 C 
ATOM     18  C   UNL d   1      28.688  15.748 -22.884  0.00  0.00     0.004 C 
ENDBRANCH  12  15
ENDBRANCH   1   9
BRANCH   3  19
ATOM     19  C   UNL d   1      33.012  19.378 -23.416  0.00  0.00     0.080 C 
BRANCH  19  20
ATOM     20  C   UNL d   1      32.951  19.704 -22.666  0.00  0.00     0.018 A 
ATOM     21  C   UNL d   1      33.241  19.294 -21.990  0.00  0.00     0.002 A 
ATOM     22  C   UNL d   1      33.172  19.635 -21.245  0.00  0.00     0.000 A 
ATOM     23  C   UNL d   1      32.818  20.385 -21.156  0.00  0.00     0.000 A 
ATOM     24  C   UNL d   1      32.533  20.788 -21.825  0.00  0.00     0.000 A 
ATOM     25  C   UNL d   1      32.600  20.448 -22.577  0.00  0.00     0.002 A 
ENDBRANCH  19  20
ENDBRANCH   3  19
TORSDOF 4
ENDMDL
MODEL 3
REMARK VINA RESULT:      -2.2      1.105      1.882
REMARK  4 active torsions:
REMARK  status: ('A' for Active; 'I' for Inactive)
REMARK       I    between atoms: N_2  and  C_1 
REMARK    1  A    between atoms: C_4  and  C_1 
REMARK    2  A    between atoms: C_14  and  N_3 
REMARK    3  A    between atoms: C_5  and  C_6 
REMARK    4  A    between atoms: C_17  and  C_14 
ROOT
ATOM      1  C   UNL d   1      32.945  19.449 -23.767  0.00  0.00     0.265 C 
ATOM      2  N   UNL d   1      32.992  19.937 -23.114  0.00  0.00    -0.269 N 
ATOM      3  N   UNL d   1      33.088  20.927 -21.805  0.00  0.00    -0.300 N 
ATOM      4  O   UNL d   1      33.087  19.757 -24.517  0.00  0.00    -0.267 OA
ATOM      5  C   UNL d   1      32.853  19.642 -22.364  0.00  0.00     0.102 A 
ATOM      6  C   UNL d   1      33.182  20.743 -23.212  0.00  0.00     0.102 A 
ATOM      7  C   UNL d   1      33.229  21.232 -22.557  0.00  0.00     0.100 A 
ATOM      8  C   UNL d   1      32.902  20.142 -21.710  0.00  0.00     0.100 A 
ENDROOT
BRANCH   1   9
ATOM      9  C   UNL d   1      32.754  18.643 -23.669  0.00  0.00     0.057 A 
ATOM     10  C   UNL d   1      33.241  18.161 -23.228  0.00  0.00     0.004 A 
ATOM     11  C   UNL d   1      33.050  17.355 -23.130  0.00  0.00    -0.004 A 
ATOM     12  C   UNL d   1      32.378  17.052 -23.476  0.00  0.00    -0.023 A 
ATOM     13  C   UNL d   1      31.884  17.535 -23.923  0.00  0.00    -0.004 A 
ATOM     14  C   UNL d   1      32.074  18.341 -24.021  0.00  0.00     0.004 A 
BRANCH  12  15
ATOM     15  C   UNL d   1      32.190  16.258 -23.379  0.00  0.00     0.019 C 
ATOM     16  C   UNL d   1      31.394  16.432 -23.500  0.00  0.00     0.004 C 
ATOM     17  C   UNL d   1      32.001  15.459 -23.282  0.00  0.00     0.004 C 
ATOM     18  C   UNL d   1      32.996  16.082 -23.257  0.00  0.00     0.004 C 
ENDBRANCH  12  15
ENDBRANCH   1   9
BRANCH   3  19
ATOM     19  C   UNL d   1      33.133  21.411 -21.145  0.00  0.00     0.080 C 
BRANCH  19  20
ATOM     20  C   UNL d   1      32.696  22.105 -21.106  0.00  0.00     0.018 A 
ATOM     21  C   UNL d   1      32.679  22.643 -21.754  0.00  0.00     0.002 A 
ATOM     22  C   UNL d   1      32.236  23.333 -21.699  0.00  0.00     0.000 A 
ATOM     23  C   UNL d   1      31.804  23.504 -21.005  0.00  0.00     0.000 A 
ATOM     24  C   UNL d   1      31.823  22.971 -20.367  0.00  0.00     0.000 A 
ATOM     25  C   UNL d   1      32.268  22.274 -20.418  0.00  0.00     0.002 A 
ENDBRANCH  19  20
ENDBRANCH   3  19
TORSDOF 4
ENDMDL
MODEL 4
REMARK VINA RESULT:      -0.1      2.164      6.138
REMARK  4 active torsions:
REMARK  status: ('A' for Active; 'I' for Inactive)
REMARK       I    between atoms: N_2  and  C_1 
REMARK    1  A    between atoms: C_4  and  C_1 
REMARK    2  A    between atoms: C_14  and  N_3 
REMARK    3  A    between atoms: C_5  and  C_6 
REMARK    4  A    between atoms: C_17  and  C_14 
ROOT
ATOM      1  C   UNL d   1      32.599  22.572 -21.060  0.00  0.00     0.265 C 
ATOM      2  N   UNL d   1      32.755  21.813 -21.320  0.00  0.00    -0.269 N 
ATOM      3  N   UNL d   1      33.067  20.290 -21.853  0.00  0.00    -0.300 N 
ATOM      4  O   UNL d   1      32.454  23.168 -21.607  0.00  0.00    -0.267 OA
ATOM      5  C   UNL d   1      32.900  21.212 -20.785  0.00  0.00     0.102 A 
ATOM      6  C   UNL d   1      32.765  21.650 -22.138  0.00  0.00     0.102 A 
ATOM      7  C   UNL d   1      32.921  20.890 -22.399  0.00  0.00     0.100 A 
ATOM      8  C   UNL d   1      33.056  20.449 -21.057  0.00  0.00     0.100 A 
ENDROOT
BRANCH   1   9
ATOM      9  C   UNL d   1      32.588  22.735 -20.242  0.00  0.00     0.057 A 
ATOM     10  C   UNL d   1      33.178  23.189 -19.911  0.00  0.00     0.004 A 
ATOM     11  C   UNL d   1      33.167  23.352 -19.093  0.00  0.00    -0.004 A 
ATOM     12  C   UNL d   1      32.568  23.057 -18.628  0.00  0.00    -0.023 A 
ATOM     13  C   UNL d   1      31.970  22.597 -18.958  0.00  0.00    -0.004 A 
ATOM     14  C   UNL d   1      31.980  22.434 -19.776  0.00  0.00     0.004 A 
BRANCH  12  15
ATOM     15  C   UNL d   1      32.557  23.218 -17.822  0.00  0.00     0.019 C 
ATOM     16  C   UNL d   1      33.241  22.769 -17.723  0.00  0.00     0.004 C 
ATOM     17  C   UNL d   1      32.547  23.379 -17.011  0.00  0.00     0.004 C 
ATOM     18  C   UNL d   1      31.865  23.672 -17.921  0.00  0.00     0.004 C 
ENDBRANCH  12  15
ENDBRANCH   1   9
BRANCH   3  19
ATOM     19  C   UNL d   1      33.224  19.526 -22.107  0.00  0.00     0.080 C 
BRANCH  19  20
ATOM     20  C   UNL d   1      32.794  19.195 -22.723  0.00  0.00     0.018 A 
ATOM     21  C   UNL d   1      33.003  19.341 -23.526  0.00  0.00     0.002 A 
ATOM     22  C   UNL d   1      32.563  19.003 -24.130  0.00  0.00     0.000 A 
ATOM     23  C   UNL d   1      31.909  18.514 -23.954  0.00  0.00     0.000 A 
ATOM     24  C   UNL d   1      31.704  18.371 -23.161  0.00  0.00     0.000 A 
ATOM     25  C   UNL d   1      32.146  18.711 -22.548  0.00  0.00     0.002 A 
ENDBRANCH  19  20
ENDBRANCH   3  19
TORSDOF 4
ENDMDL
