MODEL 1
REMARK VINA RESULT:      -2.8      0.000      0.000
REMARK  5 active torsions:
REMARK  status: ('A' for Active; 'I' for Inactive)
REMARK    1  A    between atoms: C_7  and  C_1 
REMARK       I    between atoms: C_3  and  N_8 
REMARK       I    between atoms: N_10  and  C_3 
REMARK    2  A    between atoms: N_8  and  C_6 
REMARK    3  A    between atoms: O_14  and  C_7 
REMARK    4  A    between atoms: C_13  and  N_10 
REMARK    5  A    between atoms: C_23  and  O_14 
ROOT
ATOM      1  C   UNL d   1     -42.073-122.831 -49.405  0.00  0.00     0.083 A 
ATOM      2  N   UNL d   1     -43.399-122.570 -49.852  0.00  0.00    -0.244 NA
ATOM      3  C   UNL d   1     -42.884-122.899 -49.306  0.00  0.00     0.087 A 
ATOM      4  C   UNL d   1     -41.771-122.435 -50.051  0.00  0.00     0.028 A 
ATOM      5  C   UNL d   1     -42.281-122.099 -50.609  0.00  0.00     0.104 A 
ATOM      6  C   UNL d   1     -43.092-122.166 -50.510  0.00  0.00     0.099 A 
ATOM      7  C   UNL d   1     -43.191-123.303 -48.648  0.00  0.00     0.021 C 
ATOM      8  C   UNL d   1     -43.609-121.831 -51.068  0.00  0.00     0.022 C 
ENDROOT
BRANCH   5   9
ATOM      9  N   UNL d   1     -41.975-121.695 -51.267  0.00  0.00    -0.189 NA
ATOM     10  C   UNL d   1     -41.940-122.061 -51.999  0.00  0.00     0.369 C 
ATOM     11  N   UNL d   1     -41.637-121.668 -52.658  0.00  0.00    -0.191 NA
ATOM     12  O   UNL d   1     -42.213-122.842 -52.086  0.00  0.00    -0.242 OA
BRANCH  11  13
ATOM     13  C   UNL d   1     -41.604-122.034 -53.383  0.00  0.00     0.086 A 
ATOM     14  C   UNL d   1     -42.016-121.716 -54.023  0.00  0.00     0.020 A 
ATOM     15  C   UNL d   1     -41.980-122.094 -54.763  0.00  0.00     0.008 A 
ATOM     16  C   UNL d   1     -41.534-122.782 -54.855  0.00  0.00     0.035 A 
ATOM     17  C   UNL d   1     -41.123-123.099 -54.214  0.00  0.00     0.008 A 
ATOM     18 BR   UNL d   1     -41.501-123.148 -55.580  0.00  0.00    -0.049 Br
ATOM     19  C   UNL d   1     -41.155-122.729 -53.476  0.00  0.00     0.020 A 
ENDBRANCH  11  13
ENDBRANCH   5   9
BRANCH   1  20
ATOM     20  C   UNL d   1     -41.564-123.163 -48.852  0.00  0.00     0.302 C 
ATOM     21  O   UNL d   1     -41.123-123.817 -49.049  0.00  0.00    -0.259 OA
BRANCH  20  22
ATOM     22  O   UNL d   1     -41.504-122.836 -48.113  0.00  0.00    -0.271 OA
BRANCH  22  23
ATOM     23  C   UNL d   1     -41.275-123.303 -47.483  0.00  0.00     0.126 C 
ATOM     24  C   UNL d   1     -41.165-122.967 -46.741  0.00  0.00     0.029 C 
ENDBRANCH  22  23
ENDBRANCH  20  22
ENDBRANCH   1  20
TORSDOF 5
ENDMDL
MODEL 2
REMARK VINA RESULT:      -1.8      2.082      5.326
REMARK  5 active torsions:
REMARK  status: ('A' for Active; 'I' for Inactive)
REMARK    1  A    between atoms: C_7  and  C_1 
REMARK       I    between atoms: C_3  and  N_8 
REMARK       I    between atoms: N_10  and  C_3 
REMARK    2  A    between atoms: N_8  and  C_6 
REMARK    3  A    between atoms: O_14  and  C_7 
REMARK    4  A    between atoms: C_13  and  N_10 
REMARK    5  A    between atoms: C_23  and  O_14 
ROOT
ATOM      1  C   UNL d   1     -42.113-122.396 -54.248  0.00  0.00     0.083 A 
ATOM      2  N   UNL d   1     -41.658-123.670 -53.807  0.00  0.00    -0.244 NA
ATOM      3  C   UNL d   1     -41.983-123.193 -54.388  0.00  0.00     0.087 A 
ATOM      4  C   UNL d   1     -41.918-122.069 -53.526  0.00  0.00     0.028 A 
ATOM      5  C   UNL d   1     -41.588-122.541 -52.931  0.00  0.00     0.104 A 
ATOM      6  C   UNL d   1     -41.459-123.339 -53.071  0.00  0.00     0.099 A 
ATOM      7  C   UNL d   1     -42.183-123.524 -55.124  0.00  0.00     0.021 C 
ATOM      8  C   UNL d   1     -41.128-123.817 -52.478  0.00  0.00     0.022 C 
ENDROOT
BRANCH   5   9
ATOM      9  N   UNL d   1     -41.389-122.211 -52.196  0.00  0.00    -0.189 NA
ATOM     10  C   UNL d   1     -41.695-122.524 -51.504  0.00  0.00     0.369 C 
ATOM     11  N   UNL d   1     -41.503-122.203 -50.769  0.00  0.00    -0.191 NA
ATOM     12  O   UNL d   1     -42.208-123.179 -51.536  0.00  0.00    -0.242 OA
BRANCH  11  13
ATOM     13  C   UNL d   1     -41.808-122.517 -50.084  0.00  0.00     0.086 A 
ATOM     14  C   UNL d   1     -42.582-122.338 -49.859  0.00  0.00     0.020 A 
ATOM     15  C   UNL d   1     -42.890-122.661 -49.158  0.00  0.00     0.008 A 
ATOM     16  C   UNL d   1     -42.424-123.157 -48.691  0.00  0.00     0.035 A 
ATOM     17  C   UNL d   1     -41.651-123.335 -48.916  0.00  0.00     0.008 A 
ATOM     18 BR   UNL d   1     -42.729-123.471 -48.005  0.00  0.00    -0.049 Br
ATOM     19  C   UNL d   1     -41.339-123.017 -49.613  0.00  0.00     0.020 A 
ENDBRANCH  11  13
ENDBRANCH   5   9
BRANCH   1  20
ATOM     20  C   UNL d   1     -42.440-121.924 -54.836  0.00  0.00     0.302 C 
ATOM     21  O   UNL d   1     -43.242-121.794 -54.853  0.00  0.00    -0.259 OA
BRANCH  20  22
ATOM     22  O   UNL d   1     -41.959-121.590 -55.397  0.00  0.00    -0.271 OA
BRANCH  22  23
ATOM     23  C   UNL d   1     -42.272-121.382 -56.123  0.00  0.00     0.126 C 
ATOM     24  C   UNL d   1     -41.827-120.932 -56.648  0.00  0.00     0.029 C 
ENDBRANCH  22  23
ENDBRANCH  20  22
ENDBRANCH   1  20
TORSDOF 5
ENDMDL
MODEL 3
REMARK VINA RESULT:      -1.0      1.097      1.442
REMARK  5 active torsions:
REMARK  status: ('A' for Active; 'I' for Inactive)
REMARK    1  A    between atoms: C_7  and  C_1 
REMARK       I    between atoms: C_3  and  N_8 
REMARK       I    between atoms: N_10  and  C_3 
REMARK    2  A    between atoms: N_8  and  C_6 
REMARK    3  A    between atoms: O_14  and  C_7 
REMARK    4  A    between atoms: C_13  and  N_10 
REMARK    5  A    between atoms: C_23  and  O_14 
ROOT
ATOM      1  C   UNL d   1     -42.233-122.855 -49.964  0.00  0.00     0.083 A 
ATOM      2  N   UNL d   1     -41.925-121.472 -50.100  0.00  0.00    -0.244 NA
ATOM      3  C   UNL d   1     -42.267-122.087 -49.680  0.00  0.00     0.087 A 
ATOM      4  C   UNL d   1     -41.856-123.015 -50.671  0.00  0.00     0.028 A 
ATOM      5  C   UNL d   1     -41.507-122.401 -51.103  0.00  0.00     0.104 A 
ATOM      6  C   UNL d   1     -41.542-121.633 -50.819  0.00  0.00     0.099 A 
ATOM      7  C   UNL d   1     -42.651-121.926 -48.961  0.00  0.00     0.021 C 
ATOM      8  C   UNL d   1     -41.193-121.014 -51.250  0.00  0.00     0.022 C 
ENDROOT
BRANCH   5   9
ATOM      9  N   UNL d   1     -41.123-122.562 -51.822  0.00  0.00    -0.189 NA
ATOM     10  C   UNL d   1     -41.509-122.440 -52.534  0.00  0.00     0.369 C 
ATOM     11  N   UNL d   1     -41.137-122.597 -53.253  0.00  0.00    -0.191 NA
ATOM     12  O   UNL d   1     -42.290-122.153 -52.540  0.00  0.00    -0.242 OA
BRANCH  11  13
ATOM     13  C   UNL d   1     -41.523-122.474 -53.959  0.00  0.00     0.086 A 
ATOM     14  C   UNL d   1     -41.723-123.118 -54.434  0.00  0.00     0.020 A 
ATOM     15  C   UNL d   1     -42.118-122.988 -55.154  0.00  0.00     0.008 A 
ATOM     16  C   UNL d   1     -42.306-122.220 -55.390  0.00  0.00     0.035 A 
ATOM     17  C   UNL d   1     -42.105-121.578 -54.915  0.00  0.00     0.008 A 
ATOM     18 BR   UNL d   1     -42.692-122.098 -56.096  0.00  0.00    -0.049 Br
ATOM     19  C   UNL d   1     -41.713-121.700 -54.197  0.00  0.00     0.020 A 
ENDBRANCH  11  13
ENDBRANCH   5   9
BRANCH   1  20
ATOM     20  C   UNL d   1     -42.578-123.466 -49.537  0.00  0.00     0.302 C 
ATOM     21  O   UNL d   1     -43.280-123.791 -49.788  0.00  0.00    -0.259 OA
BRANCH  20  22
ATOM     22  O   UNL d   1     -42.216-123.742 -48.866  0.00  0.00    -0.271 OA
BRANCH  22  23
ATOM     23  C   UNL d   1     -42.648-123.813 -48.176  0.00  0.00     0.126 C 
ATOM     24  C   UNL d   1     -42.263-123.817 -47.449  0.00  0.00     0.029 C 
ENDBRANCH  22  23
ENDBRANCH  20  22
ENDBRANCH   1  20
TORSDOF 5
ENDMDL
MODEL 4
REMARK VINA RESULT:       0.1      2.163      5.134
REMARK  5 active torsions:
REMARK  status: ('A' for Active; 'I' for Inactive)
REMARK    1  A    between atoms: C_7  and  C_1 
REMARK       I    between atoms: C_3  and  N_8 
REMARK       I    between atoms: N_10  and  C_3 
REMARK    2  A    between atoms: N_8  and  C_6 
REMARK    3  A    between atoms: O_14  and  C_7 
REMARK    4  A    between atoms: C_13  and  N_10 
REMARK    5  A    between atoms: C_23  and  O_14 
ROOT
ATOM      1  C   UNL d   1     -41.791-122.103 -53.194  0.00  0.00     0.083 A 
ATOM      2  N   UNL d   1     -41.572-121.020 -52.297  0.00  0.00    -0.244 NA
ATOM      3  C   UNL d   1     -41.791-121.299 -53.035  0.00  0.00     0.087 A 
ATOM      4  C   UNL d   1     -41.570-122.635 -52.614  0.00  0.00     0.028 A 
ATOM      5  C   UNL d   1     -41.347-122.364 -51.865  0.00  0.00     0.104 A 
ATOM      6  C   UNL d   1     -41.347-121.560 -51.707  0.00  0.00     0.099 A 
ATOM      7  C   UNL d   1     -42.015-120.759 -53.625  0.00  0.00     0.021 C 
ATOM      8  C   UNL d   1     -41.124-121.283 -50.956  0.00  0.00     0.022 C 
ENDROOT
BRANCH   5   9
ATOM      9  N   UNL d   1     -41.123-122.904 -51.275  0.00  0.00    -0.189 NA
ATOM     10  C   UNL d   1     -41.563-122.974 -50.588  0.00  0.00     0.369 C 
ATOM     11  N   UNL d   1     -41.348-123.507 -49.997  0.00  0.00    -0.191 NA
ATOM     12  O   UNL d   1     -42.239-122.502 -50.479  0.00  0.00    -0.242 OA
BRANCH  11  13
ATOM     13  C   UNL d   1     -41.788-123.574 -49.315  0.00  0.00     0.086 A 
ATOM     14  C   UNL d   1     -41.427-123.466 -48.581  0.00  0.00     0.020 A 
ATOM     15  C   UNL d   1     -41.880-123.535 -47.888  0.00  0.00     0.008 A 
ATOM     16  C   UNL d   1     -42.685-123.710 -47.935  0.00  0.00     0.035 A 
ATOM     17  C   UNL d   1     -43.045-123.818 -48.669  0.00  0.00     0.008 A 
ATOM     18 BR   UNL d   1     -43.124-123.777 -47.254  0.00  0.00    -0.049 Br
ATOM     19  C   UNL d   1     -42.600-123.750 -49.363  0.00  0.00     0.020 A 
ENDBRANCH  11  13
ENDBRANCH   5   9
BRANCH   1  20
ATOM     20  C   UNL d   1     -42.012-122.375 -53.937  0.00  0.00     0.302 C 
ATOM     21  O   UNL d   1     -42.717-122.769 -54.031  0.00  0.00    -0.259 OA
BRANCH  20  22
ATOM     22  O   UNL d   1     -41.525-122.249 -54.573  0.00  0.00    -0.271 OA
BRANCH  22  23
ATOM     23  C   UNL d   1     -41.317-122.877 -55.052  0.00  0.00     0.126 C 
ATOM     24  C   UNL d   1     -41.273-122.774 -55.866  0.00  0.00     0.029 C 
ENDBRANCH  22  23
ENDBRANCH  20  22
ENDBRANCH   1  20
TORSDOF 5
ENDMDL
