MODEL 1
REMARK VINA RESULT:      -7.0      0.000      0.000
REMARK  4 active torsions:
REMARK  status: ('A' for Active; 'I' for Inactive)
REMARK    1  A    between atoms: C_9  and  N_2 
REMARK    2  A    between atoms: C_7  and  O_10 
REMARK    3  A    between atoms: C_11  and  C_9 
REMARK    4  A    between atoms: O_10  and  C_11 
ROOT
ATOM      1  C   UNL d   1     -47.084  11.780  23.418  0.00  0.00     0.378 A 
ATOM      2  N   UNL d   1     -47.353  12.567  23.373  0.00  0.00    -0.249 N 
ATOM      3  O   UNL d   1     -46.304  11.758  23.133  0.00  0.00    -0.258 OA
ATOM      4  C   UNL d   1     -46.740  13.026  23.061  0.00  0.00     0.092 A 
ATOM      5  C   UNL d   1     -46.093  12.525  22.914  0.00  0.00     0.121 A 
ATOM      6  O   UNL d   1     -47.523  11.144  23.698  0.00  0.00    -0.237 OA
ATOM      7  C   UNL d   1     -46.686  13.834  22.893  0.00  0.00     0.020 A 
ATOM      8  C   UNL d   1     -45.394  12.845  22.596  0.00  0.00     0.026 A 
ATOM      9  C   UNL d   1     -45.987  14.140  22.577  0.00  0.00     0.002 A 
ATOM     10  C   UNL d   1     -45.345  13.649  22.430  0.00  0.00     0.002 A 
ENDROOT
BRANCH   2  11
ATOM     11  C   UNL d   1     -48.088  12.878  23.588  0.00  0.00     0.112 C 
BRANCH  11  12
ATOM     12  C   UNL d   1     -48.710  12.856  23.058  0.00  0.00     0.142 C 
BRANCH  12  13
ATOM     13  O   UNL d   1     -49.417  13.240  23.239  0.00  0.00    -0.304 OA
BRANCH  13  14
ATOM     14  C   UNL d   1     -49.969  13.394  22.643  0.00  0.00     0.100 A 
ATOM     15  C   UNL d   1     -50.417  14.077  22.680  0.00  0.00     0.023 A 
ATOM     16  C   UNL d   1     -50.321  14.607  23.301  0.00  0.00     0.002 C 
ATOM     17  C   UNL d   1     -50.972  14.238  22.085  0.00  0.00     0.002 A 
ATOM     18  C   UNL d   1     -51.064  13.701  21.461  0.00  0.00     0.000 A 
ATOM     19  C   UNL d   1     -50.607  13.015  21.434  0.00  0.00     0.002 A 
ATOM     20  C   UNL d   1     -50.062  12.865  22.024  0.00  0.00     0.025 A 
ENDBRANCH  13  14
ENDBRANCH  12  13
ENDBRANCH  11  12
ENDBRANCH   2  11
TORSDOF 4
ENDMDL
MODEL 2
REMARK VINA RESULT:      -6.1      8.215      9.971
REMARK  4 active torsions:
REMARK  status: ('A' for Active; 'I' for Inactive)
REMARK    1  A    between atoms: C_9  and  N_2 
REMARK    2  A    between atoms: C_7  and  O_10 
REMARK    3  A    between atoms: C_11  and  C_9 
REMARK    4  A    between atoms: O_10  and  C_11 
ROOT
ATOM      1  C   UNL d   1     -40.152  15.148  17.251  0.00  0.00     0.378 A 
ATOM      2  N   UNL d   1     -39.991  14.535  17.792  0.00  0.00    -0.249 N 
ATOM      3  O   UNL d   1     -39.665  15.040  16.587  0.00  0.00    -0.258 OA
ATOM      4  C   UNL d   1     -39.407  14.053  17.459  0.00  0.00     0.092 A 
ATOM      5  C   UNL d   1     -39.207  14.366  16.716  0.00  0.00     0.121 A 
ATOM      6  O   UNL d   1     -40.700  15.750  17.366  0.00  0.00    -0.237 OA
ATOM      7  C   UNL d   1     -39.031  13.370  17.737  0.00  0.00     0.020 A 
ATOM      8  C   UNL d   1     -38.627  13.985  16.256  0.00  0.00     0.026 A 
ATOM      9  C   UNL d   1     -38.457  13.002  17.272  0.00  0.00     0.002 A 
ATOM     10  C   UNL d   1     -38.257  13.307  16.535  0.00  0.00     0.002 A 
ENDROOT
BRANCH   2  11
ATOM     11  C   UNL d   1     -40.326  14.395  18.533  0.00  0.00     0.112 C 
BRANCH  11  12
ATOM     12  C   UNL d   1     -40.098  14.847  19.176  0.00  0.00     0.142 C 
BRANCH  12  13
ATOM     13  O   UNL d   1     -40.526  14.804  19.880  0.00  0.00    -0.304 OA
BRANCH  13  14
ATOM     14  C   UNL d   1     -40.185  15.065  20.586  0.00  0.00     0.100 A 
ATOM     15  C   UNL d   1     -40.578  15.623  21.038  0.00  0.00     0.023 A 
ATOM     16  C   UNL d   1     -41.304  15.921  20.794  0.00  0.00     0.002 C 
ATOM     17  C   UNL d   1     -40.242  15.889  21.747  0.00  0.00     0.002 A 
ATOM     18  C   UNL d   1     -39.510  15.584  21.989  0.00  0.00     0.000 A 
ATOM     19  C   UNL d   1     -39.123  15.023  21.526  0.00  0.00     0.002 A 
ATOM     20  C   UNL d   1     -39.461  14.766  20.828  0.00  0.00     0.025 A 
ENDBRANCH  13  14
ENDBRANCH  12  13
ENDBRANCH  11  12
ENDBRANCH   2  11
TORSDOF 4
ENDMDL
MODEL 3
REMARK VINA RESULT:      -6.1      1.103      1.693
REMARK  4 active torsions:
REMARK  status: ('A' for Active; 'I' for Inactive)
REMARK    1  A    between atoms: C_9  and  N_2 
REMARK    2  A    between atoms: C_7  and  O_10 
REMARK    3  A    between atoms: C_11  and  C_9 
REMARK    4  A    between atoms: O_10  and  C_11 
ROOT
ATOM      1  C   UNL d   1     -46.385  13.850  22.779  0.00  0.00     0.378 A 
ATOM      2  N   UNL d   1     -47.054  13.512  23.142  0.00  0.00    -0.249 N 
ATOM      3  O   UNL d   1     -45.807  13.259  22.701  0.00  0.00    -0.258 OA
ATOM      4  C   UNL d   1     -46.886  12.714  23.285  0.00  0.00     0.092 A 
ATOM      5  C   UNL d   1     -46.116  12.560  23.012  0.00  0.00     0.121 A 
ATOM      6  O   UNL d   1     -46.319  14.636  22.545  0.00  0.00    -0.237 OA
ATOM      7  C   UNL d   1     -47.334  12.109  23.628  0.00  0.00     0.020 A 
ATOM      8  C   UNL d   1     -45.803  11.793  23.088  0.00  0.00     0.026 A 
ATOM      9  C   UNL d   1     -47.012  11.352  23.698  0.00  0.00     0.002 A 
ATOM     10  C   UNL d   1     -46.251  11.195  23.430  0.00  0.00     0.002 A 
ENDROOT
BRANCH   2  11
ATOM     11  C   UNL d   1     -47.773  13.866  23.341  0.00  0.00     0.112 C 
BRANCH  11  12
ATOM     12  C   UNL d   1     -48.324  14.025  22.758  0.00  0.00     0.142 C 
BRANCH  12  13
ATOM     13  O   UNL d   1     -48.965  14.517  22.922  0.00  0.00    -0.304 OA
BRANCH  13  14
ATOM     14  C   UNL d   1     -49.668  14.437  22.495  0.00  0.00     0.100 A 
ATOM     15  C   UNL d   1     -50.332  14.849  22.737  0.00  0.00     0.023 A 
ATOM     16  C   UNL d   1     -50.303  15.337  23.397  0.00  0.00     0.002 C 
ATOM     17  C   UNL d   1     -51.040  14.773  22.313  0.00  0.00     0.002 A 
ATOM     18  C   UNL d   1     -51.064  14.279  21.648  0.00  0.00     0.000 A 
ATOM     19  C   UNL d   1     -50.389  13.869  21.413  0.00  0.00     0.002 A 
ATOM     20  C   UNL d   1     -49.695  13.949  21.836  0.00  0.00     0.025 A 
ENDBRANCH  13  14
ENDBRANCH  12  13
ENDBRANCH  11  12
ENDBRANCH   2  11
TORSDOF 4
ENDMDL
MODEL 4
REMARK VINA RESULT:      -5.8      8.321     10.179
REMARK  4 active torsions:
REMARK  status: ('A' for Active; 'I' for Inactive)
REMARK    1  A    between atoms: C_9  and  N_2 
REMARK    2  A    between atoms: C_7  and  O_10 
REMARK    3  A    between atoms: C_11  and  C_9 
REMARK    4  A    between atoms: O_10  and  C_11 
ROOT
ATOM      1  C   UNL d   1     -40.257  14.217  17.634  0.00  0.00     0.378 A 
ATOM      2  N   UNL d   1     -39.871  14.942  17.773  0.00  0.00    -0.249 N 
ATOM      3  O   UNL d   1     -39.864  13.831  17.013  0.00  0.00    -0.258 OA
ATOM      4  C   UNL d   1     -39.243  15.000  17.237  0.00  0.00     0.092 A 
ATOM      5  C   UNL d   1     -39.240  14.314  16.769  0.00  0.00     0.121 A 
ATOM      6  O   UNL d   1     -40.912  13.942  18.048  0.00  0.00    -0.237 OA
ATOM      7  C   UNL d   1     -38.674  15.588  17.115  0.00  0.00     0.020 A 
ATOM      8  C   UNL d   1     -38.661  14.225  16.178  0.00  0.00     0.026 A 
ATOM      9  C   UNL d   1     -38.104  15.489  16.526  0.00  0.00     0.002 A 
ATOM     10  C   UNL d   1     -38.098  14.812  16.060  0.00  0.00     0.002 A 
ENDROOT
BRANCH   2  11
ATOM     11  C   UNL d   1     -40.046  15.526  18.329  0.00  0.00     0.112 C 
BRANCH  11  12
ATOM     12  C   UNL d   1     -39.904  15.389  19.123  0.00  0.00     0.142 C 
BRANCH  12  13
ATOM     13  O   UNL d   1     -40.197  15.912  19.689  0.00  0.00    -0.304 OA
BRANCH  13  14
ATOM     14  C   UNL d   1     -39.881  15.914  20.453  0.00  0.00     0.100 A 
ATOM     15  C   UNL d   1     -40.388  15.912  21.095  0.00  0.00     0.023 A 
ATOM     16  C   UNL d   1     -41.202  15.907  20.985  0.00  0.00     0.002 C 
ATOM     17  C   UNL d   1     -40.077  15.914  21.864  0.00  0.00     0.002 A 
ATOM     18  C   UNL d   1     -39.255  15.918  21.970  0.00  0.00     0.000 A 
ATOM     19  C   UNL d   1     -38.754  15.921  21.315  0.00  0.00     0.002 A 
ATOM     20  C   UNL d   1     -39.068  15.919  20.561  0.00  0.00     0.025 A 
ENDBRANCH  13  14
ENDBRANCH  12  13
ENDBRANCH  11  12
ENDBRANCH   2  11
TORSDOF 4
ENDMDL
MODEL 5
REMARK VINA RESULT:      -5.7      8.318      9.330
REMARK  4 active torsions:
REMARK  status: ('A' for Active; 'I' for Inactive)
REMARK    1  A    between atoms: C_9  and  N_2 
REMARK    2  A    between atoms: C_7  and  O_10 
REMARK    3  A    between atoms: C_11  and  C_9 
REMARK    4  A    between atoms: O_10  and  C_11 
ROOT
ATOM      1  C   UNL d   1     -40.708  15.545  21.151  0.00  0.00     0.378 A 
ATOM      2  N   UNL d   1     -40.353  14.858  20.840  0.00  0.00    -0.249 N 
ATOM      3  O   UNL d   1     -40.282  15.772  21.826  0.00  0.00    -0.258 OA
ATOM      4  C   UNL d   1     -39.710  14.666  21.324  0.00  0.00     0.092 A 
ATOM      5  C   UNL d   1     -39.668  15.231  21.932  0.00  0.00     0.121 A 
ATOM      6  O   UNL d   1     -41.367  15.922  20.835  0.00  0.00    -0.237 OA
ATOM      7  C   UNL d   1     -39.158  14.051  21.290  0.00  0.00     0.020 A 
ATOM      8  C   UNL d   1     -39.066  15.170  22.504  0.00  0.00     0.026 A 
ATOM      9  C   UNL d   1     -38.566  14.001  21.863  0.00  0.00     0.002 A 
ATOM     10  C   UNL d   1     -38.520  14.557  22.467  0.00  0.00     0.002 A 
ENDROOT
BRANCH   2  11
ATOM     11  C   UNL d   1     -40.567  14.418  20.175  0.00  0.00     0.112 C 
BRANCH  11  12
ATOM     12  C   UNL d   1     -40.501  14.747  19.429  0.00  0.00     0.142 C 
BRANCH  12  13
ATOM     13  O   UNL d   1     -40.491  14.259  18.765  0.00  0.00    -0.304 OA
BRANCH  13  14
ATOM     14  C   UNL d   1     -40.422  14.591  18.010  0.00  0.00     0.100 A 
ATOM     15  C   UNL d   1     -39.867  14.288  17.491  0.00  0.00     0.023 A 
ATOM     16  C   UNL d   1     -39.382  13.663  17.714  0.00  0.00     0.002 C 
ATOM     17  C   UNL d   1     -39.792  14.615  16.733  0.00  0.00     0.002 A 
ATOM     18  C   UNL d   1     -40.283  15.246  16.512  0.00  0.00     0.000 A 
ATOM     19  C   UNL d   1     -40.839  15.542  17.044  0.00  0.00     0.002 A 
ATOM     20  C   UNL d   1     -40.906  15.214  17.789  0.00  0.00     0.025 A 
ENDBRANCH  13  14
ENDBRANCH  12  13
ENDBRANCH  11  12
ENDBRANCH   2  11
TORSDOF 4
ENDMDL
MODEL 6
REMARK VINA RESULT:      -5.5      8.831     10.233
REMARK  4 active torsions:
REMARK  status: ('A' for Active; 'I' for Inactive)
REMARK    1  A    between atoms: C_9  and  N_2 
REMARK    2  A    between atoms: C_7  and  O_10 
REMARK    3  A    between atoms: C_11  and  C_9 
REMARK    4  A    between atoms: O_10  and  C_11 
ROOT
ATOM      1  C   UNL d   1     -40.607  15.494  19.684  0.00  0.00     0.378 A 
ATOM      2  N   UNL d   1     -40.212  14.764  19.759  0.00  0.00    -0.249 N 
ATOM      3  O   UNL d   1     -40.491  15.922  20.386  0.00  0.00    -0.258 OA
ATOM      4  C   UNL d   1     -39.856  14.745  20.506  0.00  0.00     0.092 A 
ATOM      5  C   UNL d   1     -40.029  15.461  20.891  0.00  0.00     0.121 A 
ATOM      6  O   UNL d   1     -41.033  15.737  19.025  0.00  0.00    -0.237 OA
ATOM      7  C   UNL d   1     -39.397  14.170  20.884  0.00  0.00     0.020 A 
ATOM      8  C   UNL d   1     -39.737  15.591  21.659  0.00  0.00     0.026 A 
ATOM      9  C   UNL d   1     -39.113  14.311  21.646  0.00  0.00     0.002 A 
ATOM     10  C   UNL d   1     -39.281  15.018  22.032  0.00  0.00     0.002 A 
ENDROOT
BRANCH   2  11
ATOM     11  C   UNL d   1     -40.159  14.144  19.217  0.00  0.00     0.112 C 
BRANCH  11  12
ATOM     12  C   UNL d   1     -39.740  14.245  18.521  0.00  0.00     0.142 C 
BRANCH  12  13
ATOM     13  O   UNL d   1     -39.432  13.589  18.129  0.00  0.00    -0.304 OA
BRANCH  13  14
ATOM     14  C   UNL d   1     -39.032  13.687  17.412  0.00  0.00     0.100 A 
ATOM     15  C   UNL d   1     -38.523  13.100  17.155  0.00  0.00     0.023 A 
ATOM     16  C   UNL d   1     -38.410  12.420  17.602  0.00  0.00     0.002 C 
ATOM     17  C   UNL d   1     -38.118  13.191  16.437  0.00  0.00     0.002 A 
ATOM     18  C   UNL d   1     -38.236  13.879  15.990  0.00  0.00     0.000 A 
ATOM     19  C   UNL d   1     -38.751  14.464  16.259  0.00  0.00     0.002 A 
ATOM     20  C   UNL d   1     -39.146  14.366  16.967  0.00  0.00     0.025 A 
ENDBRANCH  13  14
ENDBRANCH  12  13
ENDBRANCH  11  12
ENDBRANCH   2  11
TORSDOF 4
ENDMDL
MODEL 7
REMARK VINA RESULT:      -5.1      9.124     10.179
REMARK  4 active torsions:
REMARK  status: ('A' for Active; 'I' for Inactive)
REMARK    1  A    between atoms: C_9  and  N_2 
REMARK    2  A    between atoms: C_7  and  O_10 
REMARK    3  A    between atoms: C_11  and  C_9 
REMARK    4  A    between atoms: O_10  and  C_11 
ROOT
ATOM      1  C   UNL d   1     -38.798  14.810  18.135  0.00  0.00     0.378 A 
ATOM      2  N   UNL d   1     -39.309  15.303  18.571  0.00  0.00    -0.249 N 
ATOM      3  O   UNL d   1     -39.159  14.648  17.404  0.00  0.00    -0.258 OA
ATOM      4  C   UNL d   1     -39.981  15.442  18.109  0.00  0.00     0.092 A 
ATOM      5  C   UNL d   1     -39.886  15.037  17.389  0.00  0.00     0.121 A 
ATOM      6  O   UNL d   1     -38.067  14.537  18.393  0.00  0.00    -0.237 OA
ATOM      7  C   UNL d   1     -40.665  15.885  18.250  0.00  0.00     0.020 A 
ATOM      8  C   UNL d   1     -40.486  15.083  16.814  0.00  0.00     0.026 A 
ATOM      9  C   UNL d   1     -41.254  15.922  17.671  0.00  0.00     0.002 A 
ATOM     10  C   UNL d   1     -41.165  15.523  16.958  0.00  0.00     0.002 A 
ENDROOT
BRANCH   2  11
ATOM     11  C   UNL d   1     -39.206  15.618  19.327  0.00  0.00     0.112 C 
BRANCH  11  12
ATOM     12  C   UNL d   1     -39.203  15.122  19.978  0.00  0.00     0.142 C 
BRANCH  12  13
ATOM     13  O   UNL d   1     -39.127  15.440  20.735  0.00  0.00    -0.304 OA
BRANCH  13  14
ATOM     14  C   UNL d   1     -39.097  14.939  21.392  0.00  0.00     0.100 A 
ATOM     15  C   UNL d   1     -38.700  15.186  22.064  0.00  0.00     0.023 A 
ATOM     16  C   UNL d   1     -38.335  15.922  22.088  0.00  0.00     0.002 C 
ATOM     17  C   UNL d   1     -38.665  14.689  22.727  0.00  0.00     0.002 A 
ATOM     18  C   UNL d   1     -39.034  13.948  22.698  0.00  0.00     0.000 A 
ATOM     19  C   UNL d   1     -39.431  13.710  22.016  0.00  0.00     0.002 A 
ATOM     20  C   UNL d   1     -39.461  14.206  21.367  0.00  0.00     0.025 A 
ENDBRANCH  13  14
ENDBRANCH  12  13
ENDBRANCH  11  12
ENDBRANCH   2  11
TORSDOF 4
ENDMDL
