MODEL 1
REMARK VINA RESULT:      -5.9      0.000      0.000
REMARK  5 active torsions:
REMARK  status: ('A' for Active; 'I' for Inactive)
REMARK    1  A    between atoms: N_4  and  C_1 
REMARK    2  A    between atoms: N_5  and  C_1 
REMARK       I    between atoms: C_2  and  N_3 
REMARK    3  A    between atoms: C_8  and  C_2 
REMARK    4  A    between atoms: N_3  and  N_4 
REMARK    5  A    between atoms: C_9  and  N_5 
ROOT
ATOM      1  N   UNL d   1     -47.866  13.517  22.579  0.00  0.00    -0.273 N 
ATOM      2  H   UNL d   1     -47.635  13.694  21.813  0.00  0.00     0.189 HD
ENDROOT
BRANCH   1   3
ATOM      3  N   UNL d   1     -48.542  13.874  22.910  0.00  0.00    -0.264 N 
ATOM      4  C   UNL d   1     -48.957  14.438  22.453  0.00  0.00     0.271 C 
ATOM      5  O   UNL d   1     -48.719  14.642  21.703  0.00  0.00    -0.266 OA
ATOM      6  H   UNL d   1     -48.786  13.677  23.653  0.00  0.00     0.190 HD
BRANCH   4   7
ATOM      7  C   UNL d   1     -49.643  14.803  22.781  0.00  0.00     0.057 A 
ATOM      8  C   UNL d   1     -49.571  15.382  23.361  0.00  0.00     0.005 A 
ATOM      9  C   UNL d   1     -50.248  15.736  23.678  0.00  0.00     0.000 A 
ATOM     10  C   UNL d   1     -50.998  15.513  23.416  0.00  0.00     0.000 A 
ATOM     11  C   UNL d   1     -51.064  14.936  22.838  0.00  0.00     0.000 A 
ATOM     12  C   UNL d   1     -50.402  14.577  22.515  0.00  0.00     0.005 A 
ENDBRANCH   4   7
ENDBRANCH   1   3
BRANCH   1  13
ATOM     13  C   UNL d   1     -47.419  12.978  23.020  0.00  0.00     0.191 C 
ATOM     14  S   UNL d   1     -47.707  12.219  23.167  0.00  0.00    -0.039 SA
BRANCH  13  15
ATOM     15  N   UNL d   1     -46.674  13.206  23.316  0.00  0.00    -0.331 N 
ATOM     16  H   UNL d   1     -46.622  13.643  24.007  0.00  0.00     0.168 HD
BRANCH  15  17
ATOM     17  C   UNL d   1     -45.994  12.990  22.907  0.00  0.00     0.058 A 
ATOM     18  C   UNL d   1     -45.657  13.525  22.372  0.00  0.00     0.017 A 
ATOM     19  C   UNL d   1     -44.973  13.310  21.959  0.00  0.00     0.002 A 
ATOM     20  C   UNL d   1     -44.630  12.569  22.079  0.00  0.00     0.000 A 
ATOM     21  C   UNL d   1     -44.986  12.045  22.622  0.00  0.00     0.002 A 
ATOM     22  C   UNL d   1     -45.651  12.249  23.026  0.00  0.00     0.017 A 
ENDBRANCH  15  17
ENDBRANCH  13  15
ENDBRANCH   1  13
TORSDOF 5
ENDMDL
MODEL 2
REMARK VINA RESULT:      -5.8      0.982      4.756
REMARK  5 active torsions:
REMARK  status: ('A' for Active; 'I' for Inactive)
REMARK    1  A    between atoms: N_4  and  C_1 
REMARK    2  A    between atoms: N_5  and  C_1 
REMARK       I    between atoms: C_2  and  N_3 
REMARK    3  A    between atoms: C_8  and  C_2 
REMARK    4  A    between atoms: N_3  and  N_4 
REMARK    5  A    between atoms: C_9  and  N_5 
ROOT
ATOM      1  N   UNL d   1     -48.095  13.459  22.636  0.00  0.00    -0.273 N 
ATOM      2  H   UNL d   1     -48.219  13.635  23.427  0.00  0.00     0.189 HD
ENDROOT
BRANCH   1   3
ATOM      3  N   UNL d   1     -47.343  13.217  22.371  0.00  0.00    -0.264 N 
ATOM      4  C   UNL d   1     -46.712  13.205  22.919  0.00  0.00     0.271 C 
ATOM      5  O   UNL d   1     -46.815  13.422  23.696  0.00  0.00    -0.266 OA
ATOM      6  H   UNL d   1     -47.231  13.000  21.602  0.00  0.00     0.190 HD
BRANCH   4   7
ATOM      7  C   UNL d   1     -45.948  12.961  22.658  0.00  0.00     0.057 A 
ATOM      8  C   UNL d   1     -45.500  13.445  22.166  0.00  0.00     0.005 A 
ATOM      9  C   UNL d   1     -44.752  13.199  21.914  0.00  0.00     0.000 A 
ATOM     10  C   UNL d   1     -44.450  12.469  22.153  0.00  0.00     0.000 A 
ATOM     11  C   UNL d   1     -44.900  11.990  22.642  0.00  0.00     0.000 A 
ATOM     12  C   UNL d   1     -45.643  12.221  22.900  0.00  0.00     0.005 A 
ENDBRANCH   4   7
ENDBRANCH   1   3
BRANCH   1  13
ATOM     13  C   UNL d   1     -48.726  13.524  22.105  0.00  0.00     0.191 C 
ATOM     14  S   UNL d   1     -49.090  12.848  21.806  0.00  0.00    -0.039 SA
BRANCH  13  15
ATOM     15  N   UNL d   1     -48.991  14.279  21.873  0.00  0.00    -0.331 N 
ATOM     16  H   UNL d   1     -48.632  14.667  21.248  0.00  0.00     0.168 HD
BRANCH  15  17
ATOM     17  C   UNL d   1     -49.615  14.629  22.279  0.00  0.00     0.058 A 
ATOM     18  C   UNL d   1     -50.376  14.312  22.198  0.00  0.00     0.017 A 
ATOM     19  C   UNL d   1     -51.006  14.662  22.604  0.00  0.00     0.002 A 
ATOM     20  C   UNL d   1     -50.878  15.319  23.086  0.00  0.00     0.000 A 
ATOM     21  C   UNL d   1     -50.103  15.622  23.153  0.00  0.00     0.002 A 
ATOM     22  C   UNL d   1     -49.487  15.287  22.760  0.00  0.00     0.017 A 
ENDBRANCH  15  17
ENDBRANCH  13  15
ENDBRANCH   1  13
TORSDOF 5
ENDMDL
MODEL 3
REMARK VINA RESULT:      -5.3      8.591      9.177
REMARK  5 active torsions:
REMARK  status: ('A' for Active; 'I' for Inactive)
REMARK    1  A    between atoms: N_4  and  C_1 
REMARK    2  A    between atoms: N_5  and  C_1 
REMARK       I    between atoms: C_2  and  N_3 
REMARK    3  A    between atoms: C_8  and  C_2 
REMARK    4  A    between atoms: N_3  and  N_4 
REMARK    5  A    between atoms: C_9  and  N_5 
ROOT
ATOM      1  N   UNL d   1     -40.153  14.408  19.839  0.00  0.00    -0.273 N 
ATOM      2  H   UNL d   1     -40.327  13.608  19.804  0.00  0.00     0.189 HD
ENDROOT
BRANCH   1   3
ATOM      3  N   UNL d   1     -40.208  14.882  19.156  0.00  0.00    -0.264 N 
ATOM      4  C   UNL d   1     -40.453  14.523  18.441  0.00  0.00     0.271 C 
ATOM      5  O   UNL d   1     -40.638  13.732  18.400  0.00  0.00    -0.266 OA
ATOM      6  H   UNL d   1     -40.026  15.667  19.187  0.00  0.00     0.190 HD
BRANCH   4   7
ATOM      7  C   UNL d   1     -40.511  14.996  17.746  0.00  0.00     0.057 A 
ATOM      8  C   UNL d   1     -41.205  15.403  17.572  0.00  0.00     0.005 A 
ATOM      9  C   UNL d   1     -41.254  15.865  16.887  0.00  0.00     0.000 A 
ATOM     10  C   UNL d   1     -40.609  15.921  16.376  0.00  0.00     0.000 A 
ATOM     11  C   UNL d   1     -39.920  15.515  16.553  0.00  0.00     0.000 A 
ATOM     12  C   UNL d   1     -39.857  15.054  17.227  0.00  0.00     0.005 A 
ENDBRANCH   4   7
ENDBRANCH   1   3
BRANCH   1  13
ATOM     13  C   UNL d   1     -39.923  14.739  20.561  0.00  0.00     0.191 C 
ATOM     14  S   UNL d   1     -40.484  15.078  21.062  0.00  0.00    -0.039 SA
BRANCH  13  15
ATOM     15  N   UNL d   1     -39.119  14.729  20.780  0.00  0.00    -0.331 N 
ATOM     16  H   UNL d   1     -38.599  15.277  20.462  0.00  0.00     0.168 HD
BRANCH  15  17
ATOM     17  C   UNL d   1     -38.854  14.165  21.317  0.00  0.00     0.058 A 
ATOM     18  C   UNL d   1     -38.278  13.621  21.078  0.00  0.00     0.017 A 
ATOM     19  C   UNL d   1     -38.010  13.052  21.616  0.00  0.00     0.002 A 
ATOM     20  C   UNL d   1     -38.314  13.028  22.383  0.00  0.00     0.000 A 
ATOM     21  C   UNL d   1     -38.894  13.586  22.602  0.00  0.00     0.002 A 
ATOM     22  C   UNL d   1     -39.158  14.141  22.083  0.00  0.00     0.017 A 
ENDBRANCH  15  17
ENDBRANCH  13  15
ENDBRANCH   1  13
TORSDOF 5
ENDMDL
MODEL 4
REMARK VINA RESULT:      -5.2      1.878      2.034
REMARK  5 active torsions:
REMARK  status: ('A' for Active; 'I' for Inactive)
REMARK    1  A    between atoms: N_4  and  C_1 
REMARK    2  A    between atoms: N_5  and  C_1 
REMARK       I    between atoms: C_2  and  N_3 
REMARK    3  A    between atoms: C_8  and  C_2 
REMARK    4  A    between atoms: N_3  and  N_4 
REMARK    5  A    between atoms: C_9  and  N_5 
ROOT
ATOM      1  N   UNL d   1     -47.430  12.857  22.375  0.00  0.00    -0.273 N 
ATOM      2  H   UNL d   1     -47.220  12.373  21.749  0.00  0.00     0.189 HD
ENDROOT
BRANCH   1   3
ATOM      3  N   UNL d   1     -48.205  12.840  22.681  0.00  0.00    -0.264 N 
ATOM      4  C   UNL d   1     -48.730  12.254  22.400  0.00  0.00     0.271 C 
ATOM      5  O   UNL d   1     -48.505  11.706  21.843  0.00  0.00    -0.266 OA
ATOM      6  H   UNL d   1     -48.438  13.379  23.234  0.00  0.00     0.190 HD
BRANCH   4   7
ATOM      7  C   UNL d   1     -49.516  12.230  22.705  0.00  0.00     0.057 A 
ATOM      8  C   UNL d   1     -49.682  11.831  23.405  0.00  0.00     0.005 A 
ATOM      9  C   UNL d   1     -50.455  11.812  23.698  0.00  0.00     0.000 A 
ATOM     10  C   UNL d   1     -51.064  12.192  23.291  0.00  0.00     0.000 A 
ATOM     11  C   UNL d   1     -50.895  12.589  22.595  0.00  0.00     0.000 A 
ATOM     12  C   UNL d   1     -50.133  12.615  22.293  0.00  0.00     0.005 A 
ENDBRANCH   4   7
ENDBRANCH   1   3
BRANCH   1  13
ATOM     13  C   UNL d   1     -46.862  13.364  22.700  0.00  0.00     0.191 C 
ATOM     14  S   UNL d   1     -46.968  14.182  22.672  0.00  0.00    -0.039 SA
BRANCH  13  15
ATOM     15  N   UNL d   1     -46.181  13.043  23.057  0.00  0.00    -0.331 N 
ATOM     16  H   UNL d   1     -46.198  12.817  23.844  0.00  0.00     0.168 HD
BRANCH  15  17
ATOM     17  C   UNL d   1     -45.496  12.956  22.612  0.00  0.00     0.058 A 
ATOM     18  C   UNL d   1     -45.208  13.604  22.183  0.00  0.00     0.017 A 
ATOM     19  C   UNL d   1     -44.519  13.520  21.734  0.00  0.00     0.002 A 
ATOM     20  C   UNL d   1     -44.121  12.798  21.713  0.00  0.00     0.000 A 
ATOM     21  C   UNL d   1     -44.428  12.158  22.152  0.00  0.00     0.002 A 
ATOM     22  C   UNL d   1     -45.098  12.234  22.591  0.00  0.00     0.017 A 
ENDBRANCH  15  17
ENDBRANCH  13  15
ENDBRANCH   1  13
TORSDOF 5
ENDMDL
MODEL 5
REMARK VINA RESULT:      -5.1      8.121      9.877
REMARK  5 active torsions:
REMARK  status: ('A' for Active; 'I' for Inactive)
REMARK    1  A    between atoms: N_4  and  C_1 
REMARK    2  A    between atoms: N_5  and  C_1 
REMARK       I    between atoms: C_2  and  N_3 
REMARK    3  A    between atoms: C_8  and  C_2 
REMARK    4  A    between atoms: N_3  and  N_4 
REMARK    5  A    between atoms: C_9  and  N_5 
ROOT
ATOM      1  N   UNL d   1     -39.912  14.812  17.848  0.00  0.00    -0.273 N 
ATOM      2  H   UNL d   1     -40.264  14.087  17.700  0.00  0.00     0.189 HD
ENDROOT
BRANCH   1   3
ATOM      3  N   UNL d   1     -39.995  15.177  18.593  0.00  0.00    -0.264 N 
ATOM      4  C   UNL d   1     -40.413  14.770  19.191  0.00  0.00     0.271 C 
ATOM      5  O   UNL d   1     -40.736  14.034  19.064  0.00  0.00    -0.266 OA
ATOM      6  H   UNL d   1     -39.678  15.907  18.728  0.00  0.00     0.190 HD
BRANCH   4   7
ATOM      7  C   UNL d   1     -40.501  15.133  19.947  0.00  0.00     0.057 A 
ATOM      8  C   UNL d   1     -39.913  15.059  20.518  0.00  0.00     0.005 A 
ATOM      9  C   UNL d   1     -40.006  15.418  21.258  0.00  0.00     0.000 A 
ATOM     10  C   UNL d   1     -40.688  15.851  21.427  0.00  0.00     0.000 A 
ATOM     11  C   UNL d   1     -41.270  15.922  20.856  0.00  0.00     0.000 A 
ATOM     12  C   UNL d   1     -41.191  15.572  20.119  0.00  0.00     0.005 A 
ENDBRANCH   4   7
ENDBRANCH   1   3
BRANCH   1  13
ATOM     13  C   UNL d   1     -39.473  15.177  17.249  0.00  0.00     0.191 C 
ATOM     14  S   UNL d   1     -39.828  15.730  16.751  0.00  0.00    -0.039 SA
BRANCH  13  15
ATOM     15  N   UNL d   1     -38.669  14.983  17.152  0.00  0.00    -0.331 N 
ATOM     16  H   UNL d   1     -38.127  15.173  17.737  0.00  0.00     0.168 HD
BRANCH  15  17
ATOM     17  C   UNL d   1     -38.427  14.600  16.466  0.00  0.00     0.058 A 
ATOM     18  C   UNL d   1     -38.262  15.050  15.790  0.00  0.00     0.017 A 
ATOM     19  C   UNL d   1     -38.019  14.667  15.098  0.00  0.00     0.002 A 
ATOM     20  C   UNL d   1     -37.940  13.846  15.082  0.00  0.00     0.000 A 
ATOM     21  C   UNL d   1     -38.110  13.413  15.774  0.00  0.00     0.002 A 
ATOM     22  C   UNL d   1     -38.347  13.779  16.449  0.00  0.00     0.017 A 
ENDBRANCH  15  17
ENDBRANCH  13  15
ENDBRANCH   1  13
TORSDOF 5
ENDMDL
MODEL 6
REMARK VINA RESULT:      -5.0      8.665      9.485
REMARK  5 active torsions:
REMARK  status: ('A' for Active; 'I' for Inactive)
REMARK    1  A    between atoms: N_4  and  C_1 
REMARK    2  A    between atoms: N_5  and  C_1 
REMARK       I    between atoms: C_2  and  N_3 
REMARK    3  A    between atoms: C_8  and  C_2 
REMARK    4  A    between atoms: N_3  and  N_4 
REMARK    5  A    between atoms: C_9  and  N_5 
ROOT
ATOM      1  N   UNL d   1     -39.876  14.530  19.683  0.00  0.00    -0.273 N 
ATOM      2  H   UNL d   1     -40.694  14.487  19.696  0.00  0.00     0.189 HD
ENDROOT
BRANCH   1   3
ATOM      3  N   UNL d   1     -39.438  14.465  20.389  0.00  0.00    -0.264 N 
ATOM      4  C   UNL d   1     -39.854  14.428  21.113  0.00  0.00     0.271 C 
ATOM      5  O   UNL d   1     -40.666  14.452  21.143  0.00  0.00    -0.266 OA
ATOM      6  H   UNL d   1     -38.631  14.440  20.369  0.00  0.00     0.190 HD
BRANCH   4   7
ATOM      7  C   UNL d   1     -39.418  14.362  21.832  0.00  0.00     0.057 A 
ATOM      8  C   UNL d   1     -39.215  13.623  22.132  0.00  0.00     0.005 A 
ATOM      9  C   UNL d   1     -38.787  13.567  22.838  0.00  0.00     0.000 A 
ATOM     10  C   UNL d   1     -38.561  14.249  23.244  0.00  0.00     0.000 A 
ATOM     11  C   UNL d   1     -38.764  14.982  22.941  0.00  0.00     0.000 A 
ATOM     12  C   UNL d   1     -39.188  15.053  22.243  0.00  0.00     0.005 A 
ENDBRANCH   4   7
ENDBRANCH   1   3
BRANCH   1  13
ATOM     13  C   UNL d   1     -39.490  14.639  18.959  0.00  0.00     0.191 C 
ATOM     14  S   UNL d   1     -39.043  14.029  18.629  0.00  0.00    -0.039 SA
BRANCH  13  15
ATOM     15  N   UNL d   1     -39.555  15.370  18.565  0.00  0.00    -0.331 N 
ATOM     16  H   UNL d   1     -39.112  16.013  18.814  0.00  0.00     0.168 HD
BRANCH  15  17
ATOM     17  C   UNL d   1     -40.066  15.439  17.925  0.00  0.00     0.058 A 
ATOM     18  C   UNL d   1     -40.778  15.851  18.020  0.00  0.00     0.017 A 
ATOM     19  C   UNL d   1     -41.295  15.922  17.377  0.00  0.00     0.002 A 
ATOM     20  C   UNL d   1     -41.103  15.585  16.649  0.00  0.00     0.000 A 
ATOM     21  C   UNL d   1     -40.380  15.174  16.576  0.00  0.00     0.002 A 
ATOM     22  C   UNL d   1     -39.874  15.102  17.196  0.00  0.00     0.017 A 
ENDBRANCH  15  17
ENDBRANCH  13  15
ENDBRANCH   1  13
TORSDOF 5
ENDMDL
MODEL 7
REMARK VINA RESULT:      -4.8      8.467      9.804
REMARK  5 active torsions:
REMARK  status: ('A' for Active; 'I' for Inactive)
REMARK    1  A    between atoms: N_4  and  C_1 
REMARK    2  A    between atoms: N_5  and  C_1 
REMARK       I    between atoms: C_2  and  N_3 
REMARK    3  A    between atoms: C_8  and  C_2 
REMARK    4  A    between atoms: N_3  and  N_4 
REMARK    5  A    between atoms: C_9  and  N_5 
ROOT
ATOM      1  N   UNL d   1     -40.320  14.756  19.346  0.00  0.00    -0.273 N 
ATOM      2  H   UNL d   1     -41.043  14.371  19.334  0.00  0.00     0.189 HD
ENDROOT
BRANCH   1   3
ATOM      3  N   UNL d   1     -39.773  14.645  18.727  0.00  0.00    -0.264 N 
ATOM      4  C   UNL d   1     -39.983  14.138  18.097  0.00  0.00     0.271 C 
ATOM      5  O   UNL d   1     -40.700  13.755  18.075  0.00  0.00    -0.266 OA
ATOM      6  H   UNL d   1     -39.059  15.020  18.741  0.00  0.00     0.190 HD
BRANCH   4   7
ATOM      7  C   UNL d   1     -39.434  14.021  17.467  0.00  0.00     0.057 A 
ATOM      8  C   UNL d   1     -38.922  13.377  17.472  0.00  0.00     0.005 A 
ATOM      9  C   UNL d   1     -38.387  13.269  16.851  0.00  0.00     0.000 A 
ATOM     10  C   UNL d   1     -38.363  13.804  16.224  0.00  0.00     0.000 A 
ATOM     11  C   UNL d   1     -38.874  14.444  16.222  0.00  0.00     0.000 A 
ATOM     12  C   UNL d   1     -39.410  14.563  16.831  0.00  0.00     0.005 A 
ENDBRANCH   4   7
ENDBRANCH   1   3
BRANCH   1  13
ATOM     13  C   UNL d   1     -40.140  15.255  19.980  0.00  0.00     0.191 C 
ATOM     14  S   UNL d   1     -39.653  15.912  19.868  0.00  0.00    -0.039 SA
BRANCH  13  15
ATOM     15  N   UNL d   1     -40.453  15.092  20.735  0.00  0.00    -0.331 N 
ATOM     16  H   UNL d   1     -41.260  15.151  20.866  0.00  0.00     0.168 HD
BRANCH  15  17
ATOM     17  C   UNL d   1     -39.946  14.870  21.343  0.00  0.00     0.058 A 
ATOM     18  C   UNL d   1     -39.831  14.065  21.499  0.00  0.00     0.017 A 
ATOM     19  C   UNL d   1     -39.321  13.839  22.110  0.00  0.00     0.002 A 
ATOM     20  C   UNL d   1     -38.931  14.410  22.560  0.00  0.00     0.000 A 
ATOM     21  C   UNL d   1     -39.062  15.216  22.385  0.00  0.00     0.002 A 
ATOM     22  C   UNL d   1     -39.556  15.441  21.793  0.00  0.00     0.017 A 
ENDBRANCH  15  17
ENDBRANCH  13  15
ENDBRANCH   1  13
TORSDOF 5
ENDMDL
MODEL 8
REMARK VINA RESULT:      -4.6      9.312     10.292
REMARK  5 active torsions:
REMARK  status: ('A' for Active; 'I' for Inactive)
REMARK    1  A    between atoms: N_4  and  C_1 
REMARK    2  A    between atoms: N_5  and  C_1 
REMARK       I    between atoms: C_2  and  N_3 
REMARK    3  A    between atoms: C_8  and  C_2 
REMARK    4  A    between atoms: N_3  and  N_4 
REMARK    5  A    between atoms: C_9  and  N_5 
ROOT
ATOM      1  N   UNL d   1     -39.036  14.345  19.116  0.00  0.00    -0.273 N 
ATOM      2  H   UNL d   1     -38.475  14.908  18.916  0.00  0.00     0.189 HD
ENDROOT
BRANCH   1   3
ATOM      3  N   UNL d   1     -39.084  14.055  19.895  0.00  0.00    -0.264 N 
ATOM      4  C   UNL d   1     -38.523  14.323  20.455  0.00  0.00     0.271 C 
ATOM      5  O   UNL d   1     -37.940  14.853  20.257  0.00  0.00    -0.266 OA
ATOM      6  H   UNL d   1     -39.660  13.528  20.101  0.00  0.00     0.190 HD
BRANCH   4   7
ATOM      7  C   UNL d   1     -38.566  14.033  21.246  0.00  0.00     0.057 A 
ATOM      8  C   UNL d   1     -39.013  14.428  21.812  0.00  0.00     0.005 A 
ATOM      9  C   UNL d   1     -39.049  14.137  22.586  0.00  0.00     0.000 A 
ATOM     10  C   UNL d   1     -38.639  13.453  22.795  0.00  0.00     0.000 A 
ATOM     11  C   UNL d   1     -38.195  13.063  22.228  0.00  0.00     0.000 A 
ATOM     12  C   UNL d   1     -38.149  13.339  21.457  0.00  0.00     0.005 A 
ENDBRANCH   4   7
ENDBRANCH   1   3
BRANCH   1  13
ATOM     13  C   UNL d   1     -39.555  14.069  18.533  0.00  0.00     0.191 C 
ATOM     14  S   UNL d   1     -40.316  14.383  18.470  0.00  0.00    -0.039 SA
BRANCH  13  15
ATOM     15  N   UNL d   1     -39.305  13.471  18.010  0.00  0.00    -0.331 N 
ATOM     16  H   UNL d   1     -39.411  12.683  18.206  0.00  0.00     0.168 HD
BRANCH  15  17
ATOM     17  C   UNL d   1     -38.952  13.681  17.298  0.00  0.00     0.058 A 
ATOM     18  C   UNL d   1     -38.309  13.239  17.021  0.00  0.00     0.017 A 
ATOM     19  C   UNL d   1     -37.952  13.448  16.304  0.00  0.00     0.002 A 
ATOM     20  C   UNL d   1     -38.233  14.090  15.870  0.00  0.00     0.000 A 
ATOM     21  C   UNL d   1     -38.882  14.522  16.168  0.00  0.00     0.002 A 
ATOM     22  C   UNL d   1     -39.233  14.324  16.863  0.00  0.00     0.017 A 
ENDBRANCH  15  17
ENDBRANCH  13  15
ENDBRANCH   1  13
TORSDOF 5
ENDMDL
