MODEL 1
REMARK VINA RESULT:      67.0      0.000      0.000
REMARK  4 active torsions:
REMARK  status: ('A' for Active; 'I' for Inactive)
REMARK    1  A    between atoms: C_2  and  C_1 
REMARK    2  A    between atoms: N_13  and  C_6 
REMARK    3  A    between atoms: N_12  and  N_13 
REMARK    4  A    between atoms: C_15  and  N_12 
ROOT
ATOM      1  C   UNL d   1      60.515  48.350  50.779  0.00  0.00     0.095 A 
ATOM      2  N   UNL d   1      59.777  48.659  50.530  0.00  0.00    -0.219 NA
ATOM      3  C   UNL d   1      59.564  49.228  51.076  0.00  0.00     0.215 A 
ATOM      4  S   UNL d   1      60.135  49.295  51.661  0.00  0.00    -0.045 SA
ATOM      5  C   UNL d   1      60.716  48.751  51.470  0.00  0.00     0.058 A 
ENDROOT
BRANCH   1   6
ATOM      6  C   UNL d   1      60.996  47.757  50.439  0.00  0.00     0.082 A 
ATOM      7  C   UNL d   1      61.666  47.976  50.028  0.00  0.00     0.302 A 
ATOM      8  O   UNL d   1      62.173  47.390  49.672  0.00  0.00    -0.273 OA
ATOM      9  O   UNL d   1      61.848  48.817  49.962  0.00  0.00    -0.259 OA
ATOM     10  C   UNL d   1      61.960  46.570  49.759  0.00  0.00     0.103 A 
ATOM     11  C   UNL d   1      61.290  46.352  50.170  0.00  0.00     0.023 A 
ATOM     12  C   UNL d   1      62.461  46.014  49.409  0.00  0.00     0.025 A 
ATOM     13  C   UNL d   1      60.809  46.944  50.510  0.00  0.00     0.009 A 
ATOM     14  C   UNL d   1      61.096  45.569  50.247  0.00  0.00     0.002 A 
ATOM     15  C   UNL d   1      61.578  44.975  49.906  0.00  0.00     0.000 A 
ATOM     16  C   UNL d   1      62.248  45.194  49.495  0.00  0.00     0.002 A 
ENDBRANCH   1   6
BRANCH   3  17
ATOM     17  N   UNL d   1      58.839  49.676  51.016  0.00  0.00    -0.122 NA
BRANCH  17  18
ATOM     18  N   UNL d   1      58.125  49.264  51.127  0.00  0.00    -0.146 NA
BRANCH  18  19
ATOM     19  C   UNL d   1      57.481  49.370  50.628  0.00  0.00     0.103 A 
ATOM     20  C   UNL d   1      56.709  49.257  50.930  0.00  0.00     0.021 A 
ATOM     21  C   UNL d   1      56.051  49.366  50.420  0.00  0.00     0.002 A 
ATOM     22  C   UNL d   1      56.201  49.581  49.638  0.00  0.00     0.000 A 
ATOM     23  C   UNL d   1      56.955  49.687  49.359  0.00  0.00     0.002 A 
ATOM     24  C   UNL d   1      57.595  49.581  49.855  0.00  0.00     0.021 A 
ENDBRANCH  18  19
ENDBRANCH  17  18
ENDBRANCH   3  17
TORSDOF 4
ENDMDL
