MODEL 1
REMARK VINA RESULT:      34.7      0.000      0.000
REMARK  6 active torsions:
REMARK  status: ('A' for Active; 'I' for Inactive)
REMARK    1  A    between atoms: S_10  and  C_6 
REMARK    2  A    between atoms: C_14  and  S_10 
REMARK    3  A    between atoms: C_11  and  C_14 
REMARK       I    between atoms: N_15  and  C_11 
REMARK    4  A    between atoms: C_20  and  N_15 
REMARK    5  A    between atoms: C_18  and  C_20 
REMARK    6  A    between atoms: C_21  and  C_18 
ROOT
ATOM      1  C   UNL d   1      58.061  49.653  49.823  0.00  0.00     0.187 A 
ATOM      2  C   UNL d   1      57.549  49.667  50.468  0.00  0.00     0.081 A 
ATOM      3  N   UNL d   1      58.881  49.666  49.953  0.00  0.00    -0.197 NA
ATOM      4  N   UNL d   1      58.655  49.707  51.371  0.00  0.00    -0.200 NA
ATOM      5  C   UNL d   1      57.842  49.694  51.239  0.00  0.00     0.189 A 
ATOM      6  C   UNL d   1      59.180  49.694  50.730  0.00  0.00     0.198 A 
ATOM      7  C   UNL d   1      56.779  49.650  50.175  0.00  0.00     0.029 A 
ATOM      8  O   UNL d   1      57.616  49.628  49.137  0.00  0.00    -0.289 OA
ATOM      9  C   UNL d   1      56.814  49.625  49.348  0.00  0.00     0.102 A 
ATOM     10  N   UNL d   1      57.319  49.708  51.876  0.00  0.00    -0.127 N 
ATOM     11  C   UNL d   1      56.083  49.656  50.632  0.00  0.00     0.002 C 
ATOM     12  C   UNL d   1      56.168  49.602  48.835  0.00  0.00     0.027 C 
ENDROOT
BRANCH   6  13
ATOM     13  S   UNL d   1      59.993  49.706  50.853  0.00  0.00    -0.043 SA
BRANCH  13  14
ATOM     14  C   UNL d   1      60.502  49.342  50.318  0.00  0.00     0.101 C 
BRANCH  14  15
ATOM     15  C   UNL d   1      60.906  48.662  50.534  0.00  0.00     0.286 C 
ATOM     16  O   UNL d   1      61.264  48.609  51.280  0.00  0.00    -0.265 OA
ATOM     17  N   UNL d   1      60.958  48.029  50.012  0.00  0.00    -0.206 NA
BRANCH  17  18
ATOM     18  C   UNL d   1      61.367  47.343  50.233  0.00  0.00     0.106 C 
BRANCH  18  19
ATOM     19  C   UNL d   1      61.524  46.774  49.671  0.00  0.00     0.066 C 
BRANCH  19  20
ATOM     20  C   UNL d   1      61.981  46.114  49.874  0.00  0.00     0.236 C 
ATOM     21  O   UNL d   1      62.776  46.098  49.699  0.00  0.00    -0.283 OA
ENDBRANCH  19  20
ENDBRANCH  18  19
ENDBRANCH  17  18
ENDBRANCH  14  15
ENDBRANCH  13  14
ENDBRANCH   6  13
TORSDOF 6
ENDMDL
MODEL 2
REMARK VINA RESULT:      35.9      0.912      1.421
REMARK  6 active torsions:
REMARK  status: ('A' for Active; 'I' for Inactive)
REMARK    1  A    between atoms: S_10  and  C_6 
REMARK    2  A    between atoms: C_14  and  S_10 
REMARK    3  A    between atoms: C_11  and  C_14 
REMARK       I    between atoms: N_15  and  C_11 
REMARK    4  A    between atoms: C_20  and  N_15 
REMARK    5  A    between atoms: C_18  and  C_20 
REMARK    6  A    between atoms: C_21  and  C_18 
ROOT
ATOM      1  C   UNL d   1      58.020  49.707  51.243  0.00  0.00     0.187 A 
ATOM      2  C   UNL d   1      57.572  49.707  50.551  0.00  0.00     0.081 A 
ATOM      3  N   UNL d   1      58.848  49.707  51.193  0.00  0.00    -0.197 NA
ATOM      4  N   UNL d   1      58.761  49.707  49.759  0.00  0.00    -0.200 NA
ATOM      5  C   UNL d   1      57.938  49.708  49.812  0.00  0.00     0.189 A 
ATOM      6  C   UNL d   1      59.221  49.707  50.448  0.00  0.00     0.198 A 
ATOM      7  C   UNL d   1      56.777  49.708  50.769  0.00  0.00     0.029 A 
ATOM      8  O   UNL d   1      57.509  49.707  51.883  0.00  0.00    -0.289 OA
ATOM      9  C   UNL d   1      56.732  49.707  51.596  0.00  0.00     0.102 A 
ATOM     10  N   UNL d   1      57.479  49.708  49.127  0.00  0.00    -0.127 N 
ATOM     11  C   UNL d   1      56.129  49.708  50.246  0.00  0.00     0.002 C 
ATOM     12  C   UNL d   1      56.039  49.707  52.044  0.00  0.00     0.027 C 
ENDROOT
BRANCH   6  13
ATOM     13  S   UNL d   1      60.042  49.707  50.404  0.00  0.00    -0.043 SA
BRANCH  13  14
ATOM     14  C   UNL d   1      60.496  49.532  51.069  0.00  0.00     0.101 C 
BRANCH  14  15
ATOM     15  C   UNL d   1      60.826  48.787  51.155  0.00  0.00     0.286 C 
ATOM     16  O   UNL d   1      61.076  48.525  51.901  0.00  0.00    -0.265 OA
ATOM     17  N   UNL d   1      60.912  48.295  50.502  0.00  0.00    -0.206 NA
BRANCH  17  18
ATOM     18  C   UNL d   1      61.247  47.542  50.591  0.00  0.00     0.106 C 
BRANCH  18  19
ATOM     19  C   UNL d   1      61.310  47.053  49.943  0.00  0.00     0.066 C 
BRANCH  19  20
ATOM     20  C   UNL d   1      61.876  46.449  49.940  0.00  0.00     0.236 C 
ATOM     21  O   UNL d   1      62.158  46.157  49.233  0.00  0.00    -0.283 OA
ENDBRANCH  19  20
ENDBRANCH  18  19
ENDBRANCH  17  18
ENDBRANCH  14  15
ENDBRANCH  13  14
ENDBRANCH   6  13
TORSDOF 6
ENDMDL
