MODEL 1
REMARK VINA RESULT:      -7.1      0.000      0.000
REMARK  3 active torsions:
REMARK  status: ('A' for Active; 'I' for Inactive)
REMARK    1  A    between atoms: C_13  and  C_3 
REMARK    2  A    between atoms: C_4  and  S_11 
REMARK    3  A    between atoms: S_11  and  C_13 
ROOT
ATOM      1  C   UNL d   1      53.127  31.934  53.301  0.00  0.00     0.141 A 
ATOM      2  N   UNL d   1      53.613  31.507  53.779  0.00  0.00    -0.232 NA
ATOM      3  S   UNL d   1      52.614  31.425  52.913  0.00  0.00    -0.060 SA
ATOM      4  C   UNL d   1      53.411  30.714  53.698  0.00  0.00     0.088 A 
ATOM      5  C   UNL d   1      52.794  30.663  53.162  0.00  0.00     0.049 A 
ATOM      6  C   UNL d   1      53.720  30.035  54.050  0.00  0.00     0.020 A 
ATOM      7  C   UNL d   1      52.470  29.932  52.966  0.00  0.00     0.008 A 
ATOM      8  C   UNL d   1      52.776  29.249  53.317  0.00  0.00     0.001 A 
ATOM      9  C   UNL d   1      53.394  29.300  53.852  0.00  0.00     0.002 A 
ENDROOT
BRANCH   1  10
ATOM     10  S   UNL d   1      53.137  32.770  53.210  0.00  0.00    -0.058 SA
BRANCH  10  11
ATOM     11  C   UNL d   1      53.235  33.243  53.869  0.00  0.00     0.077 C 
BRANCH  11  12
ATOM     12  C   UNL d   1      53.061  34.061  53.817  0.00  0.00     0.178 A 
ATOM     13  N   UNL d   1      53.236  34.550  54.445  0.00  0.00    -0.262 N 
ATOM     14  C   UNL d   1      52.999  35.325  54.226  0.00  0.00     0.227 A 
ATOM     15  C   UNL d   1      53.582  34.333  55.168  0.00  0.00     0.103 C 
ATOM     16  N   UNL d   1      52.692  35.282  53.484  0.00  0.00    -0.117 NA
ATOM     17  S   UNL d   1      53.069  36.024  54.700  0.00  0.00    -0.036 SA
ATOM     18  N   UNL d   1      52.717  34.523  53.209  0.00  0.00    -0.127 NA
ENDBRANCH  11  12
ENDBRANCH  10  11
ENDBRANCH   1  10
TORSDOF 3
ENDMDL
MODEL 2
REMARK VINA RESULT:      -6.7      2.426      3.521
REMARK  3 active torsions:
REMARK  status: ('A' for Active; 'I' for Inactive)
REMARK    1  A    between atoms: C_13  and  C_3 
REMARK    2  A    between atoms: C_4  and  S_11 
REMARK    3  A    between atoms: S_11  and  C_13 
ROOT
ATOM      1  C   UNL d   1      52.551  33.726  53.258  0.00  0.00     0.141 A 
ATOM      2  N   UNL d   1      52.882  34.292  53.722  0.00  0.00    -0.232 NA
ATOM      3  S   UNL d   1      52.882  32.998  53.440  0.00  0.00    -0.060 SA
ATOM      4  C   UNL d   1      53.434  33.925  54.209  0.00  0.00     0.088 A 
ATOM      5  C   UNL d   1      53.434  33.125  54.035  0.00  0.00     0.049 A 
ATOM      6  C   UNL d   1      53.935  34.229  54.790  0.00  0.00     0.020 A 
ATOM      7  C   UNL d   1      53.935  32.610  54.436  0.00  0.00     0.008 A 
ATOM      8  C   UNL d   1      54.438  32.910  55.019  0.00  0.00     0.001 A 
ATOM      9  C   UNL d   1      54.438  33.710  55.193  0.00  0.00     0.002 A 
ENDROOT
BRANCH   1  10
ATOM     10  S   UNL d   1      51.956  33.853  52.675  0.00  0.00    -0.058 SA
BRANCH  10  11
ATOM     11  C   UNL d   1      51.230  34.148  52.904  0.00  0.00     0.077 C 
BRANCH  11  12
ATOM     12  C   UNL d   1      50.631  34.254  52.328  0.00  0.00     0.178 A 
ATOM     13  N   UNL d   1      49.916  34.580  52.546  0.00  0.00    -0.262 N 
ATOM     14  C   UNL d   1      49.440  34.613  51.856  0.00  0.00     0.227 A 
ATOM     15  C   UNL d   1      49.692  34.834  53.305  0.00  0.00     0.103 C 
ATOM     16  N   UNL d   1      49.874  34.312  51.250  0.00  0.00    -0.117 NA
ATOM     17  S   UNL d   1      48.648  34.910  51.806  0.00  0.00    -0.036 SA
ATOM     18  N   UNL d   1      50.605  34.085  51.508  0.00  0.00    -0.127 NA
ENDBRANCH  11  12
ENDBRANCH  10  11
ENDBRANCH   1  10
TORSDOF 3
ENDMDL
MODEL 3
REMARK VINA RESULT:      -6.4      2.767      3.494
REMARK  3 active torsions:
REMARK  status: ('A' for Active; 'I' for Inactive)
REMARK    1  A    between atoms: C_13  and  C_3 
REMARK    2  A    between atoms: C_4  and  S_11 
REMARK    3  A    between atoms: S_11  and  C_13 
ROOT
ATOM      1  C   UNL d   1      51.919  33.659  53.426  0.00  0.00     0.141 A 
ATOM      2  N   UNL d   1      51.996  32.882  53.237  0.00  0.00    -0.232 NA
ATOM      3  S   UNL d   1      52.646  33.952  53.669  0.00  0.00    -0.060 SA
ATOM      4  C   UNL d   1      52.781  32.670  53.359  0.00  0.00     0.088 A 
ATOM      5  C   UNL d   1      53.183  33.332  53.627  0.00  0.00     0.049 A 
ATOM      6  C   UNL d   1      53.173  31.952  53.258  0.00  0.00     0.020 A 
ATOM      7  C   UNL d   1      53.987  33.291  53.799  0.00  0.00     0.008 A 
ATOM      8  C   UNL d   1      54.384  32.574  53.699  0.00  0.00     0.001 A 
ATOM      9  C   UNL d   1      53.982  31.912  53.431  0.00  0.00     0.002 A 
ENDROOT
BRANCH   1  10
ATOM     10  S   UNL d   1      51.208  34.108  53.383  0.00  0.00    -0.058 SA
BRANCH  10  11
ATOM     11  C   UNL d   1      50.784  34.118  52.685  0.00  0.00     0.077 C 
BRANCH  11  12
ATOM     12  C   UNL d   1      50.052  34.525  52.657  0.00  0.00     0.178 A 
ATOM     13  N   UNL d   1      49.620  34.528  51.964  0.00  0.00    -0.262 N 
ATOM     14  C   UNL d   1      48.925  34.974  52.111  0.00  0.00     0.227 A 
ATOM     15  C   UNL d   1      49.822  34.162  51.247  0.00  0.00     0.103 C 
ATOM     16  N   UNL d   1      48.955  35.223  52.874  0.00  0.00    -0.117 NA
ATOM     17  S   UNL d   1      48.304  35.132  51.556  0.00  0.00    -0.036 SA
ATOM     18  N   UNL d   1      49.632  34.964  53.232  0.00  0.00    -0.127 NA
ENDBRANCH  11  12
ENDBRANCH  10  11
ENDBRANCH   1  10
TORSDOF 3
ENDMDL
MODEL 4
REMARK VINA RESULT:      -6.0      2.638      3.997
REMARK  3 active torsions:
REMARK  status: ('A' for Active; 'I' for Inactive)
REMARK    1  A    between atoms: C_13  and  C_3 
REMARK    2  A    between atoms: C_4  and  S_11 
REMARK    3  A    between atoms: S_11  and  C_13 
ROOT
ATOM      1  C   UNL d   1      51.195  33.776  52.936  0.00  0.00     0.141 A 
ATOM      2  N   UNL d   1      50.643  34.172  53.366  0.00  0.00    -0.232 NA
ATOM      3  S   UNL d   1      50.983  33.790  52.144  0.00  0.00    -0.060 SA
ATOM      4  C   UNL d   1      50.068  34.445  52.845  0.00  0.00     0.088 A 
ATOM      5  C   UNL d   1      50.278  34.209  52.090  0.00  0.00     0.049 A 
ATOM      6  C   UNL d   1      49.380  34.880  52.974  0.00  0.00     0.020 A 
ATOM      7  C   UNL d   1      49.805  34.402  51.445  0.00  0.00     0.008 A 
ATOM      8  C   UNL d   1      49.114  34.838  51.569  0.00  0.00     0.001 A 
ATOM      9  C   UNL d   1      48.904  35.074  52.325  0.00  0.00     0.002 A 
ENDROOT
BRANCH   1  10
ATOM     10  S   UNL d   1      51.884  33.403  53.244  0.00  0.00    -0.058 SA
BRANCH  10  11
ATOM     11  C   UNL d   1      52.402  33.838  53.704  0.00  0.00     0.077 C 
BRANCH  11  12
ATOM     12  C   UNL d   1      53.091  33.468  54.004  0.00  0.00     0.178 A 
ATOM     13  N   UNL d   1      53.579  33.881  54.512  0.00  0.00    -0.262 N 
ATOM     14  C   UNL d   1      54.213  33.369  54.713  0.00  0.00     0.227 A 
ATOM     15  C   UNL d   1      53.476  34.659  54.784  0.00  0.00     0.103 C 
ATOM     16  N   UNL d   1      54.092  32.674  54.328  0.00  0.00    -0.117 NA
ATOM     17  S   UNL d   1      54.861  33.551  55.227  0.00  0.00    -0.036 SA
ATOM     18  N   UNL d   1      53.415  32.705  53.887  0.00  0.00    -0.127 NA
ENDBRANCH  11  12
ENDBRANCH  10  11
ENDBRANCH   1  10
TORSDOF 3
ENDMDL
MODEL 5
REMARK VINA RESULT:      -5.9      1.360      4.378
REMARK  3 active torsions:
REMARK  status: ('A' for Active; 'I' for Inactive)
REMARK    1  A    between atoms: C_13  and  C_3 
REMARK    2  A    between atoms: C_4  and  S_11 
REMARK    3  A    between atoms: S_11  and  C_13 
ROOT
ATOM      1  C   UNL d   1      52.891  32.624  53.288  0.00  0.00     0.141 A 
ATOM      2  N   UNL d   1      53.404  33.084  53.703  0.00  0.00    -0.232 NA
ATOM      3  S   UNL d   1      52.264  33.084  53.029  0.00  0.00    -0.060 SA
ATOM      4  C   UNL d   1      53.104  33.849  53.712  0.00  0.00     0.088 A 
ATOM      5  C   UNL d   1      52.399  33.850  53.295  0.00  0.00     0.049 A 
ATOM      6  C   UNL d   1      53.393  34.543  54.051  0.00  0.00     0.020 A 
ATOM      7  C   UNL d   1      51.965  34.544  53.208  0.00  0.00     0.008 A 
ATOM      8  C   UNL d   1      52.251  35.241  53.546  0.00  0.00     0.001 A 
ATOM      9  C   UNL d   1      52.956  35.241  53.963  0.00  0.00     0.002 A 
ENDROOT
BRANCH   1  10
ATOM     10  S   UNL d   1      52.979  31.800  53.140  0.00  0.00    -0.058 SA
BRANCH  10  11
ATOM     11  C   UNL d   1      53.283  31.319  53.726  0.00  0.00     0.077 C 
BRANCH  11  12
ATOM     12  C   UNL d   1      53.180  30.489  53.669  0.00  0.00     0.178 A 
ATOM     13  N   UNL d   1      53.328  30.020  54.320  0.00  0.00    -0.262 N 
ATOM     14  C   UNL d   1      53.176  29.228  54.091  0.00  0.00     0.227 A 
ATOM     15  C   UNL d   1      53.582  30.271  55.070  0.00  0.00     0.103 C 
ATOM     16  N   UNL d   1      52.944  29.239  53.322  0.00  0.00    -0.117 NA
ATOM     17  S   UNL d   1      53.253  28.540  54.581  0.00  0.00    -0.036 SA
ATOM     18  N   UNL d   1      52.936  29.996  53.038  0.00  0.00    -0.127 NA
ENDBRANCH  11  12
ENDBRANCH  10  11
ENDBRANCH   1  10
TORSDOF 3
ENDMDL
MODEL 6
REMARK VINA RESULT:      -5.7      1.777      2.044
REMARK  3 active torsions:
REMARK  status: ('A' for Active; 'I' for Inactive)
REMARK    1  A    between atoms: C_13  and  C_3 
REMARK    2  A    between atoms: C_4  and  S_11 
REMARK    3  A    between atoms: S_11  and  C_13 
ROOT
ATOM      1  C   UNL d   1      52.827  31.865  53.036  0.00  0.00     0.141 A 
ATOM      2  N   UNL d   1      52.520  31.183  52.740  0.00  0.00    -0.232 NA
ATOM      3  S   UNL d   1      53.362  31.684  53.631  0.00  0.00    -0.060 SA
ATOM      4  C   UNL d   1      52.860  30.556  53.149  0.00  0.00     0.088 A 
ATOM      5  C   UNL d   1      53.381  30.866  53.699  0.00  0.00     0.049 A 
ATOM      6  C   UNL d   1      52.754  29.741  53.081  0.00  0.00     0.020 A 
ATOM      7  C   UNL d   1      53.809  30.369  54.196  0.00  0.00     0.008 A 
ATOM      8  C   UNL d   1      53.706  29.551  54.132  0.00  0.00     0.001 A 
ATOM      9  C   UNL d   1      53.185  29.241  53.581  0.00  0.00     0.002 A 
ENDROOT
BRANCH   1  10
ATOM     10  S   UNL d   1      52.634  32.643  52.780  0.00  0.00    -0.058 SA
BRANCH  10  11
ATOM     11  C   UNL d   1      52.013  33.038  53.134  0.00  0.00     0.077 C 
BRANCH  11  12
ATOM     12  C   UNL d   1      51.569  33.589  52.686  0.00  0.00     0.178 A 
ATOM     13  N   UNL d   1      50.855  33.860  52.975  0.00  0.00    -0.262 N 
ATOM     14  C   UNL d   1      50.550  34.397  52.407  0.00  0.00     0.227 A 
ATOM     15  C   UNL d   1      50.494  33.651  53.692  0.00  0.00     0.103 C 
ATOM     16  N   UNL d   1      51.077  34.435  51.802  0.00  0.00    -0.117 NA
ATOM     17  S   UNL d   1      49.818  34.822  52.461  0.00  0.00    -0.036 SA
ATOM     18  N   UNL d   1      51.710  33.952  51.944  0.00  0.00    -0.127 NA
ENDBRANCH  11  12
ENDBRANCH  10  11
ENDBRANCH   1  10
TORSDOF 3
ENDMDL
MODEL 7
REMARK VINA RESULT:      -5.7      2.528      4.475
REMARK  3 active torsions:
REMARK  status: ('A' for Active; 'I' for Inactive)
REMARK    1  A    between atoms: C_13  and  C_3 
REMARK    2  A    between atoms: C_4  and  S_11 
REMARK    3  A    between atoms: S_11  and  C_13 
ROOT
ATOM      1  C   UNL d   1      51.373  33.821  52.751  0.00  0.00     0.141 A 
ATOM      2  N   UNL d   1      51.038  33.816  52.020  0.00  0.00    -0.232 NA
ATOM      3  S   UNL d   1      50.887  34.233  53.268  0.00  0.00    -0.060 SA
ATOM      4  C   UNL d   1      50.329  34.230  52.066  0.00  0.00     0.088 A 
ATOM      5  C   UNL d   1      50.236  34.488  52.838  0.00  0.00     0.049 A 
ATOM      6  C   UNL d   1      49.760  34.401  51.494  0.00  0.00     0.020 A 
ATOM      7  C   UNL d   1      49.572  34.922  53.056  0.00  0.00     0.008 A 
ATOM      8  C   UNL d   1      48.999  35.095  52.486  0.00  0.00     0.001 A 
ATOM      9  C   UNL d   1      49.092  34.838  51.714  0.00  0.00     0.002 A 
ENDROOT
BRANCH   1  10
ATOM     10  S   UNL d   1      52.105  33.461  52.960  0.00  0.00    -0.058 SA
BRANCH  10  11
ATOM     11  C   UNL d   1      52.183  32.650  52.897  0.00  0.00     0.077 C 
BRANCH  11  12
ATOM     12  C   UNL d   1      52.877  32.282  53.189  0.00  0.00     0.178 A 
ATOM     13  N   UNL d   1      52.924  31.468  53.206  0.00  0.00    -0.262 N 
ATOM     14  C   UNL d   1      53.675  31.272  53.523  0.00  0.00     0.227 A 
ATOM     15  C   UNL d   1      52.343  30.928  52.960  0.00  0.00     0.103 C 
ATOM     16  N   UNL d   1      54.056  31.961  53.685  0.00  0.00    -0.117 NA
ATOM     17  S   UNL d   1      53.979  30.490  53.649  0.00  0.00    -0.036 SA
ATOM     18  N   UNL d   1      53.593  32.595  53.492  0.00  0.00    -0.127 NA
ENDBRANCH  11  12
ENDBRANCH  10  11
ENDBRANCH   1  10
TORSDOF 3
ENDMDL
MODEL 8
REMARK VINA RESULT:      -4.9      9.378      9.847
REMARK  3 active torsions:
REMARK  status: ('A' for Active; 'I' for Inactive)
REMARK    1  A    between atoms: C_13  and  C_3 
REMARK    2  A    between atoms: C_4  and  S_11 
REMARK    3  A    between atoms: S_11  and  C_13 
ROOT
ATOM      1  C   UNL d   1      44.712  28.152  57.091  0.00  0.00     0.141 A 
ATOM      2  N   UNL d   1      44.806  28.148  57.889  0.00  0.00    -0.232 NA
ATOM      3  S   UNL d   1      44.740  27.382  56.812  0.00  0.00    -0.060 SA
ATOM      4  C   UNL d   1      44.895  27.366  58.128  0.00  0.00     0.088 A 
ATOM      5  C   UNL d   1      44.855  26.892  57.461  0.00  0.00     0.049 A 
ATOM      6  C   UNL d   1      45.009  27.035  58.874  0.00  0.00     0.020 A 
ATOM      7  C   UNL d   1      44.927  26.075  57.525  0.00  0.00     0.008 A 
ATOM      8  C   UNL d   1      45.040  25.738  58.271  0.00  0.00     0.001 A 
ATOM      9  C   UNL d   1      45.081  26.212  58.938  0.00  0.00     0.002 A 
ENDROOT
BRANCH   1  10
ATOM     10  S   UNL d   1      44.603  28.835  56.611  0.00  0.00    -0.058 SA
BRANCH  10  11
ATOM     11  C   UNL d   1      44.744  29.574  56.931  0.00  0.00     0.077 C 
BRANCH  11  12
ATOM     12  C   UNL d   1      44.584  30.256  56.471  0.00  0.00     0.178 A 
ATOM     13  N   UNL d   1      44.563  30.988  56.832  0.00  0.00    -0.262 N 
ATOM     14  C   UNL d   1      44.392  31.551  56.234  0.00  0.00     0.227 A 
ATOM     15  C   UNL d   1      44.686  31.153  57.636  0.00  0.00     0.103 C 
ATOM     16  N   UNL d   1      44.316  31.151  55.540  0.00  0.00    -0.117 NA
ATOM     17  S   UNL d   1      44.314  32.388  56.340  0.00  0.00    -0.036 SA
ATOM     18  N   UNL d   1      44.428  30.359  55.655  0.00  0.00    -0.127 NA
ENDBRANCH  11  12
ENDBRANCH  10  11
ENDBRANCH   1  10
TORSDOF 3
ENDMDL
MODEL 9
REMARK VINA RESULT:      -4.9     10.045     10.542
REMARK  3 active torsions:
REMARK  status: ('A' for Active; 'I' for Inactive)
REMARK    1  A    between atoms: C_13  and  C_3 
REMARK    2  A    between atoms: C_4  and  S_11 
REMARK    3  A    between atoms: S_11  and  C_13 
ROOT
ATOM      1  C   UNL d   1      45.041  27.238  57.498  0.00  0.00     0.141 A 
ATOM      2  N   UNL d   1      44.816  26.608  57.943  0.00  0.00    -0.232 NA
ATOM      3  S   UNL d   1      45.037  27.025  56.706  0.00  0.00    -0.060 SA
ATOM      4  C   UNL d   1      44.665  25.981  57.433  0.00  0.00     0.088 A 
ATOM      5  C   UNL d   1      44.802  26.239  56.668  0.00  0.00     0.049 A 
ATOM      6  C   UNL d   1      44.420  25.208  57.579  0.00  0.00     0.020 A 
ATOM      7  C   UNL d   1      44.697  25.730  56.030  0.00  0.00     0.008 A 
ATOM      8  C   UNL d   1      44.451  24.954  56.172  0.00  0.00     0.001 A 
ATOM      9  C   UNL d   1      44.314  24.696  56.937  0.00  0.00     0.002 A 
ENDROOT
BRANCH   1  10
ATOM     10  S   UNL d   1      45.249  28.000  57.792  0.00  0.00    -0.058 SA
BRANCH  10  11
ATOM     11  C   UNL d   1      44.968  28.236  58.522  0.00  0.00     0.077 C 
BRANCH  11  12
ATOM     12  C   UNL d   1      45.080  29.030  58.766  0.00  0.00     0.178 A 
ATOM     13  N   UNL d   1      44.776  29.277  59.482  0.00  0.00    -0.262 N 
ATOM     14  C   UNL d   1      44.978  30.087  59.568  0.00  0.00     0.227 A 
ATOM     15  C   UNL d   1      44.348  28.821  60.028  0.00  0.00     0.103 C 
ATOM     16  N   UNL d   1      45.391  30.303  58.913  0.00  0.00    -0.117 NA
ATOM     17  S   UNL d   1      44.782  30.586  60.224  0.00  0.00    -0.036 SA
ATOM     18  N   UNL d   1      45.469  29.678  58.406  0.00  0.00    -0.127 NA
ENDBRANCH  11  12
ENDBRANCH  10  11
ENDBRANCH   1  10
TORSDOF 3
ENDMDL
