MODEL 1
REMARK VINA RESULT:      -8.3      0.000      0.000
REMARK  4 active torsions:
REMARK  status: ('A' for Active; 'I' for Inactive)
REMARK    1  A    between atoms: C_6  and  C_1 
REMARK    2  A    between atoms: C_7  and  C_4 
REMARK    3  A    between atoms: O_10  and  C_6 
REMARK    4  A    between atoms: C_13  and  O_10 
ROOT
ATOM      1  C   UNL d   1      53.331  31.185  53.572  0.00  0.00     0.112 A 
ATOM      2  S   UNL d   1      53.918  31.575  54.026  0.00  0.00    -0.080 SA
ATOM      3  C   UNL d   1      52.869  31.767  53.213  0.00  0.00     0.115 A 
ATOM      4  C   UNL d   1      53.799  32.391  53.932  0.00  0.00     0.031 A 
ATOM      5  C   UNL d   1      53.157  32.493  53.434  0.00  0.00     0.028 A 
ATOM      6  N   UNL d   1      52.215  31.629  52.705  0.00  0.00    -0.147 N 
ENDROOT
BRANCH   4   7
ATOM      7  C   UNL d   1      54.306  32.914  54.324  0.00  0.00     0.006 A 
ATOM      8  C   UNL d   1      54.136  33.123  55.110  0.00  0.00     0.001 A 
ATOM      9  C   UNL d   1      54.641  33.644  55.499  0.00  0.00     0.000 A 
ATOM     10  C   UNL d   1      55.301  33.953  55.119  0.00  0.00     0.000 A 
ATOM     11  C   UNL d   1      55.465  33.745  54.344  0.00  0.00     0.000 A 
ATOM     12  C   UNL d   1      54.966  33.223  53.944  0.00  0.00     0.001 A 
ENDBRANCH   4   7
BRANCH   1  13
ATOM     13  C   UNL d   1      53.229  30.356  53.494  0.00  0.00     0.308 C 
ATOM     14  O   UNL d   1      53.108  29.995  52.749  0.00  0.00    -0.258 OA
BRANCH  13  15
ATOM     15  O   UNL d   1      53.250  29.884  54.182  0.00  0.00    -0.271 OA
BRANCH  15  16
ATOM     16  C   UNL d   1      53.283  29.049  54.118  0.00  0.00     0.126 C 
ATOM     17  C   UNL d   1      53.346  28.600  54.806  0.00  0.00     0.029 C 
ENDBRANCH  15  16
ENDBRANCH  13  15
ENDBRANCH   1  13
TORSDOF 4
ENDMDL
MODEL 2
REMARK VINA RESULT:      -8.2      2.127      3.685
REMARK  4 active torsions:
REMARK  status: ('A' for Active; 'I' for Inactive)
REMARK    1  A    between atoms: C_6  and  C_1 
REMARK    2  A    between atoms: C_7  and  C_4 
REMARK    3  A    between atoms: O_10  and  C_6 
REMARK    4  A    between atoms: C_13  and  O_10 
ROOT
ATOM      1  C   UNL d   1      53.325  32.697  53.994  0.00  0.00     0.112 A 
ATOM      2  S   UNL d   1      52.737  33.272  53.830  0.00  0.00    -0.080 SA
ATOM      3  C   UNL d   1      53.225  32.081  53.455  0.00  0.00     0.115 A 
ATOM      4  C   UNL d   1      52.289  32.990  53.190  0.00  0.00     0.031 A 
ATOM      5  C   UNL d   1      52.597  32.263  52.972  0.00  0.00     0.028 A 
ATOM      6  N   UNL d   1      53.692  31.384  53.414  0.00  0.00    -0.147 N 
ENDROOT
BRANCH   4   7
ATOM      7  C   UNL d   1      51.663  33.451  52.909  0.00  0.00     0.006 A 
ATOM      8  C   UNL d   1      51.778  33.904  52.221  0.00  0.00     0.001 A 
ATOM      9  C   UNL d   1      51.153  34.364  51.942  0.00  0.00     0.000 A 
ATOM     10  C   UNL d   1      50.431  34.376  52.334  0.00  0.00     0.000 A 
ATOM     11  C   UNL d   1      50.323  33.928  53.011  0.00  0.00     0.000 A 
ATOM     12  C   UNL d   1      50.941  33.463  53.301  0.00  0.00     0.001 A 
ENDBRANCH   4   7
BRANCH   1  13
ATOM     13  C   UNL d   1      53.909  32.738  54.593  0.00  0.00     0.308 C 
ATOM     14  O   UNL d   1      53.898  32.226  55.255  0.00  0.00    -0.258 OA
BRANCH  13  15
ATOM     15  O   UNL d   1      54.515  33.307  54.524  0.00  0.00    -0.271 OA
BRANCH  15  16
ATOM     16  C   UNL d   1      54.966  33.526  55.196  0.00  0.00     0.126 C 
ATOM     17  C   UNL d   1      55.591  34.054  55.101  0.00  0.00     0.029 C 
ENDBRANCH  15  16
ENDBRANCH  13  15
ENDBRANCH   1  13
TORSDOF 4
ENDMDL
MODEL 3
REMARK VINA RESULT:      -8.1      2.060      2.988
REMARK  4 active torsions:
REMARK  status: ('A' for Active; 'I' for Inactive)
REMARK    1  A    between atoms: C_6  and  C_1 
REMARK    2  A    between atoms: C_7  and  C_4 
REMARK    3  A    between atoms: O_10  and  C_6 
REMARK    4  A    between atoms: C_13  and  O_10 
ROOT
ATOM      1  C   UNL d   1      53.226  32.365  53.651  0.00  0.00     0.112 A 
ATOM      2  S   UNL d   1      52.580  32.583  53.163  0.00  0.00    -0.080 SA
ATOM      3  C   UNL d   1      53.355  32.985  54.180  0.00  0.00     0.115 A 
ATOM      4  C   UNL d   1      52.329  33.336  53.408  0.00  0.00     0.031 A 
ATOM      5  C   UNL d   1      52.810  33.569  54.029  0.00  0.00     0.028 A 
ATOM      6  N   UNL d   1      53.949  33.007  54.774  0.00  0.00    -0.147 N 
ENDROOT
BRANCH   4   7
ATOM      7  C   UNL d   1      51.692  33.689  53.016  0.00  0.00     0.006 A 
ATOM      8  C   UNL d   1      50.940  33.663  53.370  0.00  0.00     0.001 A 
ATOM      9  C   UNL d   1      50.307  34.016  52.979  0.00  0.00     0.000 A 
ATOM     10  C   UNL d   1      50.413  34.386  52.253  0.00  0.00     0.000 A 
ATOM     11  C   UNL d   1      51.156  34.409  51.909  0.00  0.00     0.000 A 
ATOM     12  C   UNL d   1      51.799  34.059  52.290  0.00  0.00     0.001 A 
ENDBRANCH   4   7
BRANCH   1  13
ATOM     13  C   UNL d   1      53.662  31.651  53.612  0.00  0.00     0.308 C 
ATOM     14  O   UNL d   1      54.458  31.634  53.353  0.00  0.00    -0.258 OA
BRANCH  13  15
ATOM     15  O   UNL d   1      53.289  30.940  53.839  0.00  0.00    -0.271 OA
BRANCH  15  16
ATOM     16  C   UNL d   1      53.613  30.203  53.610  0.00  0.00     0.126 C 
ATOM     17  C   UNL d   1      53.271  29.510  53.899  0.00  0.00     0.029 C 
ENDBRANCH  15  16
ENDBRANCH  13  15
ENDBRANCH   1  13
TORSDOF 4
ENDMDL
MODEL 4
REMARK VINA RESULT:      -7.9      1.816      2.845
REMARK  4 active torsions:
REMARK  status: ('A' for Active; 'I' for Inactive)
REMARK    1  A    between atoms: C_6  and  C_1 
REMARK    2  A    between atoms: C_7  and  C_4 
REMARK    3  A    between atoms: O_10  and  C_6 
REMARK    4  A    between atoms: C_13  and  O_10 
ROOT
ATOM      1  C   UNL d   1      52.361  32.700  53.371  0.00  0.00     0.112 A 
ATOM      2  S   UNL d   1      52.864  33.164  53.855  0.00  0.00    -0.080 SA
ATOM      3  C   UNL d   1      52.786  32.031  53.144  0.00  0.00     0.115 A 
ATOM      4  C   UNL d   1      53.589  32.764  53.913  0.00  0.00     0.031 A 
ATOM      5  C   UNL d   1      53.527  32.074  53.474  0.00  0.00     0.028 A 
ATOM      6  N   UNL d   1      52.500  31.411  52.655  0.00  0.00    -0.147 N 
ENDROOT
BRANCH   4   7
ATOM      7  C   UNL d   1      54.195  33.100  54.363  0.00  0.00     0.006 A 
ATOM      8  C   UNL d   1      54.856  33.417  53.972  0.00  0.00     0.001 A 
ATOM      9  C   UNL d   1      55.460  33.752  54.422  0.00  0.00     0.000 A 
ATOM     10  C   UNL d   1      55.410  33.774  55.242  0.00  0.00     0.000 A 
ATOM     11  C   UNL d   1      54.756  33.461  55.623  0.00  0.00     0.000 A 
ATOM     12  C   UNL d   1      54.145  33.122  55.183  0.00  0.00     0.001 A 
ENDBRANCH   4   7
BRANCH   1  13
ATOM     13  C   UNL d   1      51.572  32.880  53.155  0.00  0.00     0.308 C 
ATOM     14  O   UNL d   1      50.931  32.387  53.374  0.00  0.00    -0.258 OA
BRANCH  13  15
ATOM     15  O   UNL d   1      51.425  33.570  52.710  0.00  0.00    -0.271 OA
BRANCH  15  16
ATOM     16  C   UNL d   1      50.652  33.891  52.673  0.00  0.00     0.126 C 
ATOM     17  C   UNL d   1      50.496  34.493  52.130  0.00  0.00     0.029 C 
ENDBRANCH  15  16
ENDBRANCH  13  15
ENDBRANCH   1  13
TORSDOF 4
ENDMDL
MODEL 5
REMARK VINA RESULT:      -7.7      2.294      3.888
REMARK  4 active torsions:
REMARK  status: ('A' for Active; 'I' for Inactive)
REMARK    1  A    between atoms: C_6  and  C_1 
REMARK    2  A    between atoms: C_7  and  C_4 
REMARK    3  A    between atoms: O_10  and  C_6 
REMARK    4  A    between atoms: C_13  and  O_10 
ROOT
ATOM      1  C   UNL d   1      52.648  33.423  53.339  0.00  0.00     0.112 A 
ATOM      2  S   UNL d   1      52.542  32.615  53.145  0.00  0.00    -0.080 SA
ATOM      3  C   UNL d   1      53.303  33.474  53.838  0.00  0.00     0.115 A 
ATOM      4  C   UNL d   1      53.139  32.188  53.534  0.00  0.00     0.031 A 
ATOM      5  C   UNL d   1      53.596  32.725  53.953  0.00  0.00     0.028 A 
ATOM      6  N   UNL d   1      53.613  34.180  54.171  0.00  0.00    -0.147 N 
ENDROOT
BRANCH   4   7
ATOM      7  C   UNL d   1      53.167  31.367  53.439  0.00  0.00     0.006 A 
ATOM      8  C   UNL d   1      53.615  30.918  53.975  0.00  0.00     0.001 A 
ATOM      9  C   UNL d   1      53.642  30.099  53.880  0.00  0.00     0.000 A 
ATOM     10  C   UNL d   1      53.235  29.734  53.266  0.00  0.00     0.000 A 
ATOM     11  C   UNL d   1      52.795  30.181  52.741  0.00  0.00     0.000 A 
ATOM     12  C   UNL d   1      52.760  31.002  52.826  0.00  0.00     0.001 A 
ENDBRANCH   4   7
BRANCH   1  13
ATOM     13  C   UNL d   1      52.178  34.065  53.076  0.00  0.00     0.308 C 
ATOM     14  O   UNL d   1      52.514  34.734  52.701  0.00  0.00    -0.258 OA
BRANCH  13  15
ATOM     15  O   UNL d   1      51.353  34.032  53.192  0.00  0.00    -0.271 OA
BRANCH  15  16
ATOM     16  C   UNL d   1      50.843  34.518  52.738  0.00  0.00     0.126 C 
ATOM     17  C   UNL d   1      50.028  34.437  52.832  0.00  0.00     0.029 C 
ENDBRANCH  15  16
ENDBRANCH  13  15
ENDBRANCH   1  13
TORSDOF 4
ENDMDL
