MODEL 1
REMARK VINA RESULT:      57.5      0.000      0.000
REMARK  6 active torsions:
REMARK  status: ('A' for Active; 'I' for Inactive)
REMARK    1  A    between atoms: C_7  and  C_1 
REMARK    2  A    between atoms: C_10  and  C_2 
REMARK    3  A    between atoms: C_9  and  C_5 
REMARK    4  A    between atoms: O_15  and  C_7 
REMARK    5  A    between atoms: N_14  and  C_9 
REMARK    6  A    between atoms: C_21  and  O_15 
ROOT
ATOM      1  C   UNL d   1     -50.992  25.678  33.782  0.00  0.00     0.088 A 
ATOM      2  C   UNL d   1     -50.177  25.804  33.797  0.00  0.00     0.105 A 
ATOM      3  C   UNL d   1     -51.115  24.889  33.628  0.00  0.00     0.034 A 
ATOM      4  O   UNL d   1     -49.825  25.080  33.651  0.00  0.00    -0.307 OA
ATOM      5  C   UNL d   1     -51.810  24.442  33.547  0.00  0.00     0.059 A 
ATOM      6  C   UNL d   1     -50.404  24.505  33.544  0.00  0.00     0.100 A 
ATOM      7  C   UNL d   1     -51.786  23.649  33.391  0.00  0.00     0.197 A 
ATOM      8  C   UNL d   1     -50.358  23.709  33.387  0.00  0.00     0.028 A 
ATOM      9  C   UNL d   1     -51.051  23.266  33.308  0.00  0.00     0.044 A 
ATOM     10  O   UNL d   1     -52.484  23.204  33.311  0.00  0.00    -0.286 OA
ENDROOT
BRANCH   2  11
ATOM     11  C   UNL d   1     -49.803  26.522  33.935  0.00  0.00     0.023 A 
ATOM     12  C   UNL d   1     -49.722  26.800  34.716  0.00  0.00     0.002 A 
ATOM     13  C   UNL d   1     -49.343  27.527  34.868  0.00  0.00     0.000 A 
ATOM     14  C   UNL d   1     -49.052  27.962  34.227  0.00  0.00     0.000 A 
ATOM     15  C   UNL d   1     -49.133  27.686  33.458  0.00  0.00     0.000 A 
ATOM     16  C   UNL d   1     -49.506  26.970  33.312  0.00  0.00     0.002 A 
ENDBRANCH   2  11
BRANCH   1  17
ATOM     17  C   UNL d   1     -51.246  26.450  33.936  0.00  0.00     0.302 C 
ATOM     18  O   UNL d   1     -51.507  26.927  33.317  0.00  0.00    -0.259 OA
BRANCH  17  19
ATOM     19  O   UNL d   1     -51.241  26.750  34.699  0.00  0.00    -0.271 OA
BRANCH  19  20
ATOM     20  C   UNL d   1     -51.936  26.840  35.127  0.00  0.00     0.126 C 
ATOM     21  C   UNL d   1     -52.127  26.327  35.750  0.00  0.00     0.029 C 
ENDBRANCH  19  20
ENDBRANCH  17  19
ENDBRANCH   1  17
BRANCH   5  22
ATOM     22  C   UNL d   1     -52.547  24.812  33.628  0.00  0.00     0.084 C 
BRANCH  22  23
ATOM     23  N   UNL d   1     -53.223  24.373  33.806  0.00  0.00    -0.300 N 
ATOM     24  C   UNL d   1     -53.169  23.760  34.347  0.00  0.00     0.100 C 
ATOM     25  C   UNL d   1     -53.934  24.541  33.451  0.00  0.00     0.100 C 
ENDBRANCH  22  23
ENDBRANCH   5  22
TORSDOF 6
ENDMDL
