MODEL 1
REMARK VINA RESULT:      34.4      0.000      0.000
REMARK  5 active torsions:
REMARK  status: ('A' for Active; 'I' for Inactive)
REMARK    1  A    between atoms: C_6  and  N_1 
REMARK    2  A    between atoms: C_10  and  C_6 
REMARK    3  A    between atoms: O_18  and  C_12 
REMARK    4  A    between atoms: C_20  and  O_18 
REMARK    5  A    between atoms: C_21  and  C_20 
ROOT
ATOM      1  N   UNL d   1      13.129  12.730  -3.718  0.00  0.00    -0.251 N 
ATOM      2  C   UNL d   1      13.005  13.512  -3.451  0.00  0.00     0.378 A 
ATOM      3  C   UNL d   1      13.323  12.764  -4.522  0.00  0.00     0.092 A 
ATOM      4  O   UNL d   1      13.124  14.024  -4.090  0.00  0.00    -0.258 OA
ATOM      5  C   UNL d   1      13.320  13.563  -4.752  0.00  0.00     0.121 A 
ATOM      6  O   UNL d   1      12.802  13.727  -2.684  0.00  0.00    -0.237 OA
ATOM      7  C   UNL d   1      13.499  12.174  -5.064  0.00  0.00     0.020 A 
ATOM      8  C   UNL d   1      13.498  13.759  -5.536  0.00  0.00     0.026 A 
ATOM      9  C   UNL d   1      13.675  12.380  -5.844  0.00  0.00     0.002 A 
ATOM     10  C   UNL d   1      13.674  13.169  -6.079  0.00  0.00     0.002 A 
ATOM     11  C   UNL d   1      13.852  11.781  -6.388  0.00  0.00     0.000 C 
ENDROOT
BRANCH   1  12
ATOM     12  C   UNL d   1      13.077  12.025  -3.294  0.00  0.00     0.085 C 
BRANCH  12  13
ATOM     13  C   UNL d   1      13.437  11.964  -2.554  0.00  0.00     0.018 A 
ATOM     14  C   UNL d   1      14.248  12.022  -2.482  0.00  0.00     0.004 A 
ATOM     15  C   UNL d   1      14.603  11.962  -1.748  0.00  0.00     0.025 A 
ATOM     16  C   UNL d   1      14.141  11.841  -1.076  0.00  0.00     0.100 A 
ATOM     17  C   UNL d   1      13.323  11.782  -1.148  0.00  0.00     0.025 A 
ATOM     18  C   UNL d   1      12.966  11.843  -1.891  0.00  0.00     0.004 A 
BRANCH  16  19
ATOM     19  O   UNL d   1      14.498  11.780  -0.339  0.00  0.00    -0.305 OA
BRANCH  19  20
ATOM     20  C   UNL d   1      14.937  12.407  -0.046  0.00  0.00     0.123 C 
BRANCH  20  21
ATOM     21  C   UNL d   1      14.769  13.172  -0.282  0.00  0.00     0.027 C 
ATOM     22  C   UNL d   1      15.235  13.800  -0.016  0.00  0.00     0.002 C 
ENDBRANCH  20  21
ENDBRANCH  19  20
ENDBRANCH  16  19
ENDBRANCH  12  13
ENDBRANCH   1  12
TORSDOF 5
ENDMDL
