MODEL 1
REMARK VINA RESULT:      29.2      0.000      0.000
REMARK  3 active torsions:
REMARK  status: ('A' for Active; 'I' for Inactive)
REMARK    1  A    between atoms: S_8  and  C_2 
REMARK       I    between atoms: N_6  and  C_7 
REMARK    2  A    between atoms: C_7  and  C_9 
REMARK    3  A    between atoms: C_9  and  S_8 
ROOT
ATOM      1  N   UNL d   1      57.683  49.594  50.905  0.00  0.00    -0.267 N 
ATOM      2  C   UNL d   1      58.386  49.547  51.341  0.00  0.00     0.272 C 
ATOM      3  O   UNL d   1      58.358  49.546  52.172  0.00  0.00    -0.266 OA
ATOM      4  O   UNL d   1      56.289  49.685  50.033  0.00  0.00    -0.300 OA
ATOM      5  C   UNL d   1      56.960  49.638  51.292  0.00  0.00     0.110 A 
ATOM      6  C   UNL d   1      57.712  49.595  50.082  0.00  0.00     0.110 A 
ATOM      7  C   UNL d   1      57.017  49.641  49.647  0.00  0.00     0.142 A 
ATOM      8  C   UNL d   1      56.261  49.684  50.856  0.00  0.00     0.142 A 
ENDROOT
BRANCH   2   9
ATOM      9  C   UNL d   1      59.114  49.503  50.954  0.00  0.00     0.099 C 
BRANCH   9  10
ATOM     10  S   UNL d   1      59.811  49.617  51.376  0.00  0.00    -0.041 SA
BRANCH  10  11
ATOM     11  C   UNL d   1      60.531  49.398  51.046  0.00  0.00     0.233 A 
ATOM     12  N   UNL d   1      60.962  49.695  50.403  0.00  0.00    -0.029 NA
ATOM     13  C   UNL d   1      61.649  49.249  50.336  0.00  0.00     0.788 A 
ATOM     14  N   UNL d   1      61.655  48.683  50.920  0.00  0.00     0.050 NA
ATOM     15  N   UNL d   1      62.243  49.366  49.753  0.00  0.00     0.064 N 
ATOM     16  N   UNL d   1      60.962  48.769  51.368  0.00  0.00    -0.105 NA
ENDBRANCH  10  11
ENDBRANCH   9  10
ENDBRANCH   2   9
TORSDOF 3
ENDMDL
