MODEL 1
REMARK VINA RESULT:      -4.7      0.000      0.000
REMARK  3 active torsions:
REMARK  status: ('A' for Active; 'I' for Inactive)
REMARK    1  A    between atoms: N_11  and  C_4 
REMARK       I    between atoms: C_5  and  N_9 
REMARK       I    between atoms: N_12  and  C_5 
REMARK    2  A    between atoms: C_6  and  C_7 
REMARK    3  A    between atoms: C_14  and  N_12 
ROOT
ATOM      1  C   UNL d   1     -41.474-123.134 -52.844  0.00  0.00     0.354 C 
ATOM      2  N   UNL d   1     -41.540-123.142 -52.014  0.00  0.00    -0.253 N 
ATOM      3  N   UNL d   1     -41.675-123.145 -50.376  0.00  0.00    -0.285 N 
ATOM      4  N   UNL d   1     -41.758-122.492 -53.279  0.00  0.00    -0.192 NA
ATOM      5  O   UNL d   1     -41.123-123.776 -53.234  0.00  0.00    -0.244 OA
ATOM      6  C   UNL d   1     -41.890-122.503 -51.625  0.00  0.00     0.104 A 
ATOM      7  C   UNL d   1     -41.256-123.784 -51.579  0.00  0.00     0.104 A 
ATOM      8  C   UNL d   1     -41.956-122.507 -50.803  0.00  0.00     0.101 A 
ATOM      9  C   UNL d   1     -41.325-123.783 -50.764  0.00  0.00     0.101 A 
ENDROOT
BRANCH   4  10
ATOM     10  C   UNL d   1     -41.691-122.489 -54.102  0.00  0.00     0.090 A 
ATOM     11  C   UNL d   1     -42.013-121.867 -54.540  0.00  0.00     0.089 A 
ATOM     12  C   UNL d   1     -41.945-121.865 -55.359  0.00  0.00     0.005 A 
ATOM     13  C   UNL d   1     -41.559-122.479 -55.742  0.00  0.00     0.000 A 
ATOM     14  C   UNL d   1     -41.236-123.103 -55.299  0.00  0.00     0.002 A 
ATOM     15  C   UNL d   1     -41.305-123.103 -54.484  0.00  0.00     0.019 A 
BRANCH  11  16
ATOM     16  C   UNL d   1     -42.401-121.249 -54.155  0.00  0.00     0.420 C 
ATOM     17  F   UNL d   1     -42.790-120.631 -53.770  0.00  0.00    -0.166 F 
ATOM     18  F   UNL d   1     -41.683-120.868 -54.041  0.00  0.00    -0.166 F 
ATOM     19  F   UNL d   1     -43.123-121.632 -54.269  0.00  0.00    -0.166 F 
ENDBRANCH  11  16
ENDBRANCH   4  10
BRANCH   3  20
ATOM     20  C   UNL d   1     -41.741-123.149 -49.553  0.00  0.00     0.168 A 
ATOM     21  N   UNL d   1     -42.425-123.439 -49.195  0.00  0.00    -0.144 NA
ATOM     22  N   UNL d   1     -42.489-123.442 -48.377  0.00  0.00    -0.187 N 
ATOM     23  C   UNL d   1     -41.871-123.155 -47.912  0.00  0.00     0.187 A 
ATOM     24  C   UNL d   1     -43.086-123.689 -47.868  0.00  0.00     0.224 A 
ATOM     25  N   UNL d   1     -42.090-123.228 -47.120  0.00  0.00    -0.127 NA
ATOM     26  C   UNL d   1     -41.188-122.866 -48.266  0.00  0.00     0.044 A 
ATOM     27  N   UNL d   1     -42.847-123.561 -47.102  0.00  0.00    -0.124 NA
ATOM     28  C   UNL d   1     -41.123-122.862 -49.089  0.00  0.00     0.042 A 
ENDBRANCH   3  20
TORSDOF 3
ENDMDL
MODEL 2
REMARK VINA RESULT:      -4.2      2.203      5.655
REMARK  3 active torsions:
REMARK  status: ('A' for Active; 'I' for Inactive)
REMARK    1  A    between atoms: N_11  and  C_4 
REMARK       I    between atoms: C_5  and  N_9 
REMARK       I    between atoms: N_12  and  C_5 
REMARK    2  A    between atoms: C_6  and  C_7 
REMARK    3  A    between atoms: C_14  and  N_12 
ROOT
ATOM      1  C   UNL d   1     -41.537-122.426 -50.107  0.00  0.00     0.354 C 
ATOM      2  N   UNL d   1     -41.553-122.436 -50.941  0.00  0.00    -0.253 N 
ATOM      3  N   UNL d   1     -41.591-122.466 -52.583  0.00  0.00    -0.285 N 
ATOM      4  N   UNL d   1     -41.932-123.009 -49.676  0.00  0.00    -0.192 NA
ATOM      5  O   UNL d   1     -41.123-121.826 -49.712  0.00  0.00    -0.244 OA
ATOM      6  C   UNL d   1     -41.965-123.032 -51.335  0.00  0.00     0.104 A 
ATOM      7  C   UNL d   1     -41.158-121.852 -51.372  0.00  0.00     0.104 A 
ATOM      8  C   UNL d   1     -41.982-123.045 -52.160  0.00  0.00     0.101 A 
ATOM      9  C   UNL d   1     -41.178-121.869 -52.189  0.00  0.00     0.101 A 
ENDROOT
BRANCH   4  10
ATOM     10  C   UNL d   1     -41.913-122.995 -48.851  0.00  0.00     0.090 A 
ATOM     11  C   UNL d   1     -42.619-122.996 -48.423  0.00  0.00     0.089 A 
ATOM     12  C   UNL d   1     -42.599-122.982 -47.601  0.00  0.00     0.005 A 
ATOM     13  C   UNL d   1     -41.881-122.968 -47.207  0.00  0.00     0.000 A 
ATOM     14  C   UNL d   1     -41.172-122.967 -47.639  0.00  0.00     0.002 A 
ATOM     15  C   UNL d   1     -41.195-122.981 -48.457  0.00  0.00     0.019 A 
BRANCH  11  16
ATOM     16  C   UNL d   1     -43.343-123.010 -48.820  0.00  0.00     0.420 C 
ATOM     17  F   UNL d   1     -44.066-123.025 -49.216  0.00  0.00    -0.166 F 
ATOM     18  F   UNL d   1     -43.258-123.817 -48.946  0.00  0.00    -0.166 F 
ATOM     19  F   UNL d   1     -43.428-122.200 -48.693  0.00  0.00    -0.166 F 
ENDBRANCH  11  16
ENDBRANCH   4  10
BRANCH   3  20
ATOM     20  C   UNL d   1     -41.608-122.479 -53.408  0.00  0.00     0.168 A 
ATOM     21  N   UNL d   1     -42.088-121.948 -53.820  0.00  0.00    -0.144 NA
ATOM     22  N   UNL d   1     -42.104-121.963 -54.641  0.00  0.00    -0.187 N 
ATOM     23  C   UNL d   1     -41.641-122.507 -55.054  0.00  0.00     0.187 A 
ATOM     24  C   UNL d   1     -42.515-121.517 -55.195  0.00  0.00     0.224 A 
ATOM     25  N   UNL d   1     -41.769-122.393 -55.861  0.00  0.00    -0.127 NA
ATOM     26  C   UNL d   1     -41.162-123.036 -54.647  0.00  0.00     0.044 A 
ATOM     27  N   UNL d   1     -42.315-121.774 -55.939  0.00  0.00    -0.124 NA
ATOM     28  C   UNL d   1     -41.145-123.022 -53.821  0.00  0.00     0.042 A 
ENDBRANCH   3  20
TORSDOF 3
ENDMDL
