MODEL 1
REMARK VINA RESULT:      -4.7      0.000      0.000
REMARK  6 active torsions:
REMARK  status: ('A' for Active; 'I' for Inactive)
REMARK    1  A    between atoms: C_6  and  N_2 
REMARK    2  A    between atoms: C_7  and  C_3 
REMARK    3  A    between atoms: C_8  and  C_6 
REMARK    4  A    between atoms: C_14  and  C_8 
REMARK    5  A    between atoms: C_9  and  O_12 
REMARK    6  A    between atoms: O_12  and  C_14 
ROOT
ATOM      1  N   UNL d   1      59.936  -1.620  28.631  0.00  0.00    -0.224 NA
ATOM      2  N   UNL d   1      59.040  -1.116  29.488  0.00  0.00    -0.286 N 
ATOM      3  C   UNL d   1      59.241  -1.808  29.060  0.00  0.00     0.191 A 
ATOM      4  C   UNL d   1      59.589  -0.531  29.327  0.00  0.00     0.083 A 
ATOM      5  C   UNL d   1      60.168  -0.857  28.773  0.00  0.00     0.099 A 
ATOM      6  C   UNL d   1      59.650   0.235  29.595  0.00  0.00     0.019 A 
ATOM      7  C   UNL d   1      60.778  -0.337  28.541  0.00  0.00     0.021 A 
ATOM      8  C   UNL d   1      60.270   0.682  29.326  0.00  0.00     0.002 A 
ATOM      9  C   UNL d   1      60.811   0.378  28.808  0.00  0.00     0.002 A 
ENDROOT
BRANCH   2  10
ATOM     10  C   UNL d   1      58.383  -1.193  29.936  0.00  0.00     0.084 C 
BRANCH  10  11
ATOM     11  C   UNL d   1      58.074  -0.573  30.384  0.00  0.00     0.046 C 
BRANCH  11  12
ATOM     12  C   UNL d   1      57.441  -0.658  30.896  0.00  0.00     0.124 C 
BRANCH  12  13
ATOM     13  O   UNL d   1      57.338  -0.194  31.560  0.00  0.00    -0.305 OA
BRANCH  13  14
ATOM     14  C   UNL d   1      56.728  -0.308  32.103  0.00  0.00     0.100 A 
ATOM     15  C   UNL d   1      56.453  -1.050  32.334  0.00  0.00     0.025 A 
ATOM     16  C   UNL d   1      55.844  -1.163  32.875  0.00  0.00     0.002 A 
ATOM     17  C   UNL d   1      55.483  -0.485  33.211  0.00  0.00     0.000 A 
ATOM     18  C   UNL d   1      55.744   0.279  32.993  0.00  0.00     0.002 A 
ATOM     19  C   UNL d   1      56.366   0.369  32.438  0.00  0.00     0.025 A 
ENDBRANCH  13  14
ENDBRANCH  12  13
ENDBRANCH  11  12
ENDBRANCH  10  11
ENDBRANCH   2  10
BRANCH   3  20
ATOM     20  C   UNL d   1      58.622  -2.254  29.330  0.00  0.00     0.271 C 
ATOM     21  O   UNL d   1      58.562  -3.055  29.084  0.00  0.00    -0.280 OA
ENDBRANCH   3  20
TORSDOF 6
ENDMDL
MODEL 2
REMARK VINA RESULT:      -4.3      1.078      2.043
REMARK  6 active torsions:
REMARK  status: ('A' for Active; 'I' for Inactive)
REMARK    1  A    between atoms: C_6  and  N_2 
REMARK    2  A    between atoms: C_7  and  C_3 
REMARK    3  A    between atoms: C_8  and  C_6 
REMARK    4  A    between atoms: C_14  and  C_8 
REMARK    5  A    between atoms: C_9  and  O_12 
REMARK    6  A    between atoms: O_12  and  C_14 
ROOT
ATOM      1  N   UNL d   1      60.275  -1.357  28.627  0.00  0.00    -0.224 NA
ATOM      2  N   UNL d   1      59.226  -1.073  29.408  0.00  0.00    -0.286 N 
ATOM      3  C   UNL d   1      59.901  -0.735  29.045  0.00  0.00     0.191 A 
ATOM      4  C   UNL d   1      59.190  -1.868  29.219  0.00  0.00     0.083 A 
ATOM      5  C   UNL d   1      59.868  -2.052  28.714  0.00  0.00     0.099 A 
ATOM      6  C   UNL d   1      58.653  -2.445  29.426  0.00  0.00     0.019 A 
ATOM      7  C   UNL d   1      59.927  -2.845  28.462  0.00  0.00     0.021 A 
ATOM      8  C   UNL d   1      58.775  -3.194  29.143  0.00  0.00     0.002 A 
ATOM      9  C   UNL d   1      59.408  -3.365  28.671  0.00  0.00     0.002 A 
ENDROOT
BRANCH   2  10
ATOM     10  C   UNL d   1      58.795  -0.554  29.837  0.00  0.00     0.084 C 
BRANCH  10  11
ATOM     11  C   UNL d   1      58.018  -0.704  30.067  0.00  0.00     0.046 C 
BRANCH  11  12
ATOM     12  C   UNL d   1      57.698  -0.442  30.773  0.00  0.00     0.124 C 
BRANCH  12  13
ATOM     13  O   UNL d   1      56.951  -0.649  31.029  0.00  0.00    -0.305 OA
BRANCH  13  14
ATOM     14  C   UNL d   1      56.665  -0.476  31.783  0.00  0.00     0.100 A 
ATOM     15  C   UNL d   1      56.619   0.287  32.092  0.00  0.00     0.025 A 
ATOM     16  C   UNL d   1      56.334   0.458  32.845  0.00  0.00     0.002 A 
ATOM     17  C   UNL d   1      56.077  -0.179  33.325  0.00  0.00     0.000 A 
ATOM     18  C   UNL d   1      56.113  -0.963  33.034  0.00  0.00     0.002 A 
ATOM     19  C   UNL d   1      56.408  -1.113  32.264  0.00  0.00     0.025 A 
ENDBRANCH  13  14
ENDBRANCH  12  13
ENDBRANCH  11  12
ENDBRANCH  10  11
ENDBRANCH   2  10
BRANCH   3  20
ATOM     20  C   UNL d   1      59.779   0.015  29.327  0.00  0.00     0.271 C 
ATOM     21  O   UNL d   1      60.320   0.622  29.115  0.00  0.00    -0.280 OA
ENDBRANCH   3  20
TORSDOF 6
ENDMDL
MODEL 3
REMARK VINA RESULT:      -3.4      2.157      5.381
REMARK  6 active torsions:
REMARK  status: ('A' for Active; 'I' for Inactive)
REMARK    1  A    between atoms: C_6  and  N_2 
REMARK    2  A    between atoms: C_7  and  C_3 
REMARK    3  A    between atoms: C_8  and  C_6 
REMARK    4  A    between atoms: C_14  and  C_8 
REMARK    5  A    between atoms: C_9  and  O_12 
REMARK    6  A    between atoms: O_12  and  C_14 
ROOT
ATOM      1  N   UNL d   1      56.664   0.669  34.635  0.00  0.00    -0.224 NA
ATOM      2  N   UNL d   1      56.768   0.669  33.301  0.00  0.00    -0.286 N 
ATOM      3  C   UNL d   1      57.218   0.674  34.007  0.00  0.00     0.191 A 
ATOM      4  C   UNL d   1      55.972   0.660  33.490  0.00  0.00     0.083 A 
ATOM      5  C   UNL d   1      55.905   0.660  34.353  0.00  0.00     0.099 A 
ATOM      6  C   UNL d   1      55.308   0.652  33.018  0.00  0.00     0.019 A 
ATOM      7  C   UNL d   1      55.127   0.652  34.655  0.00  0.00     0.021 A 
ATOM      8  C   UNL d   1      54.585   0.645  33.383  0.00  0.00     0.002 A 
ATOM      9  C   UNL d   1      54.522   0.645  34.188  0.00  0.00     0.002 A 
ENDROOT
BRANCH   2  10
ATOM     10  C   UNL d   1      57.209   0.673  32.635  0.00  0.00     0.084 C 
BRANCH  10  11
ATOM     11  C   UNL d   1      57.069   0.161  32.004  0.00  0.00     0.046 C 
BRANCH  11  12
ATOM     12  C   UNL d   1      57.439   0.229  31.277  0.00  0.00     0.124 C 
BRANCH  12  13
ATOM     13  O   UNL d   1      57.390  -0.342  30.696  0.00  0.00    -0.305 OA
BRANCH  13  14
ATOM     14  C   UNL d   1      57.918  -0.394  30.065  0.00  0.00     0.100 A 
ATOM     15  C   UNL d   1      58.057   0.221  29.533  0.00  0.00     0.025 A 
ATOM     16  C   UNL d   1      58.584   0.168  28.903  0.00  0.00     0.002 A 
ATOM     17  C   UNL d   1      59.003  -0.549  28.796  0.00  0.00     0.000 A 
ATOM     18  C   UNL d   1      58.879  -1.188  29.323  0.00  0.00     0.002 A 
ATOM     19  C   UNL d   1      58.337  -1.111  29.958  0.00  0.00     0.025 A 
ENDBRANCH  13  14
ENDBRANCH  12  13
ENDBRANCH  11  12
ENDBRANCH  10  11
ENDBRANCH   2  10
BRANCH   3  20
ATOM     20  C   UNL d   1      57.942   0.682  33.643  0.00  0.00     0.271 C 
ATOM     21  O   UNL d   1      58.634   0.618  34.114  0.00  0.00    -0.280 OA
ENDBRANCH   3  20
TORSDOF 6
ENDMDL
MODEL 4
REMARK VINA RESULT:      -3.0      1.772      4.891
REMARK  6 active torsions:
REMARK  status: ('A' for Active; 'I' for Inactive)
REMARK    1  A    between atoms: C_6  and  N_2 
REMARK    2  A    between atoms: C_7  and  C_3 
REMARK    3  A    between atoms: C_8  and  C_6 
REMARK    4  A    between atoms: C_14  and  C_8 
REMARK    5  A    between atoms: C_9  and  O_12 
REMARK    6  A    between atoms: O_12  and  C_14 
ROOT
ATOM      1  N   UNL d   1      57.514   0.615  33.577  0.00  0.00    -0.224 NA
ATOM      2  N   UNL d   1      57.358   0.208  32.312  0.00  0.00    -0.286 N 
ATOM      3  C   UNL d   1      57.901   0.573  32.835  0.00  0.00     0.191 A 
ATOM      4  C   UNL d   1      56.669   0.035  32.717  0.00  0.00     0.083 A 
ATOM      5  C   UNL d   1      56.769   0.299  33.535  0.00  0.00     0.099 A 
ATOM      6  C   UNL d   1      55.976  -0.316  32.472  0.00  0.00     0.019 A 
ATOM      7  C   UNL d   1      56.118   0.169  34.040  0.00  0.00     0.021 A 
ATOM      8  C   UNL d   1      55.385  -0.409  33.018  0.00  0.00     0.002 A 
ATOM      9  C   UNL d   1      55.479  -0.163  33.782  0.00  0.00     0.002 A 
ENDROOT
BRANCH   2  10
ATOM     10  C   UNL d   1      57.636   0.119  31.568  0.00  0.00     0.084 C 
BRANCH  10  11
ATOM     11  C   UNL d   1      57.502  -0.560  31.120  0.00  0.00     0.046 C 
BRANCH  11  12
ATOM     12  C   UNL d   1      57.875  -0.712  30.408  0.00  0.00     0.124 C 
BRANCH  12  13
ATOM     13  O   UNL d   1      57.896  -1.452  30.063  0.00  0.00    -0.305 OA
BRANCH  13  14
ATOM     14  C   UNL d   1      58.486  -1.691  29.539  0.00  0.00     0.100 A 
ATOM     15  C   UNL d   1      58.746  -2.470  29.468  0.00  0.00     0.025 A 
ATOM     16  C   UNL d   1      59.334  -2.709  28.944  0.00  0.00     0.002 A 
ATOM     17  C   UNL d   1      59.689  -2.128  28.456  0.00  0.00     0.000 A 
ATOM     18  C   UNL d   1      59.442  -1.330  28.509  0.00  0.00     0.002 A 
ATOM     19  C   UNL d   1      58.841  -1.110  29.050  0.00  0.00     0.025 A 
ENDBRANCH  13  14
ENDBRANCH  12  13
ENDBRANCH  11  12
ENDBRANCH  10  11
ENDBRANCH   2  10
BRANCH   3  20
ATOM     20  C   UNL d   1      58.492   0.666  32.289  0.00  0.00     0.271 C 
ATOM     21  O   UNL d   1      59.289   0.681  32.552  0.00  0.00    -0.280 OA
ENDBRANCH   3  20
TORSDOF 6
ENDMDL
