MODEL 1
REMARK VINA RESULT:      -5.3      0.000      0.000
REMARK  4 active torsions:
REMARK  status: ('A' for Active; 'I' for Inactive)
REMARK    1  A    between atoms: C_6  and  C_1 
REMARK    2  A    between atoms: C_8  and  N_3 
REMARK    3  A    between atoms: C_9  and  C_6 
REMARK    4  A    between atoms: N_7  and  C_9 
ROOT
ATOM      1  C   UNL d   1     -41.913-122.809 -51.326  0.00  0.00     0.058 A 
ATOM      2  C   UNL d   1     -41.685-123.213 -50.665  0.00  0.00     0.067 A 
ATOM      3  N   UNL d   1     -42.086-122.938 -50.019  0.00  0.00    -0.306 N 
ATOM      4  C   UNL d   1     -42.557-122.362 -50.306  0.00  0.00     0.064 A 
ATOM      5  C   UNL d   1     -42.433-122.294 -51.144  0.00  0.00     0.022 A 
ATOM      6  C   UNL d   1     -41.123-123.817 -50.663  0.00  0.00     0.019 C 
ATOM      7  C   UNL d   1     -43.053-121.936 -49.866  0.00  0.00     0.019 C 
ENDROOT
BRANCH   1   8
ATOM      8  C   UNL d   1     -41.630-122.921 -52.125  0.00  0.00     0.214 C 
ATOM      9  O   UNL d   1     -41.576-123.656 -52.441  0.00  0.00    -0.285 OA
BRANCH   8  10
ATOM     10  C   UNL d   1     -41.388-122.259 -52.632  0.00  0.00     0.123 C 
BRANCH  10  11
ATOM     11  N   UNL d   1     -41.598-122.199 -53.429  0.00  0.00    -0.300 N 
ATOM     12  C   UNL d   1     -42.169-121.684 -53.701  0.00  0.00     0.080 A 
ATOM     13  C   UNL d   1     -42.386-121.624 -54.545  0.00  0.00     0.019 A 
ATOM     14  C   UNL d   1     -42.023-122.075 -55.041  0.00  0.00     0.003 A 
ATOM     15  C   UNL d   1     -41.432-122.612 -54.776  0.00  0.00     0.019 A 
ATOM     16  C   UNL d   1     -42.244-122.008 -55.858  0.00  0.00     0.000 C 
ATOM     17  C   UNL d   1     -41.218-122.676 -53.977  0.00  0.00     0.080 A 
ENDBRANCH  10  11
ENDBRANCH   8  10
ENDBRANCH   1   8
BRANCH   3  18
ATOM     18  C   UNL d   1     -42.090-123.129 -49.207  0.00  0.00     0.064 A 
ATOM     19  C   UNL d   1     -42.697-123.466 -48.843  0.00  0.00     0.020 A 
ATOM     20  C   UNL d   1     -42.699-123.666 -47.994  0.00  0.00     0.031 A 
ATOM     21  C   UNL d   1     -42.068-123.504 -47.566  0.00  0.00     0.140 A 
ATOM     22  C   UNL d   1     -41.423-123.156 -47.908  0.00  0.00     0.031 A 
ATOM     23  F   UNL d   1     -42.066-123.701 -46.716  0.00  0.00    -0.204 F 
ATOM     24  C   UNL d   1     -41.456-122.978 -48.727  0.00  0.00     0.020 A 
ENDBRANCH   3  18
TORSDOF 4
ENDMDL
