MODEL 1
REMARK VINA RESULT:      25.7      0.000      0.000
REMARK  3 active torsions:
REMARK  status: ('A' for Active; 'I' for Inactive)
REMARK    1  A    between atoms: N_5  and  C_1 
REMARK    2  A    between atoms: C_7  and  N_4 
REMARK    3  A    between atoms: C_12  and  C_7 
ROOT
ATOM      1  C   UNL d   1      60.658  49.569  51.248  0.00  0.00     0.232 A 
ATOM      2  N   UNL d   1      61.030  49.668  50.525  0.00  0.00    -0.204 NA
ATOM      3  C   UNL d   1      59.856  49.466  51.133  0.00  0.00     0.141 A 
ATOM      4  N   UNL d   1      59.712  49.499  50.313  0.00  0.00    -0.282 N 
ATOM      5  C   UNL d   1      60.443  49.625  49.934  0.00  0.00     0.150 A 
ATOM      6 BR   UNL d   1      59.270  49.347  51.717  0.00  0.00    -0.026 Br
ATOM      7  C   UNL d   1      60.592  49.700  49.097  0.00  0.00     0.041 C 
ENDROOT
BRANCH   4   8
ATOM      8  C   UNL d   1      59.013  49.432  49.861  0.00  0.00     0.082 C 
BRANCH   8   9
ATOM      9  C   UNL d   1      58.265  49.490  50.212  0.00  0.00     0.018 A 
ATOM     10  C   UNL d   1      58.201  49.645  51.015  0.00  0.00     0.002 A 
ATOM     11  C   UNL d   1      57.465  49.706  51.382  0.00  0.00     0.000 A 
ATOM     12  C   UNL d   1      56.776  49.613  50.954  0.00  0.00     0.000 A 
ATOM     13  C   UNL d   1      56.824  49.455  50.136  0.00  0.00     0.000 A 
ATOM     14  C   UNL d   1      57.549  49.390  49.750  0.00  0.00     0.002 A 
ENDBRANCH   8   9
ENDBRANCH   4   8
BRANCH   1  15
ATOM     15  N   UNL d   1      61.033  49.574  51.974  0.00  0.00    -0.093 N 
ATOM     16  O   UNL d   1      61.855  49.519  52.092  0.00  0.00    -0.530 OA
ATOM     17  O   UNL d   1      60.647  49.634  52.695  0.00  0.00    -0.530 OA
ENDBRANCH   1  15
TORSDOF 3
ENDMDL
