MODEL 1
REMARK VINA RESULT:      -4.3      0.000      0.000
REMARK  3 active torsions:
REMARK  status: ('A' for Active; 'I' for Inactive)
REMARK    1  A    between atoms: C_10  and  N_4 
REMARK    2  A    between atoms: C_11  and  N_6 
REMARK    3  A    between atoms: C_16  and  C_11 
ROOT
ATOM      1  C   UNL d   1     -41.686-122.556 -51.216  0.00  0.00     0.172 A 
ATOM      2  C   UNL d   1     -41.497-121.925 -51.714  0.00  0.00     0.113 A 
ATOM      3  N   UNL d   1     -41.689-123.324 -51.506  0.00  0.00    -0.206 NA
ATOM      4  N   UNL d   1     -41.845-122.240 -50.466  0.00  0.00    -0.212 N 
ATOM      5  C   UNL d   1     -41.311-122.063 -52.501  0.00  0.00     0.270 A 
ATOM      6  N   UNL d   1     -41.313-122.836 -52.798  0.00  0.00    -0.254 N 
ATOM      7  N   UNL d   1     -41.752-121.428 -50.511  0.00  0.00    -0.162 NA
ATOM      8  C   UNL d   1     -41.502-123.466 -52.300  0.00  0.00     0.187 A 
ATOM      9  C   UNL d   1     -41.542-121.232 -51.262  0.00  0.00     0.129 A 
ATOM     10  O   UNL d   1     -41.123-121.433 -52.998  0.00  0.00    -0.266 OA
ENDROOT
BRANCH   4  11
ATOM     11  C   UNL d   1     -42.057-122.630 -49.783  0.00  0.00     0.085 A 
ATOM     12  C   UNL d   1     -41.472-122.983 -49.305  0.00  0.00     0.021 A 
ATOM     13  C   UNL d   1     -41.692-123.373 -48.620  0.00  0.00     0.031 A 
ATOM     14  C   UNL d   1     -42.503-123.418 -48.398  0.00  0.00     0.140 A 
ATOM     15  C   UNL d   1     -43.063-123.070 -48.872  0.00  0.00     0.031 A 
ATOM     16  F   UNL d   1     -42.738-123.816 -47.697  0.00  0.00    -0.204 F 
ATOM     17  C   UNL d   1     -42.852-122.676 -49.563  0.00  0.00     0.021 A 
ENDBRANCH   4  11
BRANCH   6  18
ATOM     18  C   UNL d   1     -41.126-122.984 -53.597  0.00  0.00     0.104 C 
BRANCH  18  19
ATOM     19  C   UNL d   1     -41.729-123.013 -54.168  0.00  0.00     0.099 A 
ATOM     20  N   UNL d   1     -42.104-123.732 -54.318  0.00  0.00    -0.242 NA
ATOM     21  C   UNL d   1     -42.714-123.766 -54.893  0.00  0.00     0.099 A 
ATOM     22  C   UNL d   1     -42.913-123.077 -55.287  0.00  0.00     0.021 A 
ATOM     23  C   UNL d   1     -42.533-122.353 -55.133  0.00  0.00     0.003 A 
ATOM     24  C   UNL d   1     -41.940-122.334 -54.570  0.00  0.00     0.021 A 
ENDBRANCH  18  19
ENDBRANCH   6  18
TORSDOF 3
ENDMDL
MODEL 2
REMARK VINA RESULT:      -3.3      2.073      4.563
REMARK  3 active torsions:
REMARK  status: ('A' for Active; 'I' for Inactive)
REMARK    1  A    between atoms: C_10  and  N_4 
REMARK    2  A    between atoms: C_11  and  N_6 
REMARK    3  A    between atoms: C_16  and  C_11 
ROOT
ATOM      1  C   UNL d   1     -41.637-122.386 -52.342  0.00  0.00     0.172 A 
ATOM      2  C   UNL d   1     -41.385-121.979 -51.670  0.00  0.00     0.113 A 
ATOM      3  N   UNL d   1     -41.879-123.168 -52.285  0.00  0.00    -0.206 NA
ATOM      4  N   UNL d   1     -41.583-121.863 -52.984  0.00  0.00    -0.212 N 
ATOM      5  C   UNL d   1     -41.374-122.354 -50.941  0.00  0.00     0.270 A 
ATOM      6  N   UNL d   1     -41.618-123.143 -50.878  0.00  0.00    -0.254 N 
ATOM      7  N   UNL d   1     -41.302-121.148 -52.700  0.00  0.00    -0.162 NA
ATOM      8  C   UNL d   1     -41.870-123.550 -51.550  0.00  0.00     0.187 A 
ATOM      9  C   UNL d   1     -41.180-121.211 -51.909  0.00  0.00     0.129 A 
ATOM     10  O   UNL d   1     -41.122-121.947 -50.269  0.00  0.00    -0.266 OA
ENDROOT
BRANCH   4  11
ATOM     11  C   UNL d   1     -41.766-121.994 -53.766  0.00  0.00     0.085 A 
ATOM     12  C   UNL d   1     -41.239-122.418 -54.253  0.00  0.00     0.021 A 
ATOM     13  C   UNL d   1     -41.429-122.547 -55.038  0.00  0.00     0.031 A 
ATOM     14  C   UNL d   1     -42.152-122.254 -55.354  0.00  0.00     0.140 A 
ATOM     15  C   UNL d   1     -42.658-121.843 -54.869  0.00  0.00     0.031 A 
ATOM     16  F   UNL d   1     -42.356-122.382 -56.159  0.00  0.00    -0.204 F 
ATOM     17  C   UNL d   1     -42.476-121.708 -54.079  0.00  0.00     0.021 A 
ENDBRANCH   4  11
BRANCH   6  18
ATOM     18  C   UNL d   1     -41.610-123.532 -50.139  0.00  0.00     0.104 C 
BRANCH  18  19
ATOM     19  C   UNL d   1     -42.301-123.563 -49.678  0.00  0.00     0.099 A 
ATOM     20  N   UNL d   1     -43.011-123.784 -50.036  0.00  0.00    -0.242 NA
ATOM     21  C   UNL d   1     -43.710-123.817 -49.574  0.00  0.00     0.099 A 
ATOM     22  C   UNL d   1     -43.661-123.627 -48.781  0.00  0.00     0.021 A 
ATOM     23  C   UNL d   1     -42.943-123.404 -48.423  0.00  0.00     0.003 A 
ATOM     24  C   UNL d   1     -42.268-123.375 -48.884  0.00  0.00     0.021 A 
ENDBRANCH  18  19
ENDBRANCH   6  18
TORSDOF 3
ENDMDL
