MODEL 1
REMARK VINA RESULT:      66.7      0.000      0.000
REMARK  5 active torsions:
REMARK  status: ('A' for Active; 'I' for Inactive)
REMARK    1  A    between atoms: N_2  and  C_1 
REMARK       I    between atoms: N_4  and  C_5 
REMARK    2  A    between atoms: C_5  and  C_9 
REMARK    3  A    between atoms: C_18  and  N_6 
REMARK    4  A    between atoms: C_10  and  C_8 
REMARK    5  A    between atoms: C_9  and  C_10 
ROOT
ATOM      1  N   UNL d   1      60.814  48.057  50.418  0.00  0.00    -0.269 N 
ATOM      2  C   UNL d   1      60.603  48.857  50.568  0.00  0.00     0.265 C 
ATOM      3  N   UNL d   1      61.258  46.506  50.094  0.00  0.00    -0.301 N 
ATOM      4  C   UNL d   1      60.448  47.432  50.814  0.00  0.00     0.102 A 
ATOM      5  C   UNL d   1      61.405  47.903  49.857  0.00  0.00     0.102 A 
ATOM      6  C   UNL d   1      60.665  46.660  50.656  0.00  0.00     0.100 A 
ATOM      7  C   UNL d   1      61.635  47.121  49.688  0.00  0.00     0.100 A 
ATOM      8  O   UNL d   1      60.980  49.473  50.162  0.00  0.00    -0.267 OA
ENDROOT
BRANCH   2   9
ATOM      9  C   UNL d   1      60.014  49.021  51.126  0.00  0.00     0.062 C 
BRANCH   9  10
ATOM     10  C   UNL d   1      59.519  49.681  51.047  0.00  0.00     0.011 C 
BRANCH  10  11
ATOM     11  C   UNL d   1      58.765  49.625  50.709  0.00  0.00     0.031 A 
ATOM     12  S   UNL d   1      58.018  49.512  51.058  0.00  0.00    -0.064 SA
ATOM     13  C   UNL d   1      57.467  49.502  50.440  0.00  0.00     0.156 A 
ATOM     14  C   UNL d   1      57.856  49.604  49.749  0.00  0.00     0.031 A 
ATOM     15  C   UNL d   1      58.659  49.682  49.890  0.00  0.00     0.009 A 
BRANCH  13  16
ATOM     16  N   UNL d   1      56.627  49.402  50.503  0.00  0.00    -0.107 N 
ATOM     17  O   UNL d   1      56.257  49.592  51.209  0.00  0.00    -0.531 OA
ATOM     18  O   UNL d   1      56.208  49.116  49.849  0.00  0.00    -0.531 OA
ENDBRANCH  13  16
ENDBRANCH  10  11
ENDBRANCH   9  10
ENDBRANCH   2   9
BRANCH   3  19
ATOM     19  C   UNL d   1      61.479  45.728  49.933  0.00  0.00     0.064 A 
ATOM     20  C   UNL d   1      61.305  45.136  50.466  0.00  0.00     0.018 A 
ATOM     21  C   UNL d   1      61.530  44.342  50.302  0.00  0.00     0.002 A 
ATOM     22  C   UNL d   1      61.921  44.176  49.609  0.00  0.00     0.000 A 
ATOM     23  C   UNL d   1      62.098  44.772  49.067  0.00  0.00     0.002 A 
ATOM     24  C   UNL d   1      61.875  45.548  49.232  0.00  0.00     0.018 A 
ENDBRANCH   3  19
TORSDOF 5
ENDMDL
MODEL 2
REMARK VINA RESULT:      69.0      2.048      5.062
REMARK  5 active torsions:
REMARK  status: ('A' for Active; 'I' for Inactive)
REMARK    1  A    between atoms: N_2  and  C_1 
REMARK       I    between atoms: N_4  and  C_5 
REMARK    2  A    between atoms: C_5  and  C_9 
REMARK    3  A    between atoms: C_18  and  N_6 
REMARK    4  A    between atoms: C_10  and  C_8 
REMARK    5  A    between atoms: C_9  and  C_10 
ROOT
ATOM      1  N   UNL d   1      59.907  48.826  51.071  0.00  0.00    -0.269 N 
ATOM      2  C   UNL d   1      60.699  48.664  51.303  0.00  0.00     0.265 C 
ATOM      3  N   UNL d   1      58.358  49.180  50.643  0.00  0.00    -0.301 N 
ATOM      4  C   UNL d   1      59.490  48.316  50.573  0.00  0.00     0.102 A 
ATOM      5  C   UNL d   1      59.546  49.515  51.356  0.00  0.00     0.102 A 
ATOM      6  C   UNL d   1      58.720  48.489  50.358  0.00  0.00     0.100 A 
ATOM      7  C   UNL d   1      58.763  49.702  51.144  0.00  0.00     0.100 A 
ATOM      8  O   UNL d   1      61.104  49.185  51.803  0.00  0.00    -0.267 OA
ENDROOT
BRANCH   2   9
ATOM      9  C   UNL d   1      61.068  47.978  51.024  0.00  0.00     0.062 C 
BRANCH   9  10
ATOM     10  C   UNL d   1      61.303  47.908  50.231  0.00  0.00     0.011 C 
BRANCH  10  11
ATOM     11  C   UNL d   1      61.607  47.201  49.925  0.00  0.00     0.031 A 
ATOM     12  S   UNL d   1      61.227  46.496  49.701  0.00  0.00    -0.064 SA
ATOM     13  C   UNL d   1      61.818  45.981  49.435  0.00  0.00     0.156 A 
ATOM     14  C   UNL d   1      62.524  46.352  49.493  0.00  0.00     0.031 A 
ATOM     15  C   UNL d   1      62.419  47.107  49.794  0.00  0.00     0.009 A 
BRANCH  13  16
ATOM     16  N   UNL d   1      61.719  45.190  49.145  0.00  0.00    -0.107 N 
ATOM     17  O   UNL d   1      62.359  44.678  49.162  0.00  0.00    -0.531 OA
ATOM     18  O   UNL d   1      60.979  44.961  48.853  0.00  0.00    -0.531 OA
ENDBRANCH  13  16
ENDBRANCH  10  11
ENDBRANCH   9  10
ENDBRANCH   2   9
BRANCH   3  19
ATOM     19  C   UNL d   1      57.582  49.356  50.428  0.00  0.00     0.064 A 
ATOM     20  C   UNL d   1      56.997  49.385  50.995  0.00  0.00     0.018 A 
ATOM     21  C   UNL d   1      56.205  49.565  50.776  0.00  0.00     0.002 A 
ATOM     22  C   UNL d   1      56.033  49.708  49.994  0.00  0.00     0.000 A 
ATOM     23  C   UNL d   1      56.622  49.680  49.417  0.00  0.00     0.002 A 
ATOM     24  C   UNL d   1      57.396  49.503  49.638  0.00  0.00     0.018 A 
ENDBRANCH   3  19
TORSDOF 5
ENDMDL
