MODEL 1
REMARK VINA RESULT:      32.9      0.000      0.000
REMARK  3 active torsions:
REMARK  status: ('A' for Active; 'I' for Inactive)
REMARK    1  A    between atoms: C_7  and  N_1 
REMARK    2  A    between atoms: C_8  and  C_2 
REMARK    3  A    between atoms: N_4  and  C_9 
ROOT
ATOM      1  N   UNL d   1     -50.224  24.065  33.645  0.00  0.00    -0.211 N 
ATOM      2  C   UNL d   1     -49.773  24.758  33.640  0.00  0.00     0.105 A 
ATOM      3  N   UNL d   1     -49.702  23.420  33.684  0.00  0.00    -0.060 NA
ATOM      4  N   UNL d   1     -48.930  23.715  33.703  0.00  0.00    -0.127 NA
ATOM      5  C   UNL d   1     -48.979  24.542  33.676  0.00  0.00     0.143 A 
ENDROOT
BRANCH   1   6
ATOM      6  C   UNL d   1     -51.046  24.020  33.616  0.00  0.00     0.085 A 
ATOM      7  C   UNL d   1     -51.499  24.706  33.682  0.00  0.00     0.021 A 
ATOM      8  C   UNL d   1     -52.321  24.666  33.654  0.00  0.00     0.025 A 
ATOM      9  C   UNL d   1     -52.692  23.933  33.559  0.00  0.00     0.127 A 
ATOM     10  C   UNL d   1     -52.244  23.246  33.493  0.00  0.00     0.025 A 
ATOM     11  C   UNL d   1     -51.421  23.288  33.522  0.00  0.00     0.021 A 
BRANCH   9  12
ATOM     12  N   UNL d   1     -53.519  23.894  33.531  0.00  0.00    -0.114 N 
ATOM     13  O   UNL d   1     -53.951  24.561  33.310  0.00  0.00    -0.532 OA
ATOM     14  O   UNL d   1     -53.903  23.199  33.721  0.00  0.00    -0.532 OA
ENDBRANCH   9  12
ENDBRANCH   1   6
BRANCH   2  15
ATOM     15  C   UNL d   1     -50.066  25.528  33.606  0.00  0.00     0.019 A 
ATOM     16  C   UNL d   1     -49.589  26.162  33.834  0.00  0.00     0.002 A 
ATOM     17  C   UNL d   1     -49.879  26.929  33.801  0.00  0.00     0.011 A 
ATOM     18  C   UNL d   1     -50.655  27.072  33.537  0.00  0.00     0.058 A 
ATOM     19  C   UNL d   1     -51.135  26.432  33.307  0.00  0.00     0.011 A 
ATOM     20 CL   UNL d   1     -50.944  27.839  33.504  0.00  0.00    -0.082 Cl
ATOM     21  C   UNL d   1     -50.843  25.666  33.341  0.00  0.00     0.002 A 
ENDBRANCH   2  15
TORSDOF 3
ENDMDL
