MODEL 1
REMARK VINA RESULT:      -3.1      0.000      0.000
REMARK  3 active torsions:
REMARK  status: ('A' for Active; 'I' for Inactive)
REMARK    1  A    between atoms: C_4  and  C_1 
REMARK       I    between atoms: N_6  and  C_4 
REMARK    2  A    between atoms: C_8  and  C_5 
REMARK    3  A    between atoms: C_7  and  N_6 
ROOT
ATOM      1  C   UNL d   1     -42.025-121.957 -52.305  0.00  0.00     0.192 A 
ATOM      2  C   UNL d   1     -41.510-123.088 -53.032  0.00  0.00     0.296 A 
ATOM      3  O   UNL d   1     -41.631-122.694 -52.311  0.00  0.00    -0.290 OA
ATOM      4  C   UNL d   1     -41.775-122.757 -53.744  0.00  0.00     0.063 A 
ATOM      5  C   UNL d   1     -42.167-122.021 -53.728  0.00  0.00     0.004 A 
ATOM      6  C   UNL d   1     -42.292-121.622 -53.015  0.00  0.00     0.010 A 
ATOM      7  O   UNL d   1     -41.122-123.813 -53.039  0.00  0.00    -0.259 OA
ATOM      8  C   UNL d   1     -42.412-121.232 -52.306  0.00  0.00     0.045 C 
ATOM      9  C   UNL d   1     -42.432-121.690 -54.440  0.00  0.00    -0.000 A 
ATOM     10  C   UNL d   1     -41.654-123.147 -54.453  0.00  0.00     0.005 A 
ATOM     11  C   UNL d   1     -42.306-122.091 -55.149  0.00  0.00    -0.000 A 
ATOM     12  C   UNL d   1     -41.918-122.816 -55.155  0.00  0.00     0.000 A 
ENDROOT
BRANCH   1  13
ATOM     13  C   UNL d   1     -41.846-122.109 -51.522  0.00  0.00     0.285 C 
ATOM     14  N   UNL d   1     -42.388-122.509 -51.047  0.00  0.00    -0.209 NA
ATOM     15  O   UNL d   1     -41.123-121.861 -51.211  0.00  0.00    -0.267 OA
BRANCH  14  16
ATOM     16  C   UNL d   1     -42.203-122.660 -50.258  0.00  0.00     0.090 A 
ATOM     17  C   UNL d   1     -42.783-122.934 -49.752  0.00  0.00     0.082 A 
ATOM     18  C   UNL d   1     -42.600-123.086 -48.962  0.00  0.00     0.008 A 
ATOM     19  C   UNL d   1     -41.834-122.961 -48.685  0.00  0.00     0.000 A 
ATOM     20  C   UNL d   1     -41.251-122.683 -49.201  0.00  0.00     0.002 A 
ATOM     21  C   UNL d   1     -41.443-122.535 -49.986  0.00  0.00     0.019 A 
BRANCH  17  22
ATOM     22  C   UNL d   1     -43.551-123.059 -50.032  0.00  0.00     0.212 C 
ATOM     23  O   UNL d   1     -43.768-123.807 -50.308  0.00  0.00    -0.644 OA
ATOM     24  O   UNL d   1     -44.089-122.444 -50.035  0.00  0.00    -0.644 OA
ENDBRANCH  17  22
ENDBRANCH  14  16
ENDBRANCH   1  13
TORSDOF 3
ENDMDL
MODEL 2
REMARK VINA RESULT:      -1.6      0.955      4.307
REMARK  3 active torsions:
REMARK  status: ('A' for Active; 'I' for Inactive)
REMARK    1  A    between atoms: C_4  and  C_1 
REMARK       I    between atoms: N_6  and  C_4 
REMARK    2  A    between atoms: C_8  and  C_5 
REMARK    3  A    between atoms: C_7  and  N_6 
ROOT
ATOM      1  C   UNL d   1     -41.844-122.931 -50.723  0.00  0.00     0.192 A 
ATOM      2  C   UNL d   1     -43.064-123.435 -50.147  0.00  0.00     0.296 A 
ATOM      3  O   UNL d   1     -42.578-123.319 -50.811  0.00  0.00    -0.290 OA
ATOM      4  C   UNL d   1     -42.827-123.169 -49.400  0.00  0.00     0.063 A 
ATOM      5  C   UNL d   1     -42.092-122.781 -49.320  0.00  0.00     0.004 A 
ATOM      6  C   UNL d   1     -41.602-122.662 -49.975  0.00  0.00     0.010 A 
ATOM      7  O   UNL d   1     -43.786-123.817 -50.234  0.00  0.00    -0.259 OA
ATOM      8  C   UNL d   1     -41.123-122.547 -50.628  0.00  0.00     0.045 C 
ATOM      9  C   UNL d   1     -41.855-122.515 -48.573  0.00  0.00    -0.000 A 
ATOM     10  C   UNL d   1     -43.307-123.284 -48.747  0.00  0.00     0.005 A 
ATOM     11  C   UNL d   1     -42.346-122.636 -47.921  0.00  0.00    -0.000 A 
ATOM     12  C   UNL d   1     -43.068-123.019 -48.008  0.00  0.00     0.000 A 
ENDROOT
BRANCH   1  13
ATOM     13  C   UNL d   1     -41.894-123.111 -51.518  0.00  0.00     0.285 C 
ATOM     14  N   UNL d   1     -41.589-122.589 -52.079  0.00  0.00    -0.209 NA
ATOM     15  O   UNL d   1     -42.250-123.817 -51.756  0.00  0.00    -0.267 OA
BRANCH  14  16
ATOM     16  C   UNL d   1     -41.642-122.777 -52.879  0.00  0.00     0.090 A 
ATOM     17  C   UNL d   1     -41.757-122.182 -53.427  0.00  0.00     0.082 A 
ATOM     18  C   UNL d   1     -41.811-122.367 -54.229  0.00  0.00     0.008 A 
ATOM     19  C   UNL d   1     -41.747-123.151 -54.476  0.00  0.00     0.000 A 
ATOM     20  C   UNL d   1     -41.630-123.749 -53.918  0.00  0.00     0.002 A 
ATOM     21  C   UNL d   1     -41.579-123.555 -53.121  0.00  0.00     0.019 A 
BRANCH  17  22
ATOM     22  C   UNL d   1     -41.820-121.396 -53.176  0.00  0.00     0.212 C 
ATOM     23  O   UNL d   1     -42.568-121.052 -53.095  0.00  0.00    -0.644 OA
ATOM     24  O   UNL d   1     -41.146-120.965 -53.011  0.00  0.00    -0.644 OA
ENDBRANCH  17  22
ENDBRANCH  14  16
ENDBRANCH   1  13
TORSDOF 3
ENDMDL
