MODEL 1
REMARK VINA RESULT:      -4.9      0.000      0.000
REMARK  1 active torsions:
REMARK  status: ('A' for Active; 'I' for Inactive)
REMARK    1  A    between atoms: N_2  and  C_1 
ROOT
ATOM      1  C   UNL d   1      56.169  -0.034  32.781  0.00  0.00     0.148 A 
ATOM      2  C   UNL d   1      56.588   0.518  32.294  0.00  0.00     0.051 A 
ATOM      3  C   UNL d   1      56.194  -0.837  32.591  0.00  0.00     0.127 A 
ATOM      4  C   UNL d   1      57.013   0.260  31.642  0.00  0.00     0.121 A 
ATOM      5  C   UNL d   1      56.637  -1.088  31.915  0.00  0.00     0.049 A 
ATOM      6  C   UNL d   1      57.037  -0.543  31.453  0.00  0.00     0.121 A 
ATOM      7  O   UNL d   1      57.475   0.682  31.068  0.00  0.00    -0.299 OA
ATOM      8  O   UNL d   1      57.515  -0.636  30.757  0.00  0.00    -0.299 OA
ATOM      9  C   UNL d   1      57.768   0.124  30.546  0.00  0.00     0.304 A 
ATOM     10  N   UNL d   1      55.757  -1.370  33.108  0.00  0.00    -0.146 N 
ENDROOT
BRANCH   1  11
ATOM     11  N   UNL d   1      55.709   0.187  33.475  0.00  0.00    -0.112 N 
ATOM     12  O   UNL d   1      54.880   0.273  33.434  0.00  0.00    -0.532 OA
ATOM     13  O   UNL d   1      56.096   0.325  34.228  0.00  0.00    -0.532 OA
ENDBRANCH   1  11
TORSDOF 1
ENDMDL
MODEL 2
REMARK VINA RESULT:      -4.5      0.852      1.353
REMARK  1 active torsions:
REMARK  status: ('A' for Active; 'I' for Inactive)
REMARK    1  A    between atoms: N_2  and  C_1 
ROOT
ATOM      1  C   UNL d   1      56.463  -0.492  32.573  0.00  0.00     0.148 A 
ATOM      2  C   UNL d   1      56.637  -0.716  31.776  0.00  0.00     0.051 A 
ATOM      3  C   UNL d   1      56.848   0.160  32.902  0.00  0.00     0.127 A 
ATOM      4  C   UNL d   1      57.181  -0.291  31.333  0.00  0.00     0.121 A 
ATOM      5  C   UNL d   1      57.407   0.589  32.433  0.00  0.00     0.049 A 
ATOM      6  C   UNL d   1      57.566   0.361  31.662  0.00  0.00     0.121 A 
ATOM      7  O   UNL d   1      57.458  -0.388  30.536  0.00  0.00    -0.299 OA
ATOM      8  O   UNL d   1      58.090   0.682  31.076  0.00  0.00    -0.299 OA
ATOM      9  C   UNL d   1      58.003   0.207  30.402  0.00  0.00     0.304 A 
ATOM     10  N   UNL d   1      56.647   0.360  33.715  0.00  0.00    -0.146 N 
ENDROOT
BRANCH   1  11
ATOM     11  N   UNL d   1      55.900  -0.905  33.078  0.00  0.00    -0.112 N 
ATOM     12  O   UNL d   1      55.192  -0.539  33.327  0.00  0.00    -0.532 OA
ATOM     13  O   UNL d   1      56.056  -1.708  33.338  0.00  0.00    -0.532 OA
ENDBRANCH   1  11
TORSDOF 1
ENDMDL
MODEL 3
REMARK VINA RESULT:      -3.9      8.709      9.356
REMARK  1 active torsions:
REMARK  status: ('A' for Active; 'I' for Inactive)
REMARK    1  A    between atoms: N_2  and  C_1 
ROOT
ATOM      1  C   UNL d   1      59.755  -7.067  36.017  0.00  0.00     0.148 A 
ATOM      2  C   UNL d   1      59.146  -7.642  36.141  0.00  0.00     0.051 A 
ATOM      3  C   UNL d   1      60.539  -7.318  35.956  0.00  0.00     0.127 A 
ATOM      4  C   UNL d   1      59.330  -8.438  36.199  0.00  0.00     0.121 A 
ATOM      5  C   UNL d   1      60.714  -8.144  36.018  0.00  0.00     0.049 A 
ATOM      6  C   UNL d   1      60.114  -8.689  36.138  0.00  0.00     0.121 A 
ATOM      7  O   UNL d   1      58.841  -9.122  36.321  0.00  0.00    -0.299 OA
ATOM      8  O   UNL d   1      60.128  -9.534  36.220  0.00  0.00    -0.299 OA
ATOM      9  C   UNL d   1      59.341  -9.770  36.330  0.00  0.00     0.304 A 
ATOM     10  N   UNL d   1      61.133  -6.707  35.830  0.00  0.00    -0.146 N 
ENDROOT
BRANCH   1  11
ATOM     11  N   UNL d   1      59.613  -6.220  35.949  0.00  0.00    -0.112 N 
ATOM     12  O   UNL d   1      60.120  -5.666  36.313  0.00  0.00    -0.532 OA
ATOM     13  O   UNL d   1      58.941  -5.926  35.503  0.00  0.00    -0.532 OA
ENDBRANCH   1  11
TORSDOF 1
ENDMDL
MODEL 4
REMARK VINA RESULT:      -3.4      1.943      3.048
REMARK  1 active torsions:
REMARK  status: ('A' for Active; 'I' for Inactive)
REMARK    1  A    between atoms: N_2  and  C_1 
ROOT
ATOM      1  C   UNL d   1      57.711   0.195  30.630  0.00  0.00     0.148 A 
ATOM      2  C   UNL d   1      57.285   0.677  31.180  0.00  0.00     0.051 A 
ATOM      3  C   UNL d   1      57.665  -0.626  30.694  0.00  0.00     0.127 A 
ATOM      4  C   UNL d   1      56.832   0.333  31.771  0.00  0.00     0.121 A 
ATOM      5  C   UNL d   1      57.192  -0.967  31.308  0.00  0.00     0.049 A 
ATOM      6  C   UNL d   1      56.785  -0.488  31.834  0.00  0.00     0.121 A 
ATOM      7  O   UNL d   1      56.356   0.674  32.386  0.00  0.00    -0.299 OA
ATOM      8  O   UNL d   1      56.280  -0.674  32.491  0.00  0.00    -0.299 OA
ATOM      9  C   UNL d   1      56.034   0.051  32.807  0.00  0.00     0.304 A 
ATOM     10  N   UNL d   1      58.110  -1.086  30.118  0.00  0.00    -0.146 N 
ENDROOT
BRANCH   1  11
ATOM     11  N   UNL d   1      58.200   0.508  29.994  0.00  0.00    -0.112 N 
ATOM     12  O   UNL d   1      59.008   0.680  30.114  0.00  0.00    -0.532 OA
ATOM     13  O   UNL d   1      57.866   0.650  29.217  0.00  0.00    -0.532 OA
ENDBRANCH   1  11
TORSDOF 1
ENDMDL
MODEL 5
REMARK VINA RESULT:      -2.7      3.616      4.620
REMARK  1 active torsions:
REMARK  status: ('A' for Active; 'I' for Inactive)
REMARK    1  A    between atoms: N_2  and  C_1 
ROOT
ATOM      1  C   UNL d   1      58.778  -0.870  29.353  0.00  0.00     0.148 A 
ATOM      2  C   UNL d   1      58.463  -1.647  29.465  0.00  0.00     0.051 A 
ATOM      3  C   UNL d   1      59.489  -0.779  28.945  0.00  0.00     0.127 A 
ATOM      4  C   UNL d   1      58.858  -2.303  29.173  0.00  0.00     0.121 A 
ATOM      5  C   UNL d   1      59.886  -1.466  28.649  0.00  0.00     0.049 A 
ATOM      6  C   UNL d   1      59.569  -2.213  28.765  0.00  0.00     0.121 A 
ATOM      7  O   UNL d   1      58.674  -3.132  29.204  0.00  0.00    -0.299 OA
ATOM      8  O   UNL d   1      59.842  -2.983  28.534  0.00  0.00    -0.299 OA
ATOM      9  C   UNL d   1      59.279  -3.522  28.814  0.00  0.00     0.304 A 
ATOM     10  N   UNL d   1      59.781   0.026  28.848  0.00  0.00    -0.146 N 
ENDROOT
BRANCH   1  11
ATOM     11  N   UNL d   1      58.401  -0.151  29.640  0.00  0.00    -0.112 N 
ATOM     12  O   UNL d   1      58.580   0.160  30.394  0.00  0.00    -0.532 OA
ATOM     13  O   UNL d   1      57.829   0.265  29.154  0.00  0.00    -0.532 OA
ENDBRANCH   1  11
TORSDOF 1
ENDMDL
MODEL 6
REMARK VINA RESULT:      -2.4      3.636      4.793
REMARK  1 active torsions:
REMARK  status: ('A' for Active; 'I' for Inactive)
REMARK    1  A    between atoms: N_2  and  C_1 
ROOT
ATOM      1  C   UNL d   1      59.099  -2.139  29.212  0.00  0.00     0.148 A 
ATOM      2  C   UNL d   1      58.475  -1.723  29.605  0.00  0.00     0.051 A 
ATOM      3  C   UNL d   1      59.701  -1.710  28.846  0.00  0.00     0.127 A 
ATOM      4  C   UNL d   1      58.468  -0.904  29.623  0.00  0.00     0.121 A 
ATOM      5  C   UNL d   1      59.680  -0.865  28.873  0.00  0.00     0.049 A 
ATOM      6  C   UNL d   1      59.070  -0.475  29.257  0.00  0.00     0.121 A 
ATOM      7  O   UNL d   1      57.922  -0.352  29.969  0.00  0.00    -0.299 OA
ATOM      8  O   UNL d   1      58.912   0.352  29.368  0.00  0.00    -0.299 OA
ATOM      9  C   UNL d   1      58.208   0.397  29.804  0.00  0.00     0.304 A 
ATOM     10  N   UNL d   1      60.320  -2.165  28.456  0.00  0.00    -0.146 N 
ENDROOT
BRANCH   1  11
ATOM     11  N   UNL d   1      59.151  -2.998  29.166  0.00  0.00    -0.112 N 
ATOM     12  O   UNL d   1      59.801  -3.410  29.490  0.00  0.00    -0.532 OA
ATOM     13  O   UNL d   1      58.532  -3.452  28.784  0.00  0.00    -0.532 OA
ENDBRANCH   1  11
TORSDOF 1
ENDMDL
MODEL 7
REMARK VINA RESULT:      -2.4      2.626      4.066
REMARK  1 active torsions:
REMARK  status: ('A' for Active; 'I' for Inactive)
REMARK    1  A    between atoms: N_2  and  C_1 
ROOT
ATOM      1  C   UNL d   1      58.583  -0.701  29.537  0.00  0.00     0.148 A 
ATOM      2  C   UNL d   1      58.156  -1.005  30.201  0.00  0.00     0.051 A 
ATOM      3  C   UNL d   1      58.571   0.111  29.388  0.00  0.00     0.127 A 
ATOM      4  C   UNL d   1      57.735  -0.502  30.692  0.00  0.00     0.121 A 
ATOM      5  C   UNL d   1      58.132   0.619  29.904  0.00  0.00     0.049 A 
ATOM      6  C   UNL d   1      57.723   0.310  30.544  0.00  0.00     0.121 A 
ATOM      7  O   UNL d   1      57.265  -0.652  31.384  0.00  0.00    -0.299 OA
ATOM      8  O   UNL d   1      57.246   0.681  31.140  0.00  0.00    -0.299 OA
ATOM      9  C   UNL d   1      56.981   0.073  31.637  0.00  0.00     0.304 A 
ATOM     10  N   UNL d   1      59.017   0.387  28.705  0.00  0.00    -0.146 N 
ENDROOT
BRANCH   1  11
ATOM     11  N   UNL d   1      59.040  -1.188  28.992  0.00  0.00    -0.112 N 
ATOM     12  O   UNL d   1      58.663  -1.706  28.456  0.00  0.00    -0.532 OA
ATOM     13  O   UNL d   1      59.897  -1.152  28.990  0.00  0.00    -0.532 OA
ENDBRANCH   1  11
TORSDOF 1
ENDMDL
MODEL 8
REMARK VINA RESULT:      -2.2      2.658      3.965
REMARK  1 active torsions:
REMARK  status: ('A' for Active; 'I' for Inactive)
REMARK    1  A    between atoms: N_2  and  C_1 
ROOT
ATOM      1  C   UNL d   1      58.880  -0.368  29.687  0.00  0.00     0.148 A 
ATOM      2  C   UNL d   1      58.507   0.048  30.323  0.00  0.00     0.051 A 
ATOM      3  C   UNL d   1      58.651  -1.144  29.526  0.00  0.00     0.127 A 
ATOM      4  C   UNL d   1      57.926  -0.313  30.774  0.00  0.00     0.121 A 
ATOM      5  C   UNL d   1      58.049  -1.505  30.000  0.00  0.00     0.049 A 
ATOM      6  C   UNL d   1      57.697  -1.089  30.612  0.00  0.00     0.121 A 
ATOM      7  O   UNL d   1      57.467  -0.033  31.431  0.00  0.00    -0.299 OA
ATOM      8  O   UNL d   1      57.091  -1.308  31.166  0.00  0.00    -0.299 OA
ATOM      9  C   UNL d   1      56.972  -0.647  31.651  0.00  0.00     0.304 A 
ATOM     10  N   UNL d   1      59.051  -1.538  28.872  0.00  0.00    -0.146 N 
ENDROOT
BRANCH   1  11
ATOM     11  N   UNL d   1      59.495  -0.032  29.186  0.00  0.00    -0.112 N 
ATOM     12  O   UNL d   1      60.303  -0.102  29.387  0.00  0.00    -0.532 OA
ATOM     13  O   UNL d   1      59.290   0.384  28.465  0.00  0.00    -0.532 OA
ENDBRANCH   1  11
TORSDOF 1
ENDMDL
