MODEL 1
REMARK VINA RESULT:      -2.6      0.000      0.000
REMARK  7 active torsions:
REMARK  status: ('A' for Active; 'I' for Inactive)
REMARK    1  A    between atoms: N_4  and  C_2 
REMARK    2  A    between atoms: S_9  and  C_3 
REMARK    3  A    between atoms: C_8  and  C_13 
REMARK    4  A    between atoms: O_11  and  C_8 
REMARK    5  A    between atoms: C_13  and  S_9 
REMARK    6  A    between atoms: C_14  and  O_11 
REMARK    7  A    between atoms: C_17  and  C_14 
ROOT
ATOM      1  N   UNL d   1      32.871  21.539 -21.130  0.00  0.00    -0.203 NA
ATOM      2  C   UNL d   1      32.850  22.363 -21.133  0.00  0.00     0.152 A 
ATOM      3  C   UNL d   1      33.015  21.125 -21.833  0.00  0.00     0.196 A 
ATOM      4  C   UNL d   1      32.973  22.773 -21.835  0.00  0.00     0.057 A 
ATOM      5  N   UNL d   1      33.139  21.537 -22.537  0.00  0.00    -0.221 NA
ATOM      6  C   UNL d   1      33.118  22.359 -22.539  0.00  0.00     0.087 A 
ATOM      7  C   UNL d   1      33.241  22.774 -23.244  0.00  0.00     0.021 C 
ENDROOT
BRANCH   3   8
ATOM      8  S   UNL d   1      33.036  20.295 -21.827  0.00  0.00    -0.043 SA
BRANCH   8   9
ATOM      9  C   UNL d   1      33.022  19.879 -22.539  0.00  0.00     0.107 C 
BRANCH   9  10
ATOM     10  C   UNL d   1      32.987  19.056 -22.530  0.00  0.00     0.307 C 
ATOM     11  O   UNL d   1      33.219  18.635 -21.864  0.00  0.00    -0.258 OA
BRANCH  10  12
ATOM     12  O   UNL d   1      32.717  18.649 -23.200  0.00  0.00    -0.271 OA
BRANCH  12  13
ATOM     13  C   UNL d   1      32.717  17.825 -23.211  0.00  0.00     0.126 C 
BRANCH  13  14
ATOM     14  C   UNL d   1      32.191  17.418 -23.699  0.00  0.00     0.025 A 
ATOM     15  C   UNL d   1      31.808  16.738 -23.409  0.00  0.00     0.002 A 
ATOM     16  C   UNL d   1      31.282  16.331 -23.897  0.00  0.00     0.000 A 
ATOM     17  C   UNL d   1      31.142  16.606 -24.672  0.00  0.00     0.000 A 
ATOM     18  C   UNL d   1      31.530  17.282 -24.945  0.00  0.00     0.000 A 
ATOM     19  C   UNL d   1      32.051  17.686 -24.462  0.00  0.00     0.002 A 
ENDBRANCH  13  14
ENDBRANCH  12  13
ENDBRANCH  10  12
ENDBRANCH   9  10
ENDBRANCH   8   9
ENDBRANCH   3   8
BRANCH   2  20
ATOM     20  N   UNL d   1      32.706  22.779 -20.434  0.00  0.00    -0.285 N 
ATOM     21  C   UNL d   1      32.021  23.236 -20.365  0.00  0.00     0.108 A 
ATOM     22  C   UNL d   1      31.875  23.651 -19.671  0.00  0.00     0.142 A 
ATOM     23  O   UNL d   1      32.410  23.611 -19.047  0.00  0.00    -0.300 OA
ATOM     24  C   UNL d   1      33.094  23.154 -19.116  0.00  0.00     0.142 A 
ATOM     25  C   UNL d   1      33.241  22.737 -19.813  0.00  0.00     0.108 A 
ENDBRANCH   2  20
TORSDOF 7
ENDMDL
MODEL 2
REMARK VINA RESULT:      -2.3      1.057      1.585
REMARK  7 active torsions:
REMARK  status: ('A' for Active; 'I' for Inactive)
REMARK    1  A    between atoms: N_4  and  C_2 
REMARK    2  A    between atoms: S_9  and  C_3 
REMARK    3  A    between atoms: C_8  and  C_13 
REMARK    4  A    between atoms: O_11  and  C_8 
REMARK    5  A    between atoms: C_13  and  S_9 
REMARK    6  A    between atoms: C_14  and  O_11 
REMARK    7  A    between atoms: C_17  and  C_14 
ROOT
ATOM      1  N   UNL d   1      32.971  22.071 -20.368  0.00  0.00    -0.203 NA
ATOM      2  C   UNL d   1      32.655  22.741 -20.009  0.00  0.00     0.152 A 
ATOM      3  C   UNL d   1      32.859  21.943 -21.180  0.00  0.00     0.196 A 
ATOM      4  C   UNL d   1      32.227  23.283 -20.456  0.00  0.00     0.057 A 
ATOM      5  N   UNL d   1      32.430  22.486 -21.628  0.00  0.00    -0.221 NA
ATOM      6  C   UNL d   1      32.115  23.155 -21.268  0.00  0.00     0.087 A 
ATOM      7  C   UNL d   1      31.684  23.701 -21.716  0.00  0.00     0.021 C 
ENDROOT
BRANCH   3   8
ATOM      8  S   UNL d   1      33.179  21.266 -21.539  0.00  0.00    -0.043 SA
BRANCH   8   9
ATOM      9  C   UNL d   1      32.677  20.704 -21.876  0.00  0.00     0.107 C 
BRANCH   9  10
ATOM     10  C   UNL d   1      32.933  19.925 -21.956  0.00  0.00     0.307 C 
ATOM     11  O   UNL d   1      33.235  19.516 -21.310  0.00  0.00    -0.258 OA
BRANCH  10  12
ATOM     12  O   UNL d   1      32.885  19.551 -22.694  0.00  0.00    -0.271 OA
BRANCH  12  13
ATOM     13  C   UNL d   1      32.797  18.732 -22.738  0.00  0.00     0.126 C 
BRANCH  13  14
ATOM     14  C   UNL d   1      32.692  18.366 -23.470  0.00  0.00     0.025 A 
ATOM     15  C   UNL d   1      32.798  18.809 -24.166  0.00  0.00     0.002 A 
ATOM     16  C   UNL d   1      32.693  18.442 -24.898  0.00  0.00     0.000 A 
ATOM     17  C   UNL d   1      32.481  17.636 -24.929  0.00  0.00     0.000 A 
ATOM     18  C   UNL d   1      32.379  17.211 -24.227  0.00  0.00     0.000 A 
ATOM     19  C   UNL d   1      32.483  17.573 -23.503  0.00  0.00     0.002 A 
ENDBRANCH  13  14
ENDBRANCH  12  13
ENDBRANCH  10  12
ENDBRANCH   9  10
ENDBRANCH   8   9
ENDBRANCH   3   8
BRANCH   2  20
ATOM     20  N   UNL d   1      32.765  22.872 -19.201  0.00  0.00    -0.285 N 
ATOM     21  C   UNL d   1      33.129  22.291 -18.739  0.00  0.00     0.108 A 
ATOM     22  C   UNL d   1      33.240  22.417 -17.935  0.00  0.00     0.142 A 
ATOM     23  O   UNL d   1      32.989  23.122 -17.591  0.00  0.00    -0.300 OA
ATOM     24  C   UNL d   1      32.625  23.702 -18.053  0.00  0.00     0.142 A 
ATOM     25  C   UNL d   1      32.514  23.575 -18.860  0.00  0.00     0.108 A 
ENDBRANCH   2  20
TORSDOF 7
ENDMDL
