MODEL 1
REMARK VINA RESULT:      85.2      0.000      0.000
REMARK  5 active torsions:
REMARK  status: ('A' for Active; 'I' for Inactive)
REMARK    1  A    between atoms: N_7  and  C_1 
REMARK    2  A    between atoms: C_14  and  N_4 
REMARK    3  A    between atoms: S_5  and  N_8 
REMARK    4  A    between atoms: C_13  and  S_5 
REMARK       I    between atoms: C_9  and  N_7 
REMARK    5  A    between atoms: C_15  and  C_9 
ROOT
ATOM      1  N   UNL d   1      14.556  16.607  -4.057  0.00  0.00    -0.202 NA
ATOM      2  C   UNL d   1      13.996  16.005  -3.919  0.00  0.00     0.279 C 
ATOM      3  O   UNL d   1      13.279  15.994  -4.339  0.00  0.00    -0.265 OA
ENDROOT
BRANCH   2   4
ATOM      4  C   UNL d   1      14.148  15.416  -3.363  0.00  0.00     0.061 A 
ATOM      5  C   UNL d   1      14.420  15.603  -2.606  0.00  0.00     0.025 A 
ATOM      6  C   UNL d   1      14.570  15.008  -2.056  0.00  0.00     0.092 A 
ATOM      7  N   UNL d   1      14.449  14.220  -2.258  0.00  0.00    -0.229 N 
ATOM      8  C   UNL d   1      14.174  14.019  -3.019  0.00  0.00     0.092 A 
ATOM      9  C   UNL d   1      14.025  14.611  -3.566  0.00  0.00     0.025 A 
BRANCH   7  10
ATOM     10  S   UNL d   1      14.602  13.618  -1.696  0.00  0.00     0.271 S 
ATOM     11  O   UNL d   1      14.790  13.095  -2.309  0.00  0.00    -0.200 OA
ATOM     12  O   UNL d   1      14.409  14.157  -1.092  0.00  0.00    -0.200 OA
BRANCH  10  13
ATOM     13  C   UNL d   1      14.751  13.031  -1.138  0.00  0.00     0.104 A 
ATOM     14  C   UNL d   1      15.412  13.084  -0.647  0.00  0.00     0.013 A 
ATOM     15  C   UNL d   1      15.562  12.497  -0.088  0.00  0.00     0.001 A 
ATOM     16  C   UNL d   1      15.047  11.852  -0.019  0.00  0.00     0.000 A 
ATOM     17  C   UNL d   1      14.382  11.797  -0.511  0.00  0.00     0.001 A 
ATOM     18  C   UNL d   1      14.235  12.392  -1.074  0.00  0.00     0.013 A 
ENDBRANCH  10  13
ENDBRANCH   7  10
ENDBRANCH   2   4
BRANCH   1  19
ATOM     19  C   UNL d   1      14.399  17.193  -4.614  0.00  0.00     0.160 A 
ATOM     20  C   UNL d   1      14.684  17.966  -4.594  0.00  0.00     0.298 A 
ATOM     21  N   UNL d   1      14.393  18.360  -5.254  0.00  0.00    -0.209 N 
ATOM     22  O   UNL d   1      15.172  18.283  -4.015  0.00  0.00    -0.263 OA
ATOM     23  N   UNL d   1      13.930  17.833  -5.679  0.00  0.00    -0.238 N 
ATOM     24  C   UNL d   1      13.933  17.111  -5.286  0.00  0.00     0.104 A 
ATOM     25  C   UNL d   1      13.532  17.999  -6.380  0.00  0.00     0.120 C 
ATOM     26  C   UNL d   1      13.539  16.427  -5.522  0.00  0.00     0.022 C 
BRANCH  21  27
ATOM     27  C   UNL d   1      14.542  19.146  -5.448  0.00  0.00     0.085 A 
ATOM     28  C   UNL d   1      15.304  19.366  -5.662  0.00  0.00     0.019 A 
ATOM     29  C   UNL d   1      15.461  20.152  -5.858  0.00  0.00     0.002 A 
ATOM     30  C   UNL d   1      14.850  20.712  -5.838  0.00  0.00     0.000 A 
ATOM     31  C   UNL d   1      14.084  20.483  -5.622  0.00  0.00     0.002 A 
ATOM     32  C   UNL d   1      13.932  19.700  -5.427  0.00  0.00     0.019 A 
ENDBRANCH  21  27
ENDBRANCH   1  19
TORSDOF 5
ENDMDL
