MODEL 1
REMARK VINA RESULT:      -5.4      0.000      0.000
REMARK  5 active torsions:
REMARK  status: ('A' for Active; 'I' for Inactive)
REMARK    1  A    between atoms: C_3  and  C_1 
REMARK       I    between atoms: N_2  and  C_4 
REMARK    2  A    between atoms: C_5  and  N_2 
REMARK       I    between atoms: N_6  and  C_3 
REMARK    3  A    between atoms: C_4  and  C_7 
REMARK    4  A    between atoms: C_7  and  N_6 
REMARK    5  A    between atoms: C_21  and  C_7 
ROOT
ATOM      1  C   UNL d   1     -41.655-122.394 -52.926  0.00  0.00     0.263 C 
ATOM      2  N   UNL d   1     -41.999-121.850 -52.422  0.00  0.00    -0.206 NA
ATOM      3  O   UNL d   1     -41.124-122.949 -52.616  0.00  0.00    -0.270 OA
ENDROOT
BRANCH   2   4
ATOM      4  C   UNL d   1     -41.823-121.852 -51.625  0.00  0.00     0.142 C 
BRANCH   4   5
ATOM      5  C   UNL d   1     -42.114-122.455 -51.128  0.00  0.00     0.299 C 
ATOM      6  N   UNL d   1     -42.629-122.282 -50.526  0.00  0.00    -0.181 NA
ATOM      7  O   UNL d   1     -41.865-123.229 -51.263  0.00  0.00    -0.263 OA
BRANCH   6   8
ATOM      8  C   UNL d   1     -42.919-122.875 -50.032  0.00  0.00     0.197 A 
ATOM      9  N   UNL d   1     -43.683-123.201 -50.151  0.00  0.00    -0.219 NA
ATOM     10  C   UNL d   1     -43.796-123.774 -49.566  0.00  0.00     0.108 A 
ATOM     11  C   UNL d   1     -43.157-123.817 -49.104  0.00  0.00     0.059 A 
ATOM     12  S   UNL d   1     -42.572-123.252 -49.375  0.00  0.00    -0.046 SA
ENDBRANCH   6   8
ENDBRANCH   4   5
BRANCH   4  13
ATOM     13  C   UNL d   1     -41.358-121.253 -51.317  0.00  0.00     0.022 C 
ATOM     14  C   UNL d   1     -41.146-120.614 -51.796  0.00  0.00     0.002 C 
ATOM     15  C   UNL d   1     -41.125-121.314 -50.549  0.00  0.00     0.002 C 
ENDBRANCH   4  13
ENDBRANCH   2   4
BRANCH   1  16
ATOM     16  C   UNL d   1     -41.828-122.392 -53.714  0.00  0.00     0.111 A 
ATOM     17  C   UNL d   1     -41.317-122.880 -53.827  0.00  0.00     0.026 A 
ATOM     18  C   UNL d   1     -41.186-123.139 -54.533  0.00  0.00     0.045 A 
ATOM     19  C   UNL d   1     -41.776-122.714 -55.099  0.00  0.00    -0.022 A 
ATOM     20  C   UNL d   1     -41.583-122.930 -55.301  0.00  0.00    -0.022 A 
ATOM     21  C   UNL d   1     -42.374-122.143 -54.966  0.00  0.00    -0.007 A 
ATOM     22  C   UNL d   1     -42.403-121.953 -54.137  0.00  0.00    -0.014 A 
ATOM     23  C   UNL d   1     -42.732-121.950 -55.634  0.00  0.00    -0.001 A 
ATOM     24  C   UNL d   1     -42.123-122.414 -55.181  0.00  0.00    -0.007 A 
ATOM     25  C   UNL d   1     -42.173-122.197 -54.314  0.00  0.00    -0.014 A 
ENDBRANCH   1  16
TORSDOF 5
ENDMDL
