MODEL 1
REMARK VINA RESULT:      -7.1      0.000      0.000
REMARK  5 active torsions:
REMARK  status: ('A' for Active; 'I' for Inactive)
REMARK    1  A    between atoms: N_5  and  S_1 
REMARK    2  A    between atoms: C_9  and  S_1 
REMARK    3  A    between atoms: C_6  and  C_2 
REMARK    4  A    between atoms: C_4  and  N_5 
REMARK    5  A    between atoms: O_20  and  C_17 
ROOT
ATOM      1  S   UNL d   1     -47.466  13.874  22.875  0.00  0.00     0.287 S 
ATOM      2  O   UNL d   1     -47.794  13.734  23.630  0.00  0.00    -0.198 OA
ATOM      3  O   UNL d   1     -47.130  14.013  22.110  0.00  0.00    -0.198 OA
ENDROOT
BRANCH   1   4
ATOM      4  N   UNL d   1     -48.021  14.493  22.740  0.00  0.00    -0.132 NA
BRANCH   4   5
ATOM      5  C   UNL d   1     -48.791  14.324  22.475  0.00  0.00     0.206 A 
ATOM      6  N   UNL d   1     -49.107  13.720  21.959  0.00  0.00    -0.216 NA
ATOM      7  C   UNL d   1     -49.927  13.854  21.918  0.00  0.00     0.161 A 
ATOM      8  C   UNL d   1     -50.123  14.491  22.369  0.00  0.00     0.061 A 
ATOM      9  S   UNL d   1     -49.451  14.794  22.718  0.00  0.00    -0.046 SA
BRANCH   7  10
ATOM     10  C   UNL d   1     -50.478  13.416  21.488  0.00  0.00     0.436 C 
ATOM     11  F   UNL d   1     -51.056  13.025  21.043  0.00  0.00    -0.165 F 
ATOM     12  F   UNL d   1     -50.399  12.534  21.428  0.00  0.00    -0.165 F 
ATOM     13  F   UNL d   1     -51.064  13.799  21.137  0.00  0.00    -0.165 F 
ENDBRANCH   7  10
ENDBRANCH   4   5
ENDBRANCH   1   4
BRANCH   1  14
ATOM     14  C   UNL d   1     -46.902  13.254  23.001  0.00  0.00     0.105 A 
ATOM     15  C   UNL d   1     -47.131  12.612  23.447  0.00  0.00     0.015 A 
ATOM     16  C   UNL d   1     -46.604  12.005  23.579  0.00  0.00     0.025 A 
ATOM     17  C   UNL d   1     -45.838  12.032  23.266  0.00  0.00     0.094 A 
ATOM     18  C   UNL d   1     -45.599  12.671  22.817  0.00  0.00     0.025 A 
ATOM     19  C   UNL d   1     -46.115  13.280  22.679  0.00  0.00     0.015 A 
BRANCH  17  20
ATOM     20  O   UNL d   1     -45.274  11.416  23.389  0.00  0.00    -0.328 OA
ATOM     21  C   UNL d   1     -45.525  10.675  23.698  0.00  0.00     0.181 C 
ENDBRANCH  17  20
ENDBRANCH   1  14
TORSDOF 5
ENDMDL
MODEL 2
REMARK VINA RESULT:      -6.8      1.747      2.044
REMARK  5 active torsions:
REMARK  status: ('A' for Active; 'I' for Inactive)
REMARK    1  A    between atoms: N_5  and  S_1 
REMARK    2  A    between atoms: C_9  and  S_1 
REMARK    3  A    between atoms: C_6  and  C_2 
REMARK    4  A    between atoms: C_4  and  N_5 
REMARK    5  A    between atoms: O_20  and  C_17 
ROOT
ATOM      1  S   UNL d   1     -48.444  12.484  22.850  0.00  0.00     0.287 S 
ATOM      2  O   UNL d   1     -48.463  12.534  22.017  0.00  0.00    -0.198 OA
ATOM      3  O   UNL d   1     -48.420  12.432  23.696  0.00  0.00    -0.198 OA
ENDROOT
BRANCH   1   4
ATOM      4  N   UNL d   1     -49.285  12.450  22.876  0.00  0.00    -0.132 NA
BRANCH   4   5
ATOM      5  C   UNL d   1     -49.739  13.146  22.889  0.00  0.00     0.206 A 
ATOM      6  N   UNL d   1     -49.615  13.912  23.247  0.00  0.00    -0.216 NA
ATOM      7  C   UNL d   1     -50.282  14.372  23.052  0.00  0.00     0.161 A 
ATOM      8  C   UNL d   1     -50.791  13.938  22.606  0.00  0.00     0.061 A 
ATOM      9  S   UNL d   1     -50.485  13.191  22.492  0.00  0.00    -0.046 SA
BRANCH   7  10
ATOM     10  C   UNL d   1     -50.422  15.154  23.270  0.00  0.00     0.436 C 
ATOM     11  F   UNL d   1     -50.610  15.922  23.516  0.00  0.00    -0.165 F 
ATOM     12  F   UNL d   1     -49.860  15.795  23.023  0.00  0.00    -0.165 F 
ATOM     13  F   UNL d   1     -51.060  15.312  23.698  0.00  0.00    -0.165 F 
ENDBRANCH   7  10
ENDBRANCH   4   5
ENDBRANCH   1   4
BRANCH   1  14
ATOM     14  C   UNL d   1     -47.598  12.517  22.836  0.00  0.00     0.105 A 
ATOM     15  C   UNL d   1     -47.185  12.014  23.326  0.00  0.00     0.015 A 
ATOM     16  C   UNL d   1     -46.370  12.030  23.327  0.00  0.00     0.025 A 
ATOM     17  C   UNL d   1     -45.956  12.552  22.836  0.00  0.00     0.094 A 
ATOM     18  C   UNL d   1     -46.360  13.061  22.341  0.00  0.00     0.025 A 
ATOM     19  C   UNL d   1     -47.170  13.053  22.332  0.00  0.00     0.015 A 
BRANCH  17  20
ATOM     20  O   UNL d   1     -45.112  12.589  22.819  0.00  0.00    -0.328 OA
ATOM     21  C   UNL d   1     -44.722  12.921  22.152  0.00  0.00     0.181 C 
ENDBRANCH  17  20
ENDBRANCH   1  14
TORSDOF 5
ENDMDL
MODEL 3
REMARK VINA RESULT:      -6.7      1.167      1.510
REMARK  5 active torsions:
REMARK  status: ('A' for Active; 'I' for Inactive)
REMARK    1  A    between atoms: N_5  and  S_1 
REMARK    2  A    between atoms: C_9  and  S_1 
REMARK    3  A    between atoms: C_6  and  C_2 
REMARK    4  A    between atoms: C_4  and  N_5 
REMARK    5  A    between atoms: O_20  and  C_17 
ROOT
ATOM      1  S   UNL d   1     -47.817  13.164  23.417  0.00  0.00     0.287 S 
ATOM      2  O   UNL d   1     -47.826  12.333  23.507  0.00  0.00    -0.198 OA
ATOM      3  O   UNL d   1     -47.804  14.006  23.325  0.00  0.00    -0.198 OA
ENDROOT
BRANCH   1   4
ATOM      4  N   UNL d   1     -48.611  13.211  23.698  0.00  0.00    -0.132 NA
BRANCH   4   5
ATOM      5  C   UNL d   1     -49.250  13.029  23.199  0.00  0.00     0.206 A 
ATOM      6  N   UNL d   1     -49.437  13.249  22.394  0.00  0.00    -0.216 NA
ATOM      7  C   UNL d   1     -50.163  12.882  22.215  0.00  0.00     0.161 A 
ATOM      8  C   UNL d   1     -50.421  12.463  22.851  0.00  0.00     0.061 A 
ATOM      9  S   UNL d   1     -49.885  12.536  23.461  0.00  0.00    -0.046 SA
BRANCH   7  10
ATOM     10  C   UNL d   1     -50.575  12.927  21.503  0.00  0.00     0.436 C 
ATOM     11  F   UNL d   1     -51.012  13.020  20.805  0.00  0.00    -0.165 F 
ATOM     12  F   UNL d   1     -50.479  12.292  20.890  0.00  0.00    -0.165 F 
ATOM     13  F   UNL d   1     -51.049  13.539  21.385  0.00  0.00    -0.165 F 
ENDBRANCH   7  10
ENDBRANCH   4   5
ENDBRANCH   1   4
BRANCH   1  14
ATOM     14  C   UNL d   1     -47.020  13.129  23.134  0.00  0.00     0.105 A 
ATOM     15  C   UNL d   1     -46.705  13.796  22.790  0.00  0.00     0.015 A 
ATOM     16  C   UNL d   1     -45.939  13.782  22.511  0.00  0.00     0.025 A 
ATOM     17  C   UNL d   1     -45.477  13.099  22.573  0.00  0.00     0.094 A 
ATOM     18  C   UNL d   1     -45.783  12.424  22.917  0.00  0.00     0.025 A 
ATOM     19  C   UNL d   1     -46.543  12.426  23.198  0.00  0.00     0.015 A 
BRANCH  17  20
ATOM     20  O   UNL d   1     -44.681  13.059  22.292  0.00  0.00    -0.328 OA
ATOM     21  C   UNL d   1     -44.533  12.921  21.476  0.00  0.00     0.181 C 
ENDBRANCH  17  20
ENDBRANCH   1  14
TORSDOF 5
ENDMDL
MODEL 4
REMARK VINA RESULT:      -6.5      2.492      4.359
REMARK  5 active torsions:
REMARK  status: ('A' for Active; 'I' for Inactive)
REMARK    1  A    between atoms: N_5  and  S_1 
REMARK    2  A    between atoms: C_9  and  S_1 
REMARK    3  A    between atoms: C_6  and  C_2 
REMARK    4  A    between atoms: C_4  and  N_5 
REMARK    5  A    between atoms: O_20  and  C_17 
ROOT
ATOM      1  S   UNL d   1     -47.478  14.035  22.893  0.00  0.00     0.287 S 
ATOM      2  O   UNL d   1     -47.754  13.610  23.557  0.00  0.00    -0.198 OA
ATOM      3  O   UNL d   1     -47.201  14.466  22.218  0.00  0.00    -0.198 OA
ENDROOT
BRANCH   1   4
ATOM      4  N   UNL d   1     -46.683  13.954  23.161  0.00  0.00    -0.132 NA
BRANCH   4   5
ATOM      5  C   UNL d   1     -46.283  13.228  23.094  0.00  0.00     0.206 A 
ATOM      6  N   UNL d   1     -46.337  12.494  23.529  0.00  0.00    -0.216 NA
ATOM      7  C   UNL d   1     -45.783  11.977  23.185  0.00  0.00     0.161 A 
ATOM      8  C   UNL d   1     -45.404  12.348  22.579  0.00  0.00     0.061 A 
ATOM      9  S   UNL d   1     -45.689  13.108  22.504  0.00  0.00    -0.046 SA
BRANCH   7  10
ATOM     10  C   UNL d   1     -45.626  11.200  23.411  0.00  0.00     0.436 C 
ATOM     11  F   UNL d   1     -45.523  10.415  23.653  0.00  0.00    -0.165 F 
ATOM     12  F   UNL d   1     -44.807  10.867  23.329  0.00  0.00    -0.165 F 
ATOM     13  F   UNL d   1     -46.215  10.771  23.698  0.00  0.00    -0.165 F 
ENDBRANCH   7  10
ENDBRANCH   4   5
ENDBRANCH   1   4
BRANCH   1  14
ATOM     14  C   UNL d   1     -48.273  14.123  22.613  0.00  0.00     0.105 A 
ATOM     15  C   UNL d   1     -48.701  14.766  22.871  0.00  0.00     0.015 A 
ATOM     16  C   UNL d   1     -49.468  14.868  22.614  0.00  0.00     0.025 A 
ATOM     17  C   UNL d   1     -49.817  14.327  22.094  0.00  0.00     0.094 A 
ATOM     18  C   UNL d   1     -49.395  13.679  21.829  0.00  0.00     0.025 A 
ATOM     19  C   UNL d   1     -48.633  13.567  22.079  0.00  0.00     0.015 A 
BRANCH  17  20
ATOM     20  O   UNL d   1     -50.609  14.411  21.813  0.00  0.00    -0.328 OA
ATOM     21  C   UNL d   1     -51.011  13.745  21.493  0.00  0.00     0.181 C 
ENDBRANCH  17  20
ENDBRANCH   1  14
TORSDOF 5
ENDMDL
MODEL 5
REMARK VINA RESULT:      -5.9      8.784      9.901
REMARK  5 active torsions:
REMARK  status: ('A' for Active; 'I' for Inactive)
REMARK    1  A    between atoms: N_5  and  S_1 
REMARK    2  A    between atoms: C_9  and  S_1 
REMARK    3  A    between atoms: C_6  and  C_2 
REMARK    4  A    between atoms: C_4  and  N_5 
REMARK    5  A    between atoms: O_20  and  C_17 
ROOT
ATOM      1  S   UNL d   1     -40.160  14.636  18.104  0.00  0.00     0.287 S 
ATOM      2  O   UNL d   1     -39.710  15.338  18.154  0.00  0.00    -0.198 OA
ATOM      3  O   UNL d   1     -40.614  13.923  18.051  0.00  0.00    -0.198 OA
ENDROOT
BRANCH   1   4
ATOM      4  N   UNL d   1     -40.717  14.944  18.657  0.00  0.00    -0.132 NA
BRANCH   4   5
ATOM      5  C   UNL d   1     -40.546  14.959  19.470  0.00  0.00     0.206 A 
ATOM      6  N   UNL d   1     -40.169  14.398  19.993  0.00  0.00    -0.216 NA
ATOM      7  C   UNL d   1     -40.167  14.748  20.749  0.00  0.00     0.161 A 
ATOM      8  C   UNL d   1     -40.513  15.473  20.715  0.00  0.00     0.061 A 
ATOM      9  S   UNL d   1     -40.752  15.625  19.950  0.00  0.00    -0.046 SA
BRANCH   7  10
ATOM     10  C   UNL d   1     -39.863  14.422  21.442  0.00  0.00     0.436 C 
ATOM     11  F   UNL d   1     -39.560  14.044  22.113  0.00  0.00    -0.165 F 
ATOM     12  F   UNL d   1     -39.680  14.942  22.138  0.00  0.00    -0.165 F 
ATOM     13  F   UNL d   1     -39.742  13.648  21.468  0.00  0.00    -0.165 F 
ENDBRANCH   7  10
ENDBRANCH   4   5
ENDBRANCH   1   4
BRANCH   1  14
ATOM     14  C   UNL d   1     -39.607  14.316  17.548  0.00  0.00     0.105 A 
ATOM     15  C   UNL d   1     -39.423  14.761  16.891  0.00  0.00     0.015 A 
ATOM     16  C   UNL d   1     -38.892  14.471  16.344  0.00  0.00     0.025 A 
ATOM     17  C   UNL d   1     -38.539  13.730  16.447  0.00  0.00     0.094 A 
ATOM     18  C   UNL d   1     -38.718  13.276  17.103  0.00  0.00     0.025 A 
ATOM     19  C   UNL d   1     -39.243  13.554  17.653  0.00  0.00     0.015 A 
BRANCH  17  20
ATOM     20  O   UNL d   1     -37.987  13.407  15.895  0.00  0.00    -0.328 OA
ATOM     21  C   UNL d   1     -37.940  13.725  15.118  0.00  0.00     0.181 C 
ENDBRANCH  17  20
ENDBRANCH   1  14
TORSDOF 5
ENDMDL
MODEL 6
REMARK VINA RESULT:      -5.6      8.841      9.466
REMARK  5 active torsions:
REMARK  status: ('A' for Active; 'I' for Inactive)
REMARK    1  A    between atoms: N_5  and  S_1 
REMARK    2  A    between atoms: C_9  and  S_1 
REMARK    3  A    between atoms: C_6  and  C_2 
REMARK    4  A    between atoms: C_4  and  N_5 
REMARK    5  A    between atoms: O_20  and  C_17 
ROOT
ATOM      1  S   UNL d   1     -40.507  14.860  19.962  0.00  0.00     0.287 S 
ATOM      2  O   UNL d   1     -40.245  15.602  19.680  0.00  0.00    -0.198 OA
ATOM      3  O   UNL d   1     -40.770  14.109  20.251  0.00  0.00    -0.198 OA
ENDROOT
BRANCH   1   4
ATOM      4  N   UNL d   1     -40.876  14.700  19.221  0.00  0.00    -0.132 NA
BRANCH   4   5
ATOM      5  C   UNL d   1     -40.431  14.431  18.573  0.00  0.00     0.206 A 
ATOM      6  N   UNL d   1     -39.869  13.793  18.480  0.00  0.00    -0.216 NA
ATOM      7  C   UNL d   1     -39.618  13.817  17.687  0.00  0.00     0.161 A 
ATOM      8  C   UNL d   1     -39.987  14.419  17.301  0.00  0.00     0.061 A 
ATOM      9  S   UNL d   1     -40.485  14.807  17.817  0.00  0.00    -0.046 SA
BRANCH   7  10
ATOM     10  C   UNL d   1     -39.075  13.312  17.327  0.00  0.00     0.436 C 
ATOM     11  F   UNL d   1     -38.537  12.769  17.008  0.00  0.00    -0.165 F 
ATOM     12  F   UNL d   1     -38.690  13.542  16.560  0.00  0.00    -0.165 F 
ATOM     13  F   UNL d   1     -38.910  12.631  17.678  0.00  0.00    -0.165 F 
ENDBRANCH   7  10
ENDBRANCH   4   5
ENDBRANCH   1   4
BRANCH   1  14
ATOM     14  C   UNL d   1     -40.139  15.011  20.710  0.00  0.00     0.105 A 
ATOM     15  C   UNL d   1     -40.208  15.757  21.028  0.00  0.00     0.015 A 
ATOM     16  C   UNL d   1     -39.861  15.922  21.747  0.00  0.00     0.025 A 
ATOM     17  C   UNL d   1     -39.440  15.340  22.159  0.00  0.00     0.094 A 
ATOM     18  C   UNL d   1     -39.365  14.588  21.848  0.00  0.00     0.025 A 
ATOM     19  C   UNL d   1     -39.705  14.414  21.134  0.00  0.00     0.015 A 
BRANCH  17  20
ATOM     20  O   UNL d   1     -39.072  15.486  22.905  0.00  0.00    -0.328 OA
ATOM     21  C   UNL d   1     -38.284  15.779  22.932  0.00  0.00     0.181 C 
ENDBRANCH  17  20
ENDBRANCH   1  14
TORSDOF 5
ENDMDL
MODEL 7
REMARK VINA RESULT:      -5.2      9.342      9.982
REMARK  5 active torsions:
REMARK  status: ('A' for Active; 'I' for Inactive)
REMARK    1  A    between atoms: N_5  and  S_1 
REMARK    2  A    between atoms: C_9  and  S_1 
REMARK    3  A    between atoms: C_6  and  C_2 
REMARK    4  A    between atoms: C_4  and  N_5 
REMARK    5  A    between atoms: O_20  and  C_17 
ROOT
ATOM      1  S   UNL d   1     -39.084  15.353  19.380  0.00  0.00     0.287 S 
ATOM      2  O   UNL d   1     -39.569  15.919  19.757  0.00  0.00    -0.198 OA
ATOM      3  O   UNL d   1     -38.595  14.778  18.995  0.00  0.00    -0.198 OA
ENDROOT
BRANCH   1   4
ATOM      4  N   UNL d   1     -38.501  15.438  19.983  0.00  0.00    -0.132 NA
BRANCH   4   5
ATOM      5  C   UNL d   1     -38.600  15.076  20.725  0.00  0.00     0.206 A 
ATOM      6  N   UNL d   1     -38.753  14.269  20.960  0.00  0.00    -0.216 NA
ATOM      7  C   UNL d   1     -38.792  14.272  21.792  0.00  0.00     0.161 A 
ATOM      8  C   UNL d   1     -38.673  15.018  22.068  0.00  0.00     0.061 A 
ATOM      9  S   UNL d   1     -38.554  15.525  21.441  0.00  0.00    -0.046 SA
BRANCH   7  10
ATOM     10  C   UNL d   1     -38.929  13.622  22.281  0.00  0.00     0.436 C 
ATOM     11  F   UNL d   1     -39.096  13.005  22.807  0.00  0.00    -0.165 F 
ATOM     12  F   UNL d   1     -38.617  12.821  22.059  0.00  0.00    -0.165 F 
ATOM     13  F   UNL d   1     -39.339  13.733  22.939  0.00  0.00    -0.165 F 
ENDBRANCH   7  10
ENDBRANCH   4   5
ENDBRANCH   1   4
BRANCH   1  14
ATOM     14  C   UNL d   1     -39.663  15.259  18.769  0.00  0.00     0.105 A 
ATOM     15  C   UNL d   1     -40.064  15.921  18.515  0.00  0.00     0.015 A 
ATOM     16  C   UNL d   1     -40.625  15.852  17.928  0.00  0.00     0.025 A 
ATOM     17  C   UNL d   1     -40.793  15.117  17.586  0.00  0.00     0.094 A 
ATOM     18  C   UNL d   1     -40.396  14.447  17.834  0.00  0.00     0.025 A 
ATOM     19  C   UNL d   1     -39.837  14.504  18.417  0.00  0.00     0.015 A 
BRANCH  17  20
ATOM     20  O   UNL d   1     -41.369  15.019  16.977  0.00  0.00    -0.328 OA
ATOM     21  C   UNL d   1     -41.568  15.669  16.482  0.00  0.00     0.181 C 
ENDBRANCH  17  20
ENDBRANCH   1  14
TORSDOF 5
ENDMDL
MODEL 8
REMARK VINA RESULT:      -5.2      2.741      4.468
REMARK  5 active torsions:
REMARK  status: ('A' for Active; 'I' for Inactive)
REMARK    1  A    between atoms: N_5  and  S_1 
REMARK    2  A    between atoms: C_9  and  S_1 
REMARK    3  A    between atoms: C_6  and  C_2 
REMARK    4  A    between atoms: C_4  and  N_5 
REMARK    5  A    between atoms: O_20  and  C_17 
ROOT
ATOM      1  S   UNL d   1     -48.373  12.081  23.240  0.00  0.00     0.287 S 
ATOM      2  O   UNL d   1     -48.404  11.380  22.787  0.00  0.00    -0.198 OA
ATOM      3  O   UNL d   1     -48.345  12.794  23.697  0.00  0.00    -0.198 OA
ENDROOT
BRANCH   1   4
ATOM      4  N   UNL d   1     -47.698  11.794  23.654  0.00  0.00    -0.132 NA
BRANCH   4   5
ATOM      5  C   UNL d   1     -46.930  11.942  23.372  0.00  0.00     0.206 A 
ATOM      6  N   UNL d   1     -46.613  12.527  22.834  0.00  0.00    -0.216 NA
ATOM      7  C   UNL d   1     -45.796  12.377  22.782  0.00  0.00     0.161 A 
ATOM      8  C   UNL d   1     -45.603  11.749  23.247  0.00  0.00     0.061 A 
ATOM      9  S   UNL d   1     -46.274  11.467  23.615  0.00  0.00    -0.046 SA
BRANCH   7  10
ATOM     10  C   UNL d   1     -45.247  12.794  22.330  0.00  0.00     0.436 C 
ATOM     11  F   UNL d   1     -44.734  13.252  21.869  0.00  0.00    -0.165 F 
ATOM     12  F   UNL d   1     -44.432  12.465  22.203  0.00  0.00    -0.165 F 
ATOM     13  F   UNL d   1     -45.464  13.480  22.021  0.00  0.00    -0.165 F 
ENDBRANCH   7  10
ENDBRANCH   4   5
ENDBRANCH   1   4
BRANCH   1  14
ATOM     14  C   UNL d   1     -49.051  12.380  22.830  0.00  0.00     0.105 A 
ATOM     15  C   UNL d   1     -49.517  12.931  23.209  0.00  0.00     0.015 A 
ATOM     16  C   UNL d   1     -50.174  13.231  22.831  0.00  0.00     0.025 A 
ATOM     17  C   UNL d   1     -50.375  12.983  22.067  0.00  0.00     0.094 A 
ATOM     18  C   UNL d   1     -49.915  12.431  21.679  0.00  0.00     0.025 A 
ATOM     19  C   UNL d   1     -49.259  12.126  22.045  0.00  0.00     0.015 A 
BRANCH  17  20
ATOM     20  O   UNL d   1     -51.050  13.278  21.655  0.00  0.00    -0.328 OA
ATOM     21  C   UNL d   1     -51.065  14.079  21.397  0.00  0.00     0.181 C 
ENDBRANCH  17  20
ENDBRANCH   1  14
TORSDOF 5
ENDMDL
MODEL 9
REMARK VINA RESULT:      -5.1      8.586      9.235
REMARK  5 active torsions:
REMARK  status: ('A' for Active; 'I' for Inactive)
REMARK    1  A    between atoms: N_5  and  S_1 
REMARK    2  A    between atoms: C_9  and  S_1 
REMARK    3  A    between atoms: C_6  and  C_2 
REMARK    4  A    between atoms: C_4  and  N_5 
REMARK    5  A    between atoms: O_20  and  C_17 
ROOT
ATOM      1  S   UNL d   1     -39.572  14.773  19.222  0.00  0.00     0.287 S 
ATOM      2  O   UNL d   1     -39.197  15.478  18.975  0.00  0.00    -0.198 OA
ATOM      3  O   UNL d   1     -39.951  14.060  19.477  0.00  0.00    -0.198 OA
ENDROOT
BRANCH   1   4
ATOM      4  N   UNL d   1     -39.557  14.479  18.432  0.00  0.00    -0.132 NA
BRANCH   4   5
ATOM      5  C   UNL d   1     -39.981  14.861  17.828  0.00  0.00     0.206 A 
ATOM      6  N   UNL d   1     -40.817  14.983  17.694  0.00  0.00    -0.216 NA
ATOM      7  C   UNL d   1     -40.879  15.411  16.983  0.00  0.00     0.161 A 
ATOM      8  C   UNL d   1     -40.145  15.554  16.685  0.00  0.00     0.061 A 
ATOM      9  S   UNL d   1     -39.583  15.230  17.179  0.00  0.00    -0.046 SA
BRANCH   7  10
ATOM     10  C   UNL d   1     -41.574  15.663  16.618  0.00  0.00     0.436 C 
ATOM     11  F   UNL d   1     -42.295  15.922  16.304  0.00  0.00    -0.165 F 
ATOM     12  F   UNL d   1     -41.620  15.719  15.733  0.00  0.00    -0.165 F 
ATOM     13  F   UNL d   1     -42.185  15.850  17.072  0.00  0.00    -0.165 F 
ENDBRANCH   7  10
ENDBRANCH   4   5
ENDBRANCH   1   4
BRANCH   1  14
ATOM     14  C   UNL d   1     -39.591  15.058  20.019  0.00  0.00     0.105 A 
ATOM     15  C   UNL d   1     -40.305  15.054  20.411  0.00  0.00     0.015 A 
ATOM     16  C   UNL d   1     -40.345  15.325  21.179  0.00  0.00     0.025 A 
ATOM     17  C   UNL d   1     -39.669  15.604  21.566  0.00  0.00     0.094 A 
ATOM     18  C   UNL d   1     -38.948  15.613  21.182  0.00  0.00     0.025 A 
ATOM     19  C   UNL d   1     -38.897  15.346  20.419  0.00  0.00     0.015 A 
BRANCH  17  20
ATOM     20  O   UNL d   1     -39.684  15.890  22.361  0.00  0.00    -0.328 OA
ATOM     21  C   UNL d   1     -39.045  15.715  22.880  0.00  0.00     0.181 C 
ENDBRANCH  17  20
ENDBRANCH   1  14
TORSDOF 5
ENDMDL
