MODEL 1
REMARK VINA RESULT:      -9.0      0.000      0.000
REMARK  3 active torsions:
REMARK  status: ('A' for Active; 'I' for Inactive)
REMARK    1  A    between atoms: N_9  and  C_3 
REMARK    2  A    between atoms: C_14  and  C_4 
REMARK       I    between atoms: C_10  and  N_11 
REMARK    3  A    between atoms: C_13  and  C_10 
ROOT
ATOM      1  N   UNL d   1      52.064  33.880  53.442  0.00  0.00    -0.196 N 
ATOM      2  C   UNL d   1      52.714  33.447  53.691  0.00  0.00     0.167 A 
ATOM      3  C   UNL d   1      51.441  33.507  53.048  0.00  0.00     0.152 A 
ATOM      4  C   UNL d   1      53.236  33.961  54.061  0.00  0.00     0.057 A 
ATOM      5  N   UNL d   1      52.180  34.664  53.657  0.00  0.00    -0.161 NA
ATOM      6  N   UNL d   1      52.753  32.635  53.550  0.00  0.00    -0.227 NA
ATOM      7  C   UNL d   1      51.478  32.691  52.906  0.00  0.00     0.057 A 
ATOM      8  C   UNL d   1      52.909  34.707  54.041  0.00  0.00     0.124 A 
ATOM      9  C   UNL d   1      52.129  32.258  53.155  0.00  0.00     0.086 A 
ATOM     10  C   UNL d   1      52.159  31.437  53.007  0.00  0.00     0.021 C 
ENDROOT
BRANCH   3  11
ATOM     11  N   UNL d   1      50.790  33.939  52.799  0.00  0.00    -0.286 N 
ATOM     12  C   UNL d   1      50.324  34.347  53.336  0.00  0.00     0.101 A 
ATOM     13  C   UNL d   1      49.667  34.783  53.081  0.00  0.00     0.102 A 
ATOM     14  N   UNL d   1      49.482  34.806  52.275  0.00  0.00    -0.267 N 
ATOM     15  C   UNL d   1      48.823  35.243  52.009  0.00  0.00     0.288 C 
ATOM     16  C   UNL d   1      49.945  34.401  51.736  0.00  0.00     0.102 A 
ATOM     17  O   UNL d   1      48.633  35.270  51.211  0.00  0.00    -0.264 OA
ATOM     18  C   UNL d   1      50.602  33.965  51.992  0.00  0.00     0.101 A 
BRANCH  15  19
ATOM     19  C   UNL d   1      48.359  35.650  52.557  0.00  0.00     0.156 A 
ATOM     20  O   UNL d   1      48.547  36.085  53.222  0.00  0.00    -0.300 OA
ATOM     21  C   UNL d   1      47.843  36.368  53.557  0.00  0.00     0.123 A 
ATOM     22  C   UNL d   1      47.235  36.105  53.098  0.00  0.00     0.029 A 
ATOM     23  C   UNL d   1      47.543  35.662  52.480  0.00  0.00     0.032 A 
ENDBRANCH  15  19
ENDBRANCH   3  11
BRANCH   4  24
ATOM     24  C   UNL d   1      53.971  33.844  54.416  0.00  0.00     0.004 A 
ATOM     25  C   UNL d   1      54.023  33.752  55.240  0.00  0.00     0.000 A 
ATOM     26  C   UNL d   1      54.758  33.634  55.595  0.00  0.00     0.000 A 
ATOM     27  C   UNL d   1      55.444  33.607  55.134  0.00  0.00     0.000 A 
ATOM     28  C   UNL d   1      55.393  33.698  54.314  0.00  0.00     0.000 A 
ATOM     29  C   UNL d   1      54.658  33.816  53.959  0.00  0.00     0.000 A 
ENDBRANCH   4  24
TORSDOF 3
ENDMDL
MODEL 2
REMARK VINA RESULT:      -8.2      1.293      2.089
REMARK  3 active torsions:
REMARK  status: ('A' for Active; 'I' for Inactive)
REMARK    1  A    between atoms: N_9  and  C_3 
REMARK    2  A    between atoms: C_14  and  C_4 
REMARK       I    between atoms: C_10  and  N_11 
REMARK    3  A    between atoms: C_13  and  C_10 
ROOT
ATOM      1  N   UNL d   1      51.479  33.340  53.035  0.00  0.00    -0.196 N 
ATOM      2  C   UNL d   1      52.228  33.037  53.174  0.00  0.00     0.167 A 
ATOM      3  C   UNL d   1      51.364  34.156  52.975  0.00  0.00     0.152 A 
ATOM      4  C   UNL d   1      52.170  32.219  53.206  0.00  0.00     0.057 A 
ATOM      5  N   UNL d   1      50.954  32.712  52.980  0.00  0.00    -0.161 NA
ATOM      6  N   UNL d   1      52.874  33.545  53.256  0.00  0.00    -0.227 NA
ATOM      7  C   UNL d   1      52.012  34.667  53.057  0.00  0.00     0.057 A 
ATOM      8  C   UNL d   1      51.389  32.019  53.087  0.00  0.00     0.124 A 
ATOM      9  C   UNL d   1      52.761  34.364  53.196  0.00  0.00     0.086 A 
ATOM     10  C   UNL d   1      53.408  34.885  53.277  0.00  0.00     0.021 C 
ENDROOT
BRANCH   3  11
ATOM     11  N   UNL d   1      50.615  34.459  52.835  0.00  0.00    -0.286 N 
ATOM     12  C   UNL d   1      50.199  34.845  53.427  0.00  0.00     0.101 A 
ATOM     13  C   UNL d   1      49.442  35.151  53.282  0.00  0.00     0.102 A 
ATOM     14  N   UNL d   1      49.105  35.064  52.532  0.00  0.00    -0.267 N 
ATOM     15  C   UNL d   1      48.344  35.368  52.378  0.00  0.00     0.288 C 
ATOM     16  C   UNL d   1      49.517  34.680  51.939  0.00  0.00     0.102 A 
ATOM     17  O   UNL d   1      48.002  35.286  51.635  0.00  0.00    -0.264 OA
ATOM     18  C   UNL d   1      50.274  34.374  52.084  0.00  0.00     0.101 A 
BRANCH  15  19
ATOM     19  C   UNL d   1      47.932  35.755  52.979  0.00  0.00     0.156 A 
ATOM     20  O   UNL d   1      47.817  35.579  53.769  0.00  0.00    -0.300 OA
ATOM     21  C   UNL d   1      47.350  36.176  54.104  0.00  0.00     0.123 A 
ATOM     22  C   UNL d   1      47.184  36.708  53.522  0.00  0.00     0.029 A 
ATOM     23  C   UNL d   1      47.538  36.457  52.826  0.00  0.00     0.032 A 
ENDBRANCH  15  19
ENDBRANCH   3  11
BRANCH   4  24
ATOM     24  C   UNL d   1      52.732  31.629  53.329  0.00  0.00     0.004 A 
ATOM     25  C   UNL d   1      52.904  31.087  52.723  0.00  0.00     0.000 A 
ATOM     26  C   UNL d   1      53.467  30.497  52.846  0.00  0.00     0.000 A 
ATOM     27  C   UNL d   1      53.861  30.441  53.569  0.00  0.00     0.000 A 
ATOM     28  C   UNL d   1      53.691  30.980  54.174  0.00  0.00     0.000 A 
ATOM     29  C   UNL d   1      53.128  31.570  54.051  0.00  0.00     0.000 A 
ENDBRANCH   4  24
TORSDOF 3
ENDMDL
MODEL 3
REMARK VINA RESULT:      -7.0      1.213      2.341
REMARK  3 active torsions:
REMARK  status: ('A' for Active; 'I' for Inactive)
REMARK    1  A    between atoms: N_9  and  C_3 
REMARK    2  A    between atoms: C_14  and  C_4 
REMARK       I    between atoms: C_10  and  N_11 
REMARK    3  A    between atoms: C_13  and  C_10 
ROOT
ATOM      1  N   UNL d   1      52.085  32.471  53.237  0.00  0.00    -0.196 N 
ATOM      2  C   UNL d   1      52.742  32.073  53.523  0.00  0.00     0.167 A 
ATOM      3  C   UNL d   1      52.052  33.296  53.265  0.00  0.00     0.152 A 
ATOM      4  C   UNL d   1      52.616  31.268  53.422  0.00  0.00     0.057 A 
ATOM      5  N   UNL d   1      51.549  31.915  52.957  0.00  0.00    -0.161 NA
ATOM      6  N   UNL d   1      53.377  32.493  53.841  0.00  0.00    -0.227 NA
ATOM      7  C   UNL d   1      52.690  33.719  53.585  0.00  0.00     0.057 A 
ATOM      8  C   UNL d   1      51.885  31.170  53.075  0.00  0.00     0.124 A 
ATOM      9  C   UNL d   1      53.347  33.321  53.871  0.00  0.00     0.086 A 
ATOM     10  C   UNL d   1      53.985  33.754  54.191  0.00  0.00     0.021 C 
ENDROOT
BRANCH   3  11
ATOM     11  N   UNL d   1      51.395  33.695  52.979  0.00  0.00    -0.286 N 
ATOM     12  C   UNL d   1      50.887  34.090  53.487  0.00  0.00     0.101 A 
ATOM     13  C   UNL d   1      50.224  34.491  53.194  0.00  0.00     0.102 A 
ATOM     14  N   UNL d   1      50.076  34.492  52.380  0.00  0.00    -0.267 N 
ATOM     15  C   UNL d   1      49.410  34.894  52.077  0.00  0.00     0.288 C 
ATOM     16  C   UNL d   1      50.580  34.100  51.870  0.00  0.00     0.102 A 
ATOM     17  O   UNL d   1      49.256  34.900  51.270  0.00  0.00    -0.264 OA
ATOM     18  C   UNL d   1      51.243  33.698  52.163  0.00  0.00     0.101 A 
BRANCH  15  19
ATOM     19  C   UNL d   1      48.904  35.289  52.595  0.00  0.00     0.156 A 
ATOM     20  O   UNL d   1      49.037  35.697  53.290  0.00  0.00    -0.300 OA
ATOM     21  C   UNL d   1      48.310  35.979  53.571  0.00  0.00     0.123 A 
ATOM     22  C   UNL d   1      47.742  35.743  53.050  0.00  0.00     0.029 A 
ATOM     23  C   UNL d   1      48.098  35.318  52.446  0.00  0.00     0.032 A 
ENDBRANCH  15  19
ENDBRANCH   3  11
BRANCH   4  24
ATOM     24  C   UNL d   1      53.077  30.609  53.603  0.00  0.00     0.004 A 
ATOM     25  C   UNL d   1      52.895  30.145  54.268  0.00  0.00     0.000 A 
ATOM     26  C   UNL d   1      53.356  29.486  54.449  0.00  0.00     0.000 A 
ATOM     27  C   UNL d   1      53.999  29.284  53.972  0.00  0.00     0.000 A 
ATOM     28  C   UNL d   1      54.182  29.744  53.309  0.00  0.00     0.000 A 
ATOM     29  C   UNL d   1      53.721  30.404  53.128  0.00  0.00     0.000 A 
ENDBRANCH   4  24
TORSDOF 3
ENDMDL
MODEL 4
REMARK VINA RESULT:      -6.5      1.609      2.370
REMARK  3 active torsions:
REMARK  status: ('A' for Active; 'I' for Inactive)
REMARK    1  A    between atoms: N_9  and  C_3 
REMARK    2  A    between atoms: C_14  and  C_4 
REMARK       I    between atoms: C_10  and  N_11 
REMARK    3  A    between atoms: C_13  and  C_10 
ROOT
ATOM      1  N   UNL d   1      51.303  33.431  53.023  0.00  0.00    -0.196 N 
ATOM      2  C   UNL d   1      52.025  33.061  52.907  0.00  0.00     0.167 A 
ATOM      3  C   UNL d   1      51.200  34.222  52.808  0.00  0.00     0.152 A 
ATOM      4  C   UNL d   1      51.961  32.287  53.171  0.00  0.00     0.057 A 
ATOM      5  N   UNL d   1      50.788  32.888  53.361  0.00  0.00    -0.161 NA
ATOM      6  N   UNL d   1      52.656  33.475  52.573  0.00  0.00    -0.227 NA
ATOM      7  C   UNL d   1      51.833  34.639  52.472  0.00  0.00     0.057 A 
ATOM      8  C   UNL d   1      51.203  32.180  53.450  0.00  0.00     0.124 A 
ATOM      9  C   UNL d   1      52.556  34.269  52.355  0.00  0.00     0.086 A 
ATOM     10  C   UNL d   1      53.188  34.696  52.017  0.00  0.00     0.021 C 
ENDROOT
BRANCH   3  11
ATOM     11  N   UNL d   1      50.478  34.592  52.924  0.00  0.00    -0.286 N 
ATOM     12  C   UNL d   1      49.926  34.639  52.320  0.00  0.00     0.101 A 
ATOM     13  C   UNL d   1      49.196  35.015  52.441  0.00  0.00     0.102 A 
ATOM     14  N   UNL d   1      49.027  35.343  53.181  0.00  0.00    -0.267 N 
ATOM     15  C   UNL d   1      48.295  35.723  53.312  0.00  0.00     0.288 C 
ATOM     16  C   UNL d   1      49.574  35.298  53.786  0.00  0.00     0.102 A 
ATOM     17  O   UNL d   1      48.119  36.052  54.043  0.00  0.00    -0.264 OA
ATOM     18  C   UNL d   1      50.304  34.923  53.664  0.00  0.00     0.101 A 
BRANCH  15  19
ATOM     19  C   UNL d   1      47.745  35.766  52.698  0.00  0.00     0.156 A 
ATOM     20  O   UNL d   1      47.521  35.233  52.121  0.00  0.00    -0.300 OA
ATOM     21  C   UNL d   1      46.937  35.586  51.651  0.00  0.00     0.123 A 
ATOM     22  C   UNL d   1      46.808  36.327  51.942  0.00  0.00     0.029 A 
ATOM     23  C   UNL d   1      47.301  36.446  52.587  0.00  0.00     0.032 A 
ENDBRANCH  15  19
ENDBRANCH   3  11
BRANCH   4  24
ATOM     24  C   UNL d   1      52.499  31.663  53.194  0.00  0.00     0.004 A 
ATOM     25  C   UNL d   1      52.448  31.051  52.634  0.00  0.00     0.000 A 
ATOM     26  C   UNL d   1      52.987  30.427  52.657  0.00  0.00     0.000 A 
ATOM     27  C   UNL d   1      53.578  30.407  53.234  0.00  0.00     0.000 A 
ATOM     28  C   UNL d   1      53.630  31.016  53.792  0.00  0.00     0.000 A 
ATOM     29  C   UNL d   1      53.091  31.640  53.769  0.00  0.00     0.000 A 
ENDBRANCH   4  24
TORSDOF 3
ENDMDL
MODEL 5
REMARK VINA RESULT:      -6.3      2.449      5.556
REMARK  3 active torsions:
REMARK  status: ('A' for Active; 'I' for Inactive)
REMARK    1  A    between atoms: N_9  and  C_3 
REMARK    2  A    between atoms: C_14  and  C_4 
REMARK       I    between atoms: C_10  and  N_11 
REMARK    3  A    between atoms: C_13  and  C_10 
ROOT
ATOM      1  N   UNL d   1      51.495  33.485  53.142  0.00  0.00    -0.196 N 
ATOM      2  C   UNL d   1      51.131  34.220  53.143  0.00  0.00     0.167 A 
ATOM      3  C   UNL d   1      52.277  33.407  53.394  0.00  0.00     0.152 A 
ATOM      4  C   UNL d   1      50.364  34.126  52.867  0.00  0.00     0.057 A 
ATOM      5  N   UNL d   1      50.954  32.933  52.866  0.00  0.00    -0.161 NA
ATOM      6  N   UNL d   1      51.545  34.889  53.395  0.00  0.00    -0.227 NA
ATOM      7  C   UNL d   1      52.694  34.077  53.648  0.00  0.00     0.057 A 
ATOM      8  C   UNL d   1      50.254  33.337  52.697  0.00  0.00     0.124 A 
ATOM      9  C   UNL d   1      52.331  34.813  53.648  0.00  0.00     0.086 A 
ATOM     10  C   UNL d   1      52.757  35.483  53.905  0.00  0.00     0.021 C 
ENDROOT
BRANCH   3  11
ATOM     11  N   UNL d   1      52.641  32.671  53.394  0.00  0.00    -0.286 N 
ATOM     12  C   UNL d   1      52.306  32.035  53.788  0.00  0.00     0.101 A 
ATOM     13  C   UNL d   1      52.676  31.293  53.785  0.00  0.00     0.102 A 
ATOM     14  N   UNL d   1      53.390  31.197  53.380  0.00  0.00    -0.267 N 
ATOM     15  C   UNL d   1      53.769  30.454  53.373  0.00  0.00     0.288 C 
ATOM     16  C   UNL d   1      53.727  31.829  52.986  0.00  0.00     0.102 A 
ATOM     17  O   UNL d   1      54.479  30.350  52.972  0.00  0.00    -0.264 OA
ATOM     18  C   UNL d   1      53.357  32.571  52.989  0.00  0.00     0.101 A 
BRANCH  15  19
ATOM     19  C   UNL d   1      53.426  29.819  53.772  0.00  0.00     0.156 A 
ATOM     20  O   UNL d   1      52.727  29.410  53.658  0.00  0.00    -0.300 OA
ATOM     21  C   UNL d   1      52.673  28.819  54.236  0.00  0.00     0.123 A 
ATOM     22  C   UNL d   1      53.333  28.869  54.696  0.00  0.00     0.029 A 
ATOM     23  C   UNL d   1      53.803  29.482  54.417  0.00  0.00     0.032 A 
ENDBRANCH  15  19
ENDBRANCH   3  11
BRANCH   4  24
ATOM     24  C   UNL d   1      49.749  34.662  52.749  0.00  0.00     0.004 A 
ATOM     25  C   UNL d   1      49.461  34.799  51.981  0.00  0.00     0.000 A 
ATOM     26  C   UNL d   1      48.846  35.335  51.863  0.00  0.00     0.000 A 
ATOM     27  C   UNL d   1      48.514  35.737  52.504  0.00  0.00     0.000 A 
ATOM     28  C   UNL d   1      48.799  35.601  53.268  0.00  0.00     0.000 A 
ATOM     29  C   UNL d   1      49.414  35.065  53.386  0.00  0.00     0.000 A 
ENDBRANCH   4  24
TORSDOF 3
ENDMDL
