MODEL 1
REMARK VINA RESULT:      10.5      0.000      0.000
REMARK  3 active torsions:
REMARK  status: ('A' for Active; 'I' for Inactive)
REMARK    1  A    between atoms: N_6  and  C_2 
REMARK    2  A    between atoms: C_8  and  C_3 
REMARK       I    between atoms: C_7  and  N_6 
REMARK    3  A    between atoms: C_10  and  C_7 
ROOT
ATOM      1  N   UNL d   1      14.071  12.078  -2.814  0.00  0.00    -0.200 NA
ATOM      2  C   UNL d   1      13.410  11.876  -3.256  0.00  0.00     0.216 A 
ATOM      3  C   UNL d   1      13.844  12.109  -2.014  0.00  0.00     0.172 A 
ATOM      4  N   UNL d   1      13.041  11.924  -1.972  0.00  0.00    -0.187 NA
ATOM      5  S   UNL d   1      12.769  11.779  -2.741  0.00  0.00     0.054 SA
ENDROOT
BRANCH   3   6
ATOM      6  C   UNL d   1      14.336  12.292  -1.381  0.00  0.00     0.036 A 
ATOM      7  C   UNL d   1      14.206  11.950  -0.646  0.00  0.00     0.003 A 
ATOM      8  C   UNL d   1      14.705  12.138  -0.015  0.00  0.00     0.000 A 
ATOM      9  C   UNL d   1      15.329  12.668  -0.123  0.00  0.00     0.000 A 
ATOM     10  C   UNL d   1      15.458  13.011  -0.861  0.00  0.00     0.000 A 
ATOM     11  C   UNL d   1      14.956  12.819  -1.490  0.00  0.00     0.003 A 
ENDBRANCH   3   6
BRANCH   2  12
ATOM     12  N   UNL d   1      13.388  11.784  -4.074  0.00  0.00    -0.181 NA
ATOM     13  C   UNL d   1      13.200  12.429  -4.552  0.00  0.00     0.281 C 
ATOM     14  O   UNL d   1      13.035  13.161  -4.215  0.00  0.00    -0.265 OA
BRANCH  13  15
ATOM     15  C   UNL d   1      13.179  12.339  -5.364  0.00  0.00     0.063 C 
ATOM     16  C   UNL d   1      13.880  12.288  -5.799  0.00  0.00     0.005 C 
ENDBRANCH  13  15
ENDBRANCH   2  12
TORSDOF 3
ENDMDL
