MODEL 1
REMARK VINA RESULT:      -0.8      0.000      0.000
REMARK  4 active torsions:
REMARK  status: ('A' for Active; 'I' for Inactive)
REMARK    1  A    between atoms: C_2  and  C_1 
REMARK    2  A    between atoms: C_7  and  O_14 
REMARK       I    between atoms: N_12  and  C_7 
REMARK    3  A    between atoms: O_14  and  C_11 
REMARK    4  A    between atoms: C_24  and  C_18 
ROOT
ATOM      1  C   UNL d   1     -41.869-123.185 -50.161  0.00  0.00     0.099 A 
ATOM      2  C   UNL d   1     -41.659-122.443 -50.451  0.00  0.00     0.202 A 
ATOM      3  C   UNL d   1     -41.600-122.317 -51.271  0.00  0.00     0.062 A 
ATOM      4  C   UNL d   1     -42.023-123.810 -50.686  0.00  0.00     0.129 A 
ATOM      5  C   UNL d   1     -41.753-122.938 -51.794  0.00  0.00     0.105 A 
ATOM      6  O   UNL d   1     -41.964-123.683 -51.507  0.00  0.00    -0.305 OA
ATOM      7  C   UNL d   1     -41.486-122.074 -52.887  0.00  0.00     0.107 A 
ATOM      8  C   UNL d   1     -41.390-121.574 -51.563  0.00  0.00     0.007 A 
ATOM      9  C   UNL d   1     -41.696-122.817 -52.608  0.00  0.00     0.050 A 
ATOM     10  C   UNL d   1     -41.334-121.458 -52.370  0.00  0.00     0.023 A 
ATOM     11  O   UNL d   1     -41.507-121.824 -49.931  0.00  0.00    -0.286 OA
ENDROOT
BRANCH   1  12
ATOM     12  C   UNL d   1     -41.928-123.311 -49.346  0.00  0.00     0.168 A 
ATOM     13  N   UNL d   1     -42.612-123.243 -48.893  0.00  0.00    -0.225 NA
ATOM     14  C   UNL d   1     -42.416-123.420 -48.104  0.00  0.00     0.101 A 
ATOM     15  C   UNL d   1     -42.862-123.443 -47.418  0.00  0.00     0.021 A 
ATOM     16  C   UNL d   1     -41.610-123.596 -48.078  0.00  0.00     0.101 A 
ATOM     17  C   UNL d   1     -42.515-123.640 -46.697  0.00  0.00     0.002 A 
ATOM     18  C   UNL d   1     -41.702-123.816 -46.676  0.00  0.00     0.002 A 
ATOM     19  C   UNL d   1     -41.251-123.793 -47.369  0.00  0.00     0.021 A 
ATOM     20  N   UNL d   1     -41.311-123.528 -48.848  0.00  0.00    -0.225 NA
ENDBRANCH   1  12
BRANCH  10  21
ATOM     21  C   UNL d   1     -41.123-120.711 -52.667  0.00  0.00     0.002 C 
ATOM     22  C   UNL d   1     -41.145-120.051 -52.172  0.00  0.00     0.000 C 
ENDBRANCH  10  21
BRANCH   7  23
ATOM     23  O   UNL d   1     -41.428-121.953 -53.712  0.00  0.00    -0.259 OA
BRANCH  23  24
ATOM     24  C   UNL d   1     -41.592-122.572 -54.235  0.00  0.00     0.378 C 
ATOM     25  N   UNL d   1     -42.032-122.431 -54.918  0.00  0.00    -0.247 N 
ATOM     26  C   UNL d   1     -42.192-123.054 -55.436  0.00  0.00     0.112 A 
ATOM     27  C   UNL d   1     -42.309-121.670 -55.077  0.00  0.00     0.112 A 
ATOM     28  C   UNL d   1     -42.630-122.915 -56.115  0.00  0.00     0.142 A 
ATOM     29  O   UNL d   1     -42.910-122.156 -56.280  0.00  0.00    -0.300 OA
ATOM     30  C   UNL d   1     -42.750-121.532 -55.762  0.00  0.00     0.142 A 
ATOM     31  O   UNL d   1     -41.314-123.333 -54.076  0.00  0.00    -0.237 OA
ENDBRANCH  23  24
ENDBRANCH   7  23
TORSDOF 4
ENDMDL
