MODEL 1
REMARK VINA RESULT:      33.5      0.000      0.000
REMARK  8 active torsions:
REMARK  status: ('A' for Active; 'I' for Inactive)
REMARK    1  A    between atoms: C_7  and  C_1 
REMARK    2  A    between atoms: S_2  and  N_8 
REMARK    3  A    between atoms: C_11  and  S_2 
REMARK    4  A    between atoms: O_17  and  C_7 
REMARK    5  A    between atoms: N_8  and  C_13 
REMARK    6  A    between atoms: C_22  and  O_17 
REMARK    7  A    between atoms: O_19  and  C_23 
REMARK    8  A    between atoms: C_23  and  C_22 
ROOT
ATOM      1  C   UNL d   1      13.401  14.186  -4.420  0.00  0.00     0.088 A 
ATOM      2  C   UNL d   1      13.509  14.216  -5.235  0.00  0.00     0.105 A 
ATOM      3  C   UNL d   1      13.269  13.406  -4.207  0.00  0.00     0.031 A 
ATOM      4  O   UNL d   1      13.441  13.437  -5.528  0.00  0.00    -0.307 OA
ATOM      5  C   UNL d   1      13.293  12.944  -4.890  0.00  0.00     0.100 A 
ATOM      6  C   UNL d   1      13.127  13.051  -3.474  0.00  0.00     0.022 A 
ATOM      7  C   UNL d   1      13.012  12.241  -3.429  0.00  0.00     0.094 A 
ATOM      8  C   UNL d   1      13.176  12.127  -4.840  0.00  0.00     0.026 A 
ATOM      9  C   UNL d   1      13.036  11.779  -4.112  0.00  0.00     0.022 A 
ATOM     10  C   UNL d   1      13.658  14.859  -5.721  0.00  0.00     0.027 C 
ENDROOT
BRANCH   7  11
ATOM     11  N   UNL d   1      12.864  11.879  -2.653  0.00  0.00    -0.158 NA
BRANCH  11  12
ATOM     12  S   UNL d   1      13.446  11.896  -2.057  0.00  0.00     0.285 S 
ATOM     13  O   UNL d   1      14.054  11.973  -2.610  0.00  0.00    -0.198 OA
ATOM     14  O   UNL d   1      12.837  11.818  -1.461  0.00  0.00    -0.198 OA
BRANCH  12  15
ATOM     15  C   UNL d   1      14.011  11.910  -1.424  0.00  0.00     0.105 A 
ATOM     16  C   UNL d   1      14.804  12.017  -1.626  0.00  0.00     0.013 A 
ATOM     17  C   UNL d   1      15.381  12.036  -1.036  0.00  0.00     0.001 A 
ATOM     18  C   UNL d   1      15.163  11.948  -0.244  0.00  0.00     0.000 A 
ATOM     19  C   UNL d   1      14.375  11.842  -0.047  0.00  0.00     0.001 A 
ATOM     20  C   UNL d   1      13.798  11.823  -0.638  0.00  0.00     0.013 A 
ENDBRANCH  12  15
ENDBRANCH  11  12
ENDBRANCH   7  11
BRANCH   1  21
ATOM     21  C   UNL d   1      13.433  14.875  -3.935  0.00  0.00     0.302 C 
ATOM     22  O   UNL d   1      12.777  15.377  -3.855  0.00  0.00    -0.259 OA
BRANCH  21  23
ATOM     23  O   UNL d   1      14.141  15.049  -3.531  0.00  0.00    -0.269 OA
BRANCH  23  24
ATOM     24  C   UNL d   1      14.211  15.739  -3.072  0.00  0.00     0.152 C 
BRANCH  24  25
ATOM     25  C   UNL d   1      14.563  15.719  -2.328  0.00  0.00     0.143 C 
BRANCH  25  26
ATOM     26  O   UNL d   1      15.022  16.352  -2.037  0.00  0.00    -0.324 OA
ATOM     27  C   UNL d   1      15.006  16.524  -1.252  0.00  0.00     0.182 C 
ENDBRANCH  25  26
ENDBRANCH  24  25
ENDBRANCH  23  24
ENDBRANCH  21  23
ENDBRANCH   1  21
TORSDOF 8
ENDMDL
