MODEL 1
REMARK VINA RESULT:      44.8      0.000      0.000
REMARK  5 active torsions:
REMARK  status: ('A' for Active; 'I' for Inactive)
REMARK       I    between atoms: C_8  and  N_1 
REMARK    1  A    between atoms: C_7  and  C_3 
REMARK    2  A    between atoms: S_4  and  N_9 
REMARK    3  A    between atoms: C_21  and  S_4 
REMARK    4  A    between atoms: C_11  and  C_5 
REMARK    5  A    between atoms: N_9  and  C_20 
ROOT
ATOM      1  N   UNL d   1     -54.989-100.724 -43.324  0.00  0.00    -0.194 N 
ATOM      2  N   UNL d   1     -54.983-100.719 -42.481  0.00  0.00    -0.163 NA
ATOM      3  C   UNL d   1     -54.899-101.482 -43.577  0.00  0.00     0.093 A 
ATOM      4  C   UNL d   1     -54.886-101.494 -42.232  0.00  0.00     0.103 A 
ATOM      5  C   UNL d   1     -54.832-101.983 -42.906  0.00  0.00     0.041 A 
ATOM      6  C   UNL d   1     -55.074-100.066 -43.805  0.00  0.00     0.281 C 
ATOM      7  O   UNL d   1     -55.070-100.149 -44.622  0.00  0.00    -0.265 OA
ATOM      8  C   UNL d   1     -55.163 -99.316 -43.469  0.00  0.00     0.068 C 
ENDROOT
BRANCH   4   9
ATOM      9  C   UNL d   1     -54.845-101.781 -41.463  0.00  0.00     0.019 A 
ATOM     10  C   UNL d   1     -54.777-101.248 -40.832  0.00  0.00     0.003 A 
ATOM     11  C   UNL d   1     -54.736-101.533 -40.068  0.00  0.00     0.020 A 
ATOM     12  C   UNL d   1     -54.762-102.344 -39.921  0.00  0.00     0.094 A 
ATOM     13  C   UNL d   1     -54.830-102.873 -40.549  0.00  0.00     0.020 A 
ATOM     14  C   UNL d   1     -54.872-102.592 -41.325  0.00  0.00     0.003 A 
BRANCH  12  15
ATOM     15  N   UNL d   1     -54.721-102.643 -39.145  0.00  0.00    -0.158 NA
BRANCH  15  16
ATOM     16  S   UNL d   1     -55.323-102.482 -38.619  0.00  0.00     0.286 S 
ATOM     17  O   UNL d   1     -55.930-102.316 -38.061  0.00  0.00    -0.198 OA
ATOM     18  O   UNL d   1     -55.870-102.461 -39.241  0.00  0.00    -0.198 OA
BRANCH  16  19
ATOM     19  C   UNL d   1     -54.774-102.502 -37.989  0.00  0.00     0.117 C 
ATOM     20  C   UNL d   1     -55.018-102.367 -37.218  0.00  0.00     0.014 C 
ENDBRANCH  16  19
ENDBRANCH  15  16
ENDBRANCH  12  15
ENDBRANCH   4   9
BRANCH   3  21
ATOM     21  C   UNL d   1     -54.875-101.724 -44.359  0.00  0.00     0.047 A 
ATOM     22  S   UNL d   1     -54.909-102.505 -44.631  0.00  0.00    -0.085 SA
ATOM     23  C   UNL d   1     -54.868-102.493 -45.453  0.00  0.00     0.035 A 
ATOM     24  C   UNL d   1     -54.809-101.708 -45.695  0.00  0.00     0.007 A 
ATOM     25  C   UNL d   1     -54.813-101.232 -45.021  0.00  0.00     0.009 A 
ENDBRANCH   3  21
TORSDOF 5
ENDMDL
MODEL 2
REMARK VINA RESULT:      47.3      0.977      1.681
REMARK  5 active torsions:
REMARK  status: ('A' for Active; 'I' for Inactive)
REMARK       I    between atoms: C_8  and  N_1 
REMARK    1  A    between atoms: C_7  and  C_3 
REMARK    2  A    between atoms: S_4  and  N_9 
REMARK    3  A    between atoms: C_21  and  S_4 
REMARK    4  A    between atoms: C_11  and  C_5 
REMARK    5  A    between atoms: N_9  and  C_20 
ROOT
ATOM      1  N   UNL d   1     -55.098-101.442 -43.836  0.00  0.00    -0.194 N 
ATOM      2  N   UNL d   1     -54.933-101.936 -43.173  0.00  0.00    -0.163 NA
ATOM      3  C   UNL d   1     -55.349-100.727 -43.566  0.00  0.00     0.093 A 
ATOM      4  C   UNL d   1     -55.091-101.500 -42.496  0.00  0.00     0.103 A 
ATOM      5  C   UNL d   1     -55.352-100.742 -42.726  0.00  0.00     0.041 A 
ATOM      6  C   UNL d   1     -55.016-101.655 -44.623  0.00  0.00     0.281 C 
ATOM      7  O   UNL d   1     -55.197-101.117 -45.216  0.00  0.00    -0.265 OA
ATOM      8  C   UNL d   1     -54.752-102.413 -44.821  0.00  0.00     0.068 C 
ENDROOT
BRANCH   4   9
ATOM      9  C   UNL d   1     -55.018-101.733 -41.712  0.00  0.00     0.019 A 
ATOM     10  C   UNL d   1     -55.053-102.539 -41.521  0.00  0.00     0.003 A 
ATOM     11  C   UNL d   1     -54.980-102.770 -40.741  0.00  0.00     0.020 A 
ATOM     12  C   UNL d   1     -54.873-102.210 -40.145  0.00  0.00     0.094 A 
ATOM     13  C   UNL d   1     -54.839-101.410 -40.337  0.00  0.00     0.020 A 
ATOM     14  C   UNL d   1     -54.912-101.167 -41.124  0.00  0.00     0.003 A 
BRANCH  12  15
ATOM     15  N   UNL d   1     -54.798-102.437 -39.348  0.00  0.00    -0.158 NA
BRANCH  15  16
ATOM     16  S   UNL d   1     -55.446-102.393 -38.855  0.00  0.00     0.286 S 
ATOM     17  O   UNL d   1     -56.103-102.343 -38.331  0.00  0.00    -0.198 OA
ATOM     18  O   UNL d   1     -55.938-102.662 -39.466  0.00  0.00    -0.198 OA
BRANCH  16  19
ATOM     19  C   UNL d   1     -54.954-102.123 -38.236  0.00  0.00     0.117 C 
ATOM     20  C   UNL d   1     -55.253-102.018 -37.480  0.00  0.00     0.014 C 
ENDBRANCH  16  19
ENDBRANCH  15  16
ENDBRANCH  12  15
ENDBRANCH   4   9
BRANCH   3  21
ATOM     21  C   UNL d   1     -55.565-100.091 -44.034  0.00  0.00     0.047 A 
ATOM     22  S   UNL d   1     -55.097 -99.431 -44.209  0.00  0.00    -0.085 SA
ATOM     23  C   UNL d   1     -55.531 -98.929 -44.697  0.00  0.00     0.035 A 
ATOM     24  C   UNL d   1     -56.268 -99.273 -44.826  0.00  0.00     0.007 A 
ATOM     25  C   UNL d   1     -56.291 -99.990 -44.418  0.00  0.00     0.009 A 
ENDBRANCH   3  21
TORSDOF 5
ENDMDL
