MODEL 1
REMARK VINA RESULT:      -8.6      0.000      0.000
REMARK  4 active torsions:
REMARK  status: ('A' for Active; 'I' for Inactive)
REMARK    1  A    between atoms: C_2  and  C_1 
REMARK       I    between atoms: N_7  and  C_2 
REMARK    2  A    between atoms: C_9  and  N_7 
REMARK    3  A    between atoms: O_16  and  C_10 
REMARK    4  A    between atoms: C_18  and  O_16 
ROOT
ATOM      1  C   UNL d   1      53.046  32.441  52.902  0.00  0.00     0.280 C 
ATOM      2  N   UNL d   1      52.282  32.396  52.597  0.00  0.00    -0.208 NA
ATOM      3  O   UNL d   1      53.575  31.821  52.764  0.00  0.00    -0.265 OA
ENDROOT
BRANCH   1   4
ATOM      4  C   UNL d   1      53.279  33.099  53.341  0.00  0.00     0.065 A 
ATOM      5  C   UNL d   1      53.621  33.081  54.092  0.00  0.00     0.011 A 
ATOM      6  C   UNL d   1      53.761  33.859  54.315  0.00  0.00     0.030 A 
ATOM      7  C   UNL d   1      53.823  32.461  54.599  0.00  0.00     0.001 A 
ATOM      8  C   UNL d   1      54.105  34.024  55.050  0.00  0.00     0.006 A 
ATOM      9  S   UNL d   1      53.507  34.354  53.706  0.00  0.00    -0.086 SA
ATOM     10  C   UNL d   1      54.302  33.418  55.545  0.00  0.00     0.001 A 
ATOM     11  C   UNL d   1      54.164  32.632  55.326  0.00  0.00     0.000 A 
ATOM     12  C   UNL d   1      53.208  33.873  53.104  0.00  0.00     0.040 A 
ENDBRANCH   1   4
BRANCH   2  13
ATOM     13  C   UNL d   1      51.746  33.019  52.734  0.00  0.00     0.085 A 
ATOM     14  C   UNL d   1      51.218  32.970  53.365  0.00  0.00     0.021 A 
ATOM     15  C   UNL d   1      50.687  33.585  53.502  0.00  0.00     0.026 A 
ATOM     16  C   UNL d   1      50.681  34.255  53.008  0.00  0.00     0.100 A 
ATOM     17  C   UNL d   1      51.212  34.295  52.379  0.00  0.00     0.026 A 
ATOM     18  C   UNL d   1      51.747  33.676  52.242  0.00  0.00     0.021 A 
BRANCH  16  19
ATOM     19  O   UNL d   1      50.151  34.881  53.135  0.00  0.00    -0.305 OA
BRANCH  19  20
ATOM     20  C   UNL d   1      49.394  34.858  52.810  0.00  0.00     0.123 C 
ATOM     21  C   UNL d   1      48.848  35.455  52.983  0.00  0.00     0.029 C 
ENDBRANCH  19  20
ENDBRANCH  16  19
ENDBRANCH   2  13
TORSDOF 4
ENDMDL
MODEL 2
REMARK VINA RESULT:      -8.6      1.456      3.822
REMARK  4 active torsions:
REMARK  status: ('A' for Active; 'I' for Inactive)
REMARK    1  A    between atoms: C_2  and  C_1 
REMARK       I    between atoms: N_7  and  C_2 
REMARK    2  A    between atoms: C_9  and  N_7 
REMARK    3  A    between atoms: O_16  and  C_10 
REMARK    4  A    between atoms: C_18  and  O_16 
ROOT
ATOM      1  C   UNL d   1      53.037  35.039  54.178  0.00  0.00     0.280 C 
ATOM      2  N   UNL d   1      53.521  34.563  54.645  0.00  0.00    -0.208 NA
ATOM      3  O   UNL d   1      52.888  35.818  54.411  0.00  0.00    -0.265 OA
ENDROOT
BRANCH   1   4
ATOM      4  C   UNL d   1      52.707  34.740  53.484  0.00  0.00     0.065 A 
ATOM      5  C   UNL d   1      51.900  34.637  53.339  0.00  0.00     0.011 A 
ATOM      6  C   UNL d   1      51.825  34.327  52.583  0.00  0.00     0.030 A 
ATOM      7  C   UNL d   1      51.227  34.786  53.796  0.00  0.00     0.001 A 
ATOM      8  C   UNL d   1      51.074  34.161  52.275  0.00  0.00     0.006 A 
ATOM      9  S   UNL d   1      52.580  34.238  52.262  0.00  0.00    -0.086 SA
ATOM     10  C   UNL d   1      50.418  34.306  52.721  0.00  0.00     0.001 A 
ATOM     11  C   UNL d   1      50.487  34.619  53.484  0.00  0.00     0.000 A 
ATOM     12  C   UNL d   1      53.123  34.497  52.829  0.00  0.00     0.040 A 
ENDBRANCH   1   4
BRANCH   2  13
ATOM     13  C   UNL d   1      53.674  33.777  54.412  0.00  0.00     0.085 A 
ATOM     14  C   UNL d   1      53.226  33.163  54.732  0.00  0.00     0.021 A 
ATOM     15  C   UNL d   1      53.377  32.386  54.503  0.00  0.00     0.026 A 
ATOM     16  C   UNL d   1      53.977  32.217  53.952  0.00  0.00     0.100 A 
ATOM     17  C   UNL d   1      54.420  32.837  53.638  0.00  0.00     0.026 A 
ATOM     18  C   UNL d   1      54.268  33.620  53.868  0.00  0.00     0.021 A 
BRANCH  16  19
ATOM     19  O   UNL d   1      54.139  31.439  53.713  0.00  0.00    -0.305 OA
BRANCH  19  20
ATOM     20  C   UNL d   1      53.525  30.894  53.628  0.00  0.00     0.123 C 
ATOM     21  C   UNL d   1      53.685  30.127  53.361  0.00  0.00     0.029 C 
ENDBRANCH  19  20
ENDBRANCH  16  19
ENDBRANCH   2  13
TORSDOF 4
ENDMDL
MODEL 3
REMARK VINA RESULT:      -8.5      1.934      3.514
REMARK  4 active torsions:
REMARK  status: ('A' for Active; 'I' for Inactive)
REMARK    1  A    between atoms: C_2  and  C_1 
REMARK       I    between atoms: N_7  and  C_2 
REMARK    2  A    between atoms: C_9  and  N_7 
REMARK    3  A    between atoms: O_16  and  C_10 
REMARK    4  A    between atoms: C_18  and  O_16 
ROOT
ATOM      1  C   UNL d   1      52.740  32.909  52.808  0.00  0.00     0.280 C 
ATOM      2  N   UNL d   1      52.284  32.245  52.638  0.00  0.00    -0.208 NA
ATOM      3  O   UNL d   1      52.509  33.646  52.515  0.00  0.00    -0.265 OA
ENDROOT
BRANCH   1   4
ATOM      4  C   UNL d   1      53.421  32.837  53.267  0.00  0.00     0.065 A 
ATOM      5  C   UNL d   1      53.567  33.230  53.979  0.00  0.00     0.011 A 
ATOM      6  C   UNL d   1      54.309  32.993  54.241  0.00  0.00     0.030 A 
ATOM      7  C   UNL d   1      53.123  33.769  54.421  0.00  0.00     0.001 A 
ATOM      8  C   UNL d   1      54.614  33.295  54.950  0.00  0.00     0.006 A 
ATOM      9  S   UNL d   1      54.619  32.458  53.696  0.00  0.00    -0.086 SA
ATOM     10  C   UNL d   1      54.180  33.822  55.380  0.00  0.00     0.001 A 
ATOM     11  C   UNL d   1      53.432  34.064  55.121  0.00  0.00     0.000 A 
ATOM     12  C   UNL d   1      54.061  32.366  53.093  0.00  0.00     0.040 A 
ENDBRANCH   1   4
BRANCH   2  13
ATOM     13  C   UNL d   1      52.514  31.499  52.932  0.00  0.00     0.085 A 
ATOM     14  C   UNL d   1      52.170  31.210  53.623  0.00  0.00     0.021 A 
ATOM     15  C   UNL d   1      52.396  30.474  53.915  0.00  0.00     0.026 A 
ATOM     16  C   UNL d   1      52.970  30.021  53.517  0.00  0.00     0.100 A 
ATOM     17  C   UNL d   1      53.309  30.318  52.827  0.00  0.00     0.026 A 
ATOM     18  C   UNL d   1      53.081  31.059  52.533  0.00  0.00     0.021 A 
BRANCH  16  19
ATOM     19  O   UNL d   1      53.207  29.278  53.800  0.00  0.00    -0.305 OA
BRANCH  19  20
ATOM     20  C   UNL d   1      53.238  29.132  54.611  0.00  0.00     0.123 C 
ATOM     21  C   UNL d   1      53.567  28.428  54.895  0.00  0.00     0.029 C 
ENDBRANCH  19  20
ENDBRANCH  16  19
ENDBRANCH   2  13
TORSDOF 4
ENDMDL
MODEL 4
REMARK VINA RESULT:      -8.0      1.549      2.149
REMARK  4 active torsions:
REMARK  status: ('A' for Active; 'I' for Inactive)
REMARK    1  A    between atoms: C_2  and  C_1 
REMARK       I    between atoms: N_7  and  C_2 
REMARK    2  A    between atoms: C_9  and  N_7 
REMARK    3  A    between atoms: O_16  and  C_10 
REMARK    4  A    between atoms: C_18  and  O_16 
ROOT
ATOM      1  C   UNL d   1      53.985  33.176  54.825  0.00  0.00     0.280 C 
ATOM      2  N   UNL d   1      53.485  33.827  54.892  0.00  0.00    -0.208 NA
ATOM      3  O   UNL d   1      54.521  33.011  55.432  0.00  0.00    -0.265 OA
ENDROOT
BRANCH   1   4
ATOM      4  C   UNL d   1      53.950  32.693  54.157  0.00  0.00     0.065 A 
ATOM      5  C   UNL d   1      53.747  31.893  54.150  0.00  0.00     0.011 A 
ATOM      6  C   UNL d   1      53.784  31.638  53.371  0.00  0.00     0.030 A 
ATOM      7  C   UNL d   1      53.534  31.365  54.750  0.00  0.00     0.001 A 
ATOM      8  C   UNL d   1      53.608  30.851  53.183  0.00  0.00     0.006 A 
ATOM      9  S   UNL d   1      54.008  32.276  52.898  0.00  0.00    -0.086 SA
ATOM     10  C   UNL d   1      53.401  30.336  53.768  0.00  0.00     0.001 A 
ATOM     11  C   UNL d   1      53.362  30.587  54.556  0.00  0.00     0.000 A 
ATOM     12  C   UNL d   1      54.109  32.929  53.396  0.00  0.00     0.040 A 
ENDBRANCH   1   4
BRANCH   2  13
ATOM     13  C   UNL d   1      52.942  33.995  54.282  0.00  0.00     0.085 A 
ATOM     14  C   UNL d   1      52.183  33.678  54.313  0.00  0.00     0.021 A 
ATOM     15  C   UNL d   1      51.645  33.843  53.711  0.00  0.00     0.026 A 
ATOM     16  C   UNL d   1      51.865  34.329  53.072  0.00  0.00     0.100 A 
ATOM     17  C   UNL d   1      52.627  34.642  53.049  0.00  0.00     0.026 A 
ATOM     18  C   UNL d   1      53.168  34.475  53.656  0.00  0.00     0.021 A 
BRANCH  16  19
ATOM     19  O   UNL d   1      51.334  34.504  52.458  0.00  0.00    -0.305 OA
BRANCH  19  20
ATOM     20  C   UNL d   1      50.547  34.263  52.508  0.00  0.00     0.123 C 
ATOM     21  C   UNL d   1      50.020  34.437  51.895  0.00  0.00     0.029 C 
ENDBRANCH  19  20
ENDBRANCH  16  19
ENDBRANCH   2  13
TORSDOF 4
ENDMDL
