MODEL 1
REMARK VINA RESULT:      -9.1      0.000      0.000
REMARK  3 active torsions:
REMARK  status: ('A' for Active; 'I' for Inactive)
REMARK    1  A    between atoms: C_5  and  N_1 
REMARK    2  A    between atoms: C_11  and  C_3 
REMARK    3  A    between atoms: C_7  and  C_5 
ROOT
ATOM      1  N   UNL d   1      53.152  32.667  53.091  0.00  0.00    -0.286 N 
ATOM      2  N   UNL d   1      51.959  32.038  53.031  0.00  0.00    -0.224 NA
ATOM      3  C   UNL d   1      52.784  31.925  53.094  0.00  0.00     0.191 A 
ATOM      4  C   UNL d   1      52.559  33.251  53.027  0.00  0.00     0.083 A 
ATOM      5  C   UNL d   1      51.828  32.859  52.990  0.00  0.00     0.099 A 
ATOM      6  C   UNL d   1      52.582  34.084  52.996  0.00  0.00     0.019 A 
ATOM      7  C   UNL d   1      51.117  33.298  52.923  0.00  0.00     0.021 A 
ATOM      8  C   UNL d   1      51.883  34.518  52.930  0.00  0.00     0.002 A 
ATOM      9  C   UNL d   1      51.153  34.125  52.893  0.00  0.00     0.002 A 
ENDROOT
BRANCH   1  10
ATOM     10  C   UNL d   1      53.974  32.642  53.150  0.00  0.00     0.082 C 
BRANCH  10  11
ATOM     11  C   UNL d   1      54.347  32.919  53.826  0.00  0.00     0.018 A 
ATOM     12  C   UNL d   1      55.067  33.303  53.770  0.00  0.00     0.001 A 
ATOM     13  C   UNL d   1      55.442  33.581  54.447  0.00  0.00     0.000 A 
ATOM     14  C   UNL d   1      55.414  33.408  53.029  0.00  0.00     0.000 C 
ATOM     15  C   UNL d   1      55.092  33.474  55.186  0.00  0.00     0.000 A 
ATOM     16  C   UNL d   1      54.366  33.087  55.244  0.00  0.00     0.000 A 
ATOM     17  C   UNL d   1      53.994  32.810  54.564  0.00  0.00     0.002 A 
ATOM     18  C   UNL d   1      54.013  32.978  55.983  0.00  0.00     0.000 C 
ENDBRANCH  10  11
ENDBRANCH   1  10
BRANCH   3  19
ATOM     19  C   UNL d   1      52.753  31.107  53.123  0.00  0.00     0.271 C 
ATOM     20  O   UNL d   1      52.768  30.667  52.426  0.00  0.00    -0.280 OA
ENDBRANCH   3  19
TORSDOF 3
ENDMDL
MODEL 2
REMARK VINA RESULT:      -8.6      0.994      2.484
REMARK  3 active torsions:
REMARK  status: ('A' for Active; 'I' for Inactive)
REMARK    1  A    between atoms: C_5  and  N_1 
REMARK    2  A    between atoms: C_11  and  C_3 
REMARK    3  A    between atoms: C_7  and  C_5 
ROOT
ATOM      1  N   UNL d   1      53.029  32.252  53.737  0.00  0.00    -0.286 N 
ATOM      2  N   UNL d   1      52.430  31.893  52.582  0.00  0.00    -0.224 NA
ATOM      3  C   UNL d   1      52.602  32.535  53.086  0.00  0.00     0.191 A 
ATOM      4  C   UNL d   1      53.127  31.428  53.644  0.00  0.00     0.083 A 
ATOM      5  C   UNL d   1      52.758  31.213  52.932  0.00  0.00     0.099 A 
ATOM      6  C   UNL d   1      53.502  30.844  54.107  0.00  0.00     0.019 A 
ATOM      7  C   UNL d   1      52.760  30.414  52.681  0.00  0.00     0.021 A 
ATOM      8  C   UNL d   1      53.505  30.057  53.860  0.00  0.00     0.002 A 
ATOM      9  C   UNL d   1      53.136  29.843  53.149  0.00  0.00     0.002 A 
ENDROOT
BRANCH   1  10
ATOM     10  C   UNL d   1      53.238  32.829  54.287  0.00  0.00     0.082 C 
BRANCH  10  11
ATOM     11  C   UNL d   1      54.015  33.087  54.339  0.00  0.00     0.018 A 
ATOM     12  C   UNL d   1      54.304  33.387  55.043  0.00  0.00     0.001 A 
ATOM     13  C   UNL d   1      55.082  33.645  55.095  0.00  0.00     0.000 A 
ATOM     14  C   UNL d   1      53.806  33.428  55.699  0.00  0.00     0.000 C 
ATOM     15  C   UNL d   1      55.577  33.602  54.436  0.00  0.00     0.000 A 
ATOM     16  C   UNL d   1      55.287  33.299  53.726  0.00  0.00     0.000 A 
ATOM     17  C   UNL d   1      54.507  33.042  53.678  0.00  0.00     0.002 A 
ATOM     18  C   UNL d   1      55.780  33.255  53.064  0.00  0.00     0.000 C 
ENDBRANCH  10  11
ENDBRANCH   1  10
BRANCH   3  19
ATOM     19  C   UNL d   1      52.232  33.104  52.627  0.00  0.00     0.271 C 
ATOM     20  O   UNL d   1      51.452  33.321  52.783  0.00  0.00    -0.280 OA
ENDBRANCH   3  19
TORSDOF 3
ENDMDL
MODEL 3
REMARK VINA RESULT:      -8.4      1.364      3.188
REMARK  3 active torsions:
REMARK  status: ('A' for Active; 'I' for Inactive)
REMARK    1  A    between atoms: C_5  and  N_1 
REMARK    2  A    between atoms: C_11  and  C_3 
REMARK    3  A    between atoms: C_7  and  C_5 
ROOT
ATOM      1  N   UNL d   1      53.447  32.581  53.627  0.00  0.00    -0.286 N 
ATOM      2  N   UNL d   1      53.763  31.863  54.726  0.00  0.00    -0.224 NA
ATOM      3  C   UNL d   1      53.700  32.634  54.414  0.00  0.00     0.191 A 
ATOM      4  C   UNL d   1      53.350  31.773  53.441  0.00  0.00     0.083 A 
ATOM      5  C   UNL d   1      53.546  31.336  54.119  0.00  0.00     0.099 A 
ATOM      6  C   UNL d   1      53.111  31.374  52.748  0.00  0.00     0.019 A 
ATOM      7  C   UNL d   1      53.504  30.500  54.108  0.00  0.00     0.021 A 
ATOM      8  C   UNL d   1      53.070  30.550  52.736  0.00  0.00     0.002 A 
ATOM      9  C   UNL d   1      53.265  30.114  53.414  0.00  0.00     0.002 A 
ENDROOT
BRANCH   1  10
ATOM     10  C   UNL d   1      53.359  33.306  53.245  0.00  0.00     0.082 C 
BRANCH  10  11
ATOM     11  C   UNL d   1      52.621  33.659  53.196  0.00  0.00     0.018 A 
ATOM     12  C   UNL d   1      52.556  34.459  53.039  0.00  0.00     0.001 A 
ATOM     13  C   UNL d   1      51.817  34.814  52.989  0.00  0.00     0.000 A 
ATOM     14  C   UNL d   1      53.241  34.907  52.930  0.00  0.00     0.000 C 
ATOM     15  C   UNL d   1      51.134  34.363  53.099  0.00  0.00     0.000 A 
ATOM     16  C   UNL d   1      51.198  33.556  53.258  0.00  0.00     0.000 A 
ATOM     17  C   UNL d   1      51.941  33.205  53.307  0.00  0.00     0.002 A 
ATOM     18  C   UNL d   1      50.517  33.102  53.369  0.00  0.00     0.000 C 
ENDBRANCH  10  11
ENDBRANCH   1  10
BRANCH   3  19
ATOM     19  C   UNL d   1      53.935  33.020  55.098  0.00  0.00     0.271 C 
ATOM     20  O   UNL d   1      54.733  33.041  55.308  0.00  0.00    -0.280 OA
ENDBRANCH   3  19
TORSDOF 3
ENDMDL
MODEL 4
REMARK VINA RESULT:      -8.3      0.933      3.029
REMARK  3 active torsions:
REMARK  status: ('A' for Active; 'I' for Inactive)
REMARK    1  A    between atoms: C_5  and  N_1 
REMARK    2  A    between atoms: C_11  and  C_3 
REMARK    3  A    between atoms: C_7  and  C_5 
ROOT
ATOM      1  N   UNL d   1      53.273  32.817  53.383  0.00  0.00    -0.286 N 
ATOM      2  N   UNL d   1      53.611  31.755  54.145  0.00  0.00    -0.224 NA
ATOM      3  C   UNL d   1      53.244  31.991  53.433  0.00  0.00     0.191 A 
ATOM      4  C   UNL d   1      53.659  33.104  54.065  0.00  0.00     0.083 A 
ATOM      5  C   UNL d   1      53.865  32.448  54.530  0.00  0.00     0.099 A 
ATOM      6  C   UNL d   1      53.853  33.872  54.328  0.00  0.00     0.019 A 
ATOM      7  C   UNL d   1      54.264  32.555  55.258  0.00  0.00     0.021 A 
ATOM      8  C   UNL d   1      54.246  33.980  55.045  0.00  0.00     0.002 A 
ATOM      9  C   UNL d   1      54.451  33.323  55.509  0.00  0.00     0.002 A 
ENDROOT
BRANCH   1  10
ATOM     10  C   UNL d   1      52.928  33.132  52.704  0.00  0.00     0.082 C 
BRANCH  10  11
ATOM     11  C   UNL d   1      52.198  33.502  52.745  0.00  0.00     0.018 A 
ATOM     12  C   UNL d   1      52.070  34.206  52.349  0.00  0.00     0.001 A 
ATOM     13  C   UNL d   1      51.339  34.578  52.390  0.00  0.00     0.000 A 
ATOM     14  C   UNL d   1      52.683  34.539  51.907  0.00  0.00     0.000 C 
ATOM     15  C   UNL d   1      50.729  34.243  52.833  0.00  0.00     0.000 A 
ATOM     16  C   UNL d   1      50.857  33.533  53.234  0.00  0.00     0.000 A 
ATOM     17  C   UNL d   1      51.591  33.164  53.189  0.00  0.00     0.002 A 
ATOM     18  C   UNL d   1      50.248  33.194  53.678  0.00  0.00     0.000 C 
ENDBRANCH  10  11
ENDBRANCH   1  10
BRANCH   3  19
ATOM     19  C   UNL d   1      53.057  31.234  53.181  0.00  0.00     0.271 C 
ATOM     20  O   UNL d   1      53.648  30.662  53.113  0.00  0.00    -0.280 OA
ENDBRANCH   3  19
TORSDOF 3
ENDMDL
MODEL 5
REMARK VINA RESULT:      -8.2      1.898      3.802
REMARK  3 active torsions:
REMARK  status: ('A' for Active; 'I' for Inactive)
REMARK    1  A    between atoms: C_5  and  N_1 
REMARK    2  A    between atoms: C_11  and  C_3 
REMARK    3  A    between atoms: C_7  and  C_5 
ROOT
ATOM      1  N   UNL d   1      53.069  34.470  53.770  0.00  0.00    -0.286 N 
ATOM      2  N   UNL d   1      53.432  34.660  55.056  0.00  0.00    -0.224 NA
ATOM      3  C   UNL d   1      53.044  35.005  54.402  0.00  0.00     0.191 A 
ATOM      4  C   UNL d   1      53.474  33.786  54.024  0.00  0.00     0.083 A 
ATOM      5  C   UNL d   1      53.695  33.908  54.815  0.00  0.00     0.099 A 
ATOM      6  C   UNL d   1      53.672  33.069  53.647  0.00  0.00     0.019 A 
ATOM      7  C   UNL d   1      54.114  33.315  55.232  0.00  0.00     0.021 A 
ATOM      8  C   UNL d   1      54.085  32.484  54.056  0.00  0.00     0.002 A 
ATOM      9  C   UNL d   1      54.305  32.606  54.847  0.00  0.00     0.002 A 
ENDROOT
BRANCH   1  10
ATOM     10  C   UNL d   1      52.705  34.738  53.080  0.00  0.00     0.082 C 
BRANCH  10  11
ATOM     11  C   UNL d   1      51.980  34.430  52.851  0.00  0.00     0.018 A 
ATOM     12  C   UNL d   1      51.806  34.334  52.058  0.00  0.00     0.001 A 
ATOM     13  C   UNL d   1      51.080  34.025  51.828  0.00  0.00     0.000 A 
ATOM     14  C   UNL d   1      52.366  34.549  51.491  0.00  0.00     0.000 C 
ATOM     15  C   UNL d   1      50.523  33.810  52.397  0.00  0.00     0.000 A 
ATOM     16  C   UNL d   1      50.697  33.906  53.197  0.00  0.00     0.000 A 
ATOM     17  C   UNL d   1      51.426  34.216  53.423  0.00  0.00     0.002 A 
ATOM     18  C   UNL d   1      50.142  33.693  53.770  0.00  0.00     0.000 C 
ENDBRANCH  10  11
ENDBRANCH   1  10
BRANCH   3  19
ATOM     19  C   UNL d   1      52.853  35.706  54.779  0.00  0.00     0.271 C 
ATOM     20  O   UNL d   1      53.289  36.390  54.628  0.00  0.00    -0.280 OA
ENDBRANCH   3  19
TORSDOF 3
ENDMDL
MODEL 6
REMARK VINA RESULT:      -7.5      1.636      2.390
REMARK  3 active torsions:
REMARK  status: ('A' for Active; 'I' for Inactive)
REMARK    1  A    between atoms: C_5  and  N_1 
REMARK    2  A    between atoms: C_11  and  C_3 
REMARK    3  A    between atoms: C_7  and  C_5 
ROOT
ATOM      1  N   UNL d   1      52.763  33.884  53.323  0.00  0.00    -0.286 N 
ATOM      2  N   UNL d   1      51.962  34.576  54.161  0.00  0.00    -0.224 NA
ATOM      3  C   UNL d   1      52.713  34.220  54.078  0.00  0.00     0.191 A 
ATOM      4  C   UNL d   1      52.042  34.027  52.927  0.00  0.00     0.083 A 
ATOM      5  C   UNL d   1      51.553  34.452  53.446  0.00  0.00     0.099 A 
ATOM      6  C   UNL d   1      51.761  33.830  52.166  0.00  0.00     0.019 A 
ATOM      7  C   UNL d   1      50.784  34.682  53.209  0.00  0.00     0.021 A 
ATOM      8  C   UNL d   1      51.003  34.055  51.931  0.00  0.00     0.002 A 
ATOM      9  C   UNL d   1      50.516  34.480  52.451  0.00  0.00     0.002 A 
ENDROOT
BRANCH   1  10
ATOM     10  C   UNL d   1      53.479  33.510  53.160  0.00  0.00     0.082 C 
BRANCH  10  11
ATOM     11  C   UNL d   1      53.558  32.703  53.277  0.00  0.00     0.018 A 
ATOM     12  C   UNL d   1      54.285  32.384  53.475  0.00  0.00     0.001 A 
ATOM     13  C   UNL d   1      54.366  31.575  53.592  0.00  0.00     0.000 A 
ATOM     14  C   UNL d   1      54.937  32.884  53.556  0.00  0.00     0.000 C 
ATOM     15  C   UNL d   1      53.711  31.079  53.510  0.00  0.00     0.000 A 
ATOM     16  C   UNL d   1      52.978  31.398  53.310  0.00  0.00     0.000 A 
ATOM     17  C   UNL d   1      52.902  32.210  53.194  0.00  0.00     0.002 A 
ATOM     18  C   UNL d   1      52.321  30.905  53.227  0.00  0.00     0.000 C 
ENDBRANCH  10  11
ENDBRANCH   1  10
BRANCH   3  19
ATOM     19  C   UNL d   1      52.981  34.418  54.826  0.00  0.00     0.271 C 
ATOM     20  O   UNL d   1      53.158  35.202  55.010  0.00  0.00    -0.280 OA
ENDBRANCH   3  19
TORSDOF 3
ENDMDL
MODEL 7
REMARK VINA RESULT:      -7.2      1.345      2.973
REMARK  3 active torsions:
REMARK  status: ('A' for Active; 'I' for Inactive)
REMARK    1  A    between atoms: C_5  and  N_1 
REMARK    2  A    between atoms: C_11  and  C_3 
REMARK    3  A    between atoms: C_7  and  C_5 
ROOT
ATOM      1  N   UNL d   1      53.260  32.483  53.552  0.00  0.00    -0.286 N 
ATOM      2  N   UNL d   1      52.562  33.487  54.123  0.00  0.00    -0.224 NA
ATOM      3  C   UNL d   1      52.512  32.834  53.606  0.00  0.00     0.191 A 
ATOM      4  C   UNL d   1      53.784  32.915  54.037  0.00  0.00     0.083 A 
ATOM      5  C   UNL d   1      53.350  33.531  54.385  0.00  0.00     0.099 A 
ATOM      6  C   UNL d   1      54.597  32.834  54.210  0.00  0.00     0.019 A 
ATOM      7  C   UNL d   1      53.725  34.068  54.908  0.00  0.00     0.021 A 
ATOM      8  C   UNL d   1      54.967  33.363  54.724  0.00  0.00     0.002 A 
ATOM      9  C   UNL d   1      54.532  33.978  55.072  0.00  0.00     0.002 A 
ENDROOT
BRANCH   1  10
ATOM     10  C   UNL d   1      53.296  31.825  53.056  0.00  0.00     0.082 C 
BRANCH  10  11
ATOM     11  C   UNL d   1      53.232  31.070  53.368  0.00  0.00     0.018 A 
ATOM     12  C   UNL d   1      53.096  30.431  52.876  0.00  0.00     0.001 A 
ATOM     13  C   UNL d   1      53.032  29.674  53.188  0.00  0.00     0.000 A 
ATOM     14  C   UNL d   1      53.024  30.554  52.063  0.00  0.00     0.000 C 
ATOM     15  C   UNL d   1      53.104  29.554  54.001  0.00  0.00     0.000 A 
ATOM     16  C   UNL d   1      53.241  30.197  54.499  0.00  0.00     0.000 A 
ATOM     17  C   UNL d   1      53.305  30.954  54.182  0.00  0.00     0.002 A 
ATOM     18  C   UNL d   1      53.315  30.081  55.313  0.00  0.00     0.000 C 
ENDBRANCH  10  11
ENDBRANCH   1  10
BRANCH   3  19
ATOM     19  C   UNL d   1      51.714  32.919  53.440  0.00  0.00     0.271 C 
ATOM     20  O   UNL d   1      51.447  33.574  53.015  0.00  0.00    -0.280 OA
ENDBRANCH   3  19
TORSDOF 3
ENDMDL
