MODEL 1
REMARK VINA RESULT:       1.7      0.000      0.000
REMARK  6 active torsions:
REMARK  status: ('A' for Active; 'I' for Inactive)
REMARK    1  A    between atoms: S_10  and  C_3 
REMARK    2  A    between atoms: C_14  and  C_7 
REMARK    3  A    between atoms: C_18  and  S_10 
REMARK       I    between atoms: N_11  and  C_12 
REMARK    4  A    between atoms: C_13  and  N_11 
REMARK    5  A    between atoms: C_12  and  C_18 
REMARK    6  A    between atoms: O_20  and  C_16 
ROOT
ATOM      1  N   UNL d   1     -41.573-121.966 -52.658  0.00  0.00    -0.186 N 
ATOM      2  N   UNL d   1     -41.857-122.372 -53.308  0.00  0.00    -0.162 NA
ATOM      3  C   UNL d   1     -41.383-122.216 -51.891  0.00  0.00     0.217 A 
ATOM      4  C   UNL d   1     -41.425-121.157 -52.698  0.00  0.00     0.187 A 
ATOM      5  N   UNL d   1     -41.123-121.561 -51.475  0.00  0.00    -0.120 NA
ATOM      6  N   UNL d   1     -41.148-120.903 -51.973  0.00  0.00    -0.127 NA
ATOM      7  C   UNL d   1     -41.997-121.963 -54.014  0.00  0.00     0.103 A 
ATOM      8  C   UNL d   1     -41.566-120.748 -53.407  0.00  0.00     0.042 A 
ATOM      9  C   UNL d   1     -41.849-121.149 -54.059  0.00  0.00     0.024 A 
ENDROOT
BRANCH   3  10
ATOM     10  S   UNL d   1     -41.438-122.980 -51.584  0.00  0.00    -0.041 SA
BRANCH  10  11
ATOM     11  C   UNL d   1     -42.023-123.169 -51.049  0.00  0.00     0.101 C 
BRANCH  11  12
ATOM     12  C   UNL d   1     -41.828-123.378 -50.284  0.00  0.00     0.286 C 
ATOM     13  N   UNL d   1     -42.324-123.188 -49.650  0.00  0.00    -0.206 NA
ATOM     14  O   UNL d   1     -41.127-123.785 -50.131  0.00  0.00    -0.265 OA
BRANCH  13  15
ATOM     15  C   UNL d   1     -42.126-123.400 -48.876  0.00  0.00     0.107 A 
ATOM     16  C   UNL d   1     -42.712-123.603 -48.336  0.00  0.00     0.112 A 
ATOM     17  C   UNL d   1     -42.505-123.815 -47.561  0.00  0.00     0.026 A 
ATOM     18  C   UNL d   1     -41.716-123.817 -47.343  0.00  0.00     0.002 A 
ATOM     19  C   UNL d   1     -41.123-123.616 -47.872  0.00  0.00     0.002 A 
ATOM     20  C   UNL d   1     -41.330-123.405 -48.647  0.00  0.00     0.021 A 
BRANCH  16  21
ATOM     21  O   UNL d   1     -43.511-123.596 -48.574  0.00  0.00    -0.327 OA
ATOM     22  C   UNL d   1     -44.110-123.724 -48.013  0.00  0.00     0.181 C 
ENDBRANCH  16  21
ENDBRANCH  13  15
ENDBRANCH  11  12
ENDBRANCH  10  11
ENDBRANCH   3  10
BRANCH   7  23
ATOM     23  C   UNL d   1     -42.284-122.380 -54.669  0.00  0.00     0.039 A 
ATOM     24  C   UNL d   1     -42.649-121.995 -55.280  0.00  0.00     0.101 A 
ATOM     25  N   UNL d   1     -42.929-122.409 -55.921  0.00  0.00    -0.242 NA
ATOM     26  C   UNL d   1     -42.844-123.231 -55.955  0.00  0.00     0.099 A 
ATOM     27  C   UNL d   1     -42.473-123.623 -55.334  0.00  0.00     0.021 A 
ATOM     28  C   UNL d   1     -42.189-123.199 -54.683  0.00  0.00     0.005 A 
ENDBRANCH   7  23
TORSDOF 6
ENDMDL
