MODEL 1
REMARK VINA RESULT:      17.6      0.000      0.000
REMARK  1 active torsions:
REMARK  status: ('A' for Active; 'I' for Inactive)
REMARK    1  A    between atoms: C_6  and  C_1 
ROOT
ATOM      1  C   UNL d   1     -57.436 -98.827 -44.289  0.00  0.00     0.162 A 
ATOM      2  N   UNL d   1     -57.059 -98.756 -45.008  0.00  0.00    -0.225 NA
ATOM      3  N   UNL d   1     -56.864 -98.927 -43.706  0.00  0.00    -0.225 NA
ATOM      4  C   UNL d   1     -56.240 -98.812 -44.871  0.00  0.00     0.101 A 
ATOM      5  C   UNL d   1     -56.120 -98.918 -44.068  0.00  0.00     0.101 A 
ATOM      6  C   UNL d   1     -55.603 -98.778 -45.392  0.00  0.00     0.021 A 
ATOM      7  C   UNL d   1     -55.360 -98.991 -43.767  0.00  0.00     0.021 A 
ATOM      8  C   UNL d   1     -54.718 -98.958 -44.282  0.00  0.00     0.002 A 
ATOM      9  C   UNL d   1     -54.840 -98.851 -45.100  0.00  0.00     0.002 A 
ENDROOT
BRANCH   1  10
ATOM     10  C   UNL d   1     -58.254 -98.803 -44.164  0.00  0.00     0.037 A 
ATOM     11  C   UNL d   1     -58.564 -98.791 -43.396  0.00  0.00     0.024 A 
ATOM     12  C   UNL d   1     -59.377 -98.767 -43.272  0.00  0.00     0.103 A 
ATOM     13  N   UNL d   1     -59.674 -98.755 -42.491  0.00  0.00    -0.148 N 
ATOM     14  C   UNL d   1     -59.891 -98.755 -43.908  0.00  0.00     0.021 A 
ATOM     15  C   UNL d   1     -59.594 -98.767 -44.689  0.00  0.00     0.002 A 
ATOM     16  C   UNL d   1     -58.766 -98.791 -44.816  0.00  0.00     0.003 A 
ENDBRANCH   1  10
TORSDOF 1
ENDMDL
MODEL 2
REMARK VINA RESULT:      19.3      0.705      3.641
REMARK  1 active torsions:
REMARK  status: ('A' for Active; 'I' for Inactive)
REMARK    1  A    between atoms: C_6  and  C_1 
ROOT
ATOM      1  C   UNL d   1     -57.236 -98.783 -44.329  0.00  0.00     0.162 A 
ATOM      2  N   UNL d   1     -57.699 -98.758 -43.659  0.00  0.00    -0.225 NA
ATOM      3  N   UNL d   1     -57.733 -98.810 -44.985  0.00  0.00    -0.225 NA
ATOM      4  C   UNL d   1     -58.495 -98.770 -43.900  0.00  0.00     0.101 A 
ATOM      5  C   UNL d   1     -58.517 -98.802 -44.718  0.00  0.00     0.101 A 
ATOM      6  C   UNL d   1     -59.191 -98.755 -43.460  0.00  0.00     0.021 A 
ATOM      7  C   UNL d   1     -59.234 -98.820 -45.116  0.00  0.00     0.021 A 
ATOM      8  C   UNL d   1     -59.935 -98.805 -44.682  0.00  0.00     0.002 A 
ATOM      9  C   UNL d   1     -59.914 -98.773 -43.849  0.00  0.00     0.002 A 
ENDROOT
BRANCH   1  10
ATOM     10  C   UNL d   1     -56.408 -98.781 -44.351  0.00  0.00     0.037 A 
ATOM     11  C   UNL d   1     -55.968 -98.785 -43.650  0.00  0.00     0.024 A 
ATOM     12  C   UNL d   1     -55.145 -98.783 -43.671  0.00  0.00     0.103 A 
ATOM     13  N   UNL d   1     -54.715 -98.787 -42.955  0.00  0.00    -0.148 N 
ATOM     14  C   UNL d   1     -54.752 -98.777 -44.389  0.00  0.00     0.021 A 
ATOM     15  C   UNL d   1     -55.182 -98.774 -45.105  0.00  0.00     0.002 A 
ATOM     16  C   UNL d   1     -56.020 -98.775 -45.083  0.00  0.00     0.003 A 
ENDBRANCH   1  10
TORSDOF 1
ENDMDL
