MODEL 1
REMARK VINA RESULT:       5.4      0.000      0.000
REMARK  6 active torsions:
REMARK  status: ('A' for Active; 'I' for Inactive)
REMARK    1  A    between atoms: N_4  and  C_1 
REMARK       I    between atoms: C_7  and  N_4 
REMARK    2  A    between atoms: C_8  and  C_7 
REMARK    3  A    between atoms: C_11  and  C_8 
REMARK    4  A    between atoms: C_10  and  O_17 
REMARK    5  A    between atoms: O_17  and  C_11 
REMARK    6  A    between atoms: O_18  and  C_12 
ROOT
ATOM      1  C   UNL d   1      45.865 -16.353  44.951  0.00  0.00     0.089 C 
ENDROOT
BRANCH   1   2
ATOM      2  C   UNL d   1      45.620 -15.574  44.820  0.00  0.00     0.283 C 
ATOM      3  N   UNL d   1      46.167 -15.018  44.550  0.00  0.00    -0.186 NA
ATOM      4  O   UNL d   1      44.844 -15.356  44.955  0.00  0.00    -0.265 OA
BRANCH   3   5
ATOM      5  C   UNL d   1      45.930 -14.247  44.419  0.00  0.00     0.194 A 
ATOM      6  N   UNL d   1      46.008 -13.614  44.949  0.00  0.00    -0.107 NA
ATOM      7  O   UNL d   1      45.697 -12.947  44.587  0.00  0.00    -0.210 OA
ATOM      8  C   UNL d   1      45.430 -13.154  43.848  0.00  0.00     0.128 A 
ATOM      9  C   UNL d   1      45.573 -13.965  43.736  0.00  0.00     0.068 A 
ATOM     10  C   UNL d   1      45.079 -12.656  43.297  0.00  0.00     0.029 C 
ENDBRANCH   3   5
ENDBRANCH   1   2
BRANCH   1  11
ATOM     11  C   UNL d   1      45.891 -16.878  44.322  0.00  0.00     0.128 C 
BRANCH  11  12
ATOM     12  O   UNL d   1      46.220 -17.570  44.634  0.00  0.00    -0.305 OA
BRANCH  12  13
ATOM     13  C   UNL d   1      46.327 -18.229  44.155  0.00  0.00     0.100 A 
ATOM     14  C   UNL d   1      46.296 -18.988  44.482  0.00  0.00     0.027 A 
ATOM     15  C   UNL d   1      46.402 -19.653  44.007  0.00  0.00     0.026 A 
ATOM     16  C   UNL d   1      46.539 -19.550  43.200  0.00  0.00     0.094 A 
ATOM     17  C   UNL d   1      46.569 -18.791  42.873  0.00  0.00     0.026 A 
ATOM     18  C   UNL d   1      46.463 -18.133  43.352  0.00  0.00     0.027 A 
BRANCH  16  19
ATOM     19  O   UNL d   1      46.647 -20.220  42.714  0.00  0.00    -0.328 OA
ATOM     20  C   UNL d   1      46.621 -20.134  41.893  0.00  0.00     0.181 C 
ENDBRANCH  16  19
ENDBRANCH  12  13
ENDBRANCH  11  12
ENDBRANCH   1  11
TORSDOF 6
ENDMDL
MODEL 2
REMARK VINA RESULT:       6.5      1.439      5.290
REMARK  6 active torsions:
REMARK  status: ('A' for Active; 'I' for Inactive)
REMARK    1  A    between atoms: N_4  and  C_1 
REMARK       I    between atoms: C_7  and  N_4 
REMARK    2  A    between atoms: C_8  and  C_7 
REMARK    3  A    between atoms: C_11  and  C_8 
REMARK    4  A    between atoms: C_10  and  O_17 
REMARK    5  A    between atoms: O_17  and  C_11 
REMARK    6  A    between atoms: O_18  and  C_12 
ROOT
ATOM      1  C   UNL d   1      45.948 -16.837  44.719  0.00  0.00     0.089 C 
ENDROOT
BRANCH   1   2
ATOM      2  C   UNL d   1      46.121 -17.503  44.262  0.00  0.00     0.283 C 
ATOM      3  N   UNL d   1      46.109 -18.250  44.613  0.00  0.00    -0.186 NA
ATOM      4  O   UNL d   1      46.302 -17.426  43.469  0.00  0.00    -0.265 OA
BRANCH   3   5
ATOM      5  C   UNL d   1      46.279 -18.912  44.166  0.00  0.00     0.194 A 
ATOM      6  N   UNL d   1      46.546 -19.642  44.453  0.00  0.00    -0.107 NA
ATOM      7  O   UNL d   1      46.644 -20.142  43.810  0.00  0.00    -0.210 OA
ATOM      8  C   UNL d   1      46.444 -19.737  43.135  0.00  0.00     0.128 A 
ATOM      9  C   UNL d   1      46.215 -18.968  43.349  0.00  0.00     0.068 A 
ATOM     10  C   UNL d   1      46.461 -20.029  42.367  0.00  0.00     0.029 C 
ENDBRANCH   3   5
ENDBRANCH   1   2
BRANCH   1  11
ATOM     11  C   UNL d   1      45.567 -16.199  44.374  0.00  0.00     0.128 C 
BRANCH  11  12
ATOM     12  O   UNL d   1      45.599 -15.596  44.940  0.00  0.00    -0.305 OA
BRANCH  12  13
ATOM     13  C   UNL d   1      45.561 -14.809  44.708  0.00  0.00     0.100 A 
ATOM     14  C   UNL d   1      46.225 -14.322  44.787  0.00  0.00     0.027 A 
ATOM     15  C   UNL d   1      46.194 -13.531  44.557  0.00  0.00     0.026 A 
ATOM     16  C   UNL d   1      45.490 -13.233  44.246  0.00  0.00     0.094 A 
ATOM     17  C   UNL d   1      44.827 -13.720  44.167  0.00  0.00     0.026 A 
ATOM     18  C   UNL d   1      44.864 -14.507  44.398  0.00  0.00     0.027 A 
BRANCH  16  19
ATOM     19  O   UNL d   1      45.453 -12.433  44.011  0.00  0.00    -0.328 OA
ATOM     20  C   UNL d   1      45.194 -12.247  43.250  0.00  0.00     0.181 C 
ENDBRANCH  16  19
ENDBRANCH  12  13
ENDBRANCH  11  12
ENDBRANCH   1  11
TORSDOF 6
ENDMDL
