MODEL 1
REMARK VINA RESULT:      -7.3      0.000      0.000
REMARK  4 active torsions:
REMARK  status: ('A' for Active; 'I' for Inactive)
REMARK    1  A    between atoms: C_8  and  N_1 
REMARK    2  A    between atoms: C_2  and  C_4 
REMARK       I    between atoms: C_4  and  N_5 
REMARK    3  A    between atoms: N_5  and  C_7 
REMARK    4  A    between atoms: O_19  and  C_14 
ROOT
ATOM      1  C   UNL d   1     -47.545  13.233  23.206  0.00  0.00     0.108 A 
ATOM      2  C   UNL d   1     -46.246  13.215  22.754  0.00  0.00     0.128 A 
ATOM      3  C   UNL d   1     -46.906  13.639  22.902  0.00  0.00     0.045 A 
ATOM      4  C   UNL d   1     -47.521  12.450  23.352  0.00  0.00     0.112 A 
ATOM      5  C   UNL d   1     -46.169  12.453  22.876  0.00  0.00     0.026 A 
ATOM      6  C   UNL d   1     -46.813  12.028  23.186  0.00  0.00     0.027 A 
ENDROOT
BRANCH   1   7
ATOM      7  N   UNL d   1     -48.294  13.676  23.382  0.00  0.00    -0.206 NA
ATOM      8  C   UNL d   1     -48.661  14.084  22.751  0.00  0.00     0.285 C 
ATOM      9  O   UNL d   1     -48.305  14.048  22.008  0.00  0.00    -0.265 OA
BRANCH   8  10
ATOM     10  C   UNL d   1     -49.362  14.515  22.854  0.00  0.00     0.088 A 
ATOM     11  S   UNL d   1     -49.538  15.097  23.416  0.00  0.00    -0.075 SA
ATOM     12  C   UNL d   1     -50.322  15.350  23.271  0.00  0.00     0.064 A 
ATOM     13 BR   UNL d   1     -50.726  15.921  23.695  0.00  0.00    -0.042 Br
ATOM     14  C   UNL d   1     -50.604  14.906  22.613  0.00  0.00     0.014 A 
ATOM     15  C   UNL d   1     -50.007  14.417  22.388  0.00  0.00     0.012 A 
ENDBRANCH   8  10
ENDBRANCH   1   7
BRANCH   4  16
ATOM     16  O   UNL d   1     -48.163  12.026  23.661  0.00  0.00    -0.327 OA
ATOM     17  C   UNL d   1     -48.115  11.150  23.697  0.00  0.00     0.181 C 
ENDBRANCH   4  16
BRANCH   2  18
ATOM     18  N   UNL d   1     -45.549  13.668  22.420  0.00  0.00    -0.114 N 
ATOM     19  O   UNL d   1     -45.452  14.513  22.580  0.00  0.00    -0.532 OA
ATOM     20  O   UNL d   1     -44.996  13.244  21.948  0.00  0.00    -0.532 OA
ENDBRANCH   2  18
TORSDOF 4
ENDMDL
MODEL 2
REMARK VINA RESULT:      -7.2      2.265      3.880
REMARK  4 active torsions:
REMARK  status: ('A' for Active; 'I' for Inactive)
REMARK    1  A    between atoms: C_8  and  N_1 
REMARK    2  A    between atoms: C_2  and  C_4 
REMARK       I    between atoms: C_4  and  N_5 
REMARK    3  A    between atoms: N_5  and  C_7 
REMARK    4  A    between atoms: O_19  and  C_14 
ROOT
ATOM      1  C   UNL d   1     -49.302  13.476  23.077  0.00  0.00     0.108 A 
ATOM      2  C   UNL d   1     -50.433  14.180  22.734  0.00  0.00     0.128 A 
ATOM      3  C   UNL d   1     -49.639  14.171  22.814  0.00  0.00     0.045 A 
ATOM      4  C   UNL d   1     -49.738  12.831  23.249  0.00  0.00     0.112 A 
ATOM      5  C   UNL d   1     -50.903  13.581  22.887  0.00  0.00     0.026 A 
ATOM      6  C   UNL d   1     -50.572  12.868  23.155  0.00  0.00     0.027 A 
ENDROOT
BRANCH   1   7
ATOM      7  N   UNL d   1     -48.421  13.434  23.177  0.00  0.00    -0.206 NA
ATOM      8  C   UNL d   1     -47.945  13.630  22.518  0.00  0.00     0.285 C 
ATOM      9  O   UNL d   1     -48.325  13.849  21.819  0.00  0.00    -0.265 OA
BRANCH   8  10
ATOM     10  C   UNL d   1     -47.117  13.610  22.550  0.00  0.00     0.088 A 
ATOM     11  S   UNL d   1     -46.596  13.063  22.212  0.00  0.00    -0.075 SA
ATOM     12  C   UNL d   1     -45.821  13.303  22.416  0.00  0.00     0.064 A 
ATOM     13 BR   UNL d   1     -45.129  12.923  22.199  0.00  0.00    -0.042 Br
ATOM     14  C   UNL d   1     -45.897  14.001  22.882  0.00  0.00     0.014 A 
ATOM     15  C   UNL d   1     -46.683  14.158  22.944  0.00  0.00     0.012 A 
ENDBRANCH   8  10
ENDBRANCH   1   7
BRANCH   4  16
ATOM     16  O   UNL d   1     -49.408  12.119  23.517  0.00  0.00    -0.327 OA
ATOM     17  C   UNL d   1     -49.941  11.445  23.698  0.00  0.00     0.181 C 
ENDBRANCH   4  16
BRANCH   2  18
ATOM     18  N   UNL d   1     -50.795  14.947  22.444  0.00  0.00    -0.114 N 
ATOM     19  O   UNL d   1     -50.863  15.631  22.970  0.00  0.00    -0.532 OA
ATOM     20  O   UNL d   1     -51.064  14.977  21.648  0.00  0.00    -0.532 OA
ENDBRANCH   2  18
TORSDOF 4
ENDMDL
MODEL 3
REMARK VINA RESULT:      -6.8      2.319      4.172
REMARK  4 active torsions:
REMARK  status: ('A' for Active; 'I' for Inactive)
REMARK    1  A    between atoms: C_8  and  N_1 
REMARK    2  A    between atoms: C_2  and  C_4 
REMARK       I    between atoms: C_4  and  N_5 
REMARK    3  A    between atoms: N_5  and  C_7 
REMARK    4  A    between atoms: O_19  and  C_14 
ROOT
ATOM      1  C   UNL d   1     -49.273  13.915  22.933  0.00  0.00     0.108 A 
ATOM      2  C   UNL d   1     -50.360  13.082  23.063  0.00  0.00     0.128 A 
ATOM      3  C   UNL d   1     -49.600  13.173  22.838  0.00  0.00     0.045 A 
ATOM      4  C   UNL d   1     -49.687  14.525  23.235  0.00  0.00     0.112 A 
ATOM      5  C   UNL d   1     -50.807  13.641  23.362  0.00  0.00     0.026 A 
ATOM      6  C   UNL d   1     -50.486  14.401  23.464  0.00  0.00     0.027 A 
ENDROOT
BRANCH   1   7
ATOM      7  N   UNL d   1     -48.429  14.049  22.693  0.00  0.00    -0.206 NA
ATOM      8  C   UNL d   1     -47.849  13.532  23.003  0.00  0.00     0.285 C 
ATOM      9  O   UNL d   1     -48.099  12.932  23.511  0.00  0.00    -0.265 OA
BRANCH   8  10
ATOM     10  C   UNL d   1     -47.046  13.607  22.814  0.00  0.00     0.088 A 
ATOM     11  S   UNL d   1     -46.556  13.082  22.403  0.00  0.00    -0.075 SA
ATOM     12  C   UNL d   1     -45.796  13.431  22.369  0.00  0.00     0.064 A 
ATOM     13 BR   UNL d   1     -45.136  13.104  22.012  0.00  0.00    -0.042 Br
ATOM     14  C   UNL d   1     -45.848  14.170  22.768  0.00  0.00     0.014 A 
ATOM     15  C   UNL d   1     -46.607  14.246  23.022  0.00  0.00     0.012 A 
ENDBRANCH   8  10
ENDBRANCH   1   7
BRANCH   4  16
ATOM     16  O   UNL d   1     -49.367  15.284  23.337  0.00  0.00    -0.327 OA
ATOM     17  C   UNL d   1     -49.880  15.922  23.653  0.00  0.00     0.181 C 
ENDBRANCH   4  16
BRANCH   2  18
ATOM     18  N   UNL d   1     -50.711  12.264  22.955  0.00  0.00    -0.114 N 
ATOM     19  O   UNL d   1     -50.867  11.755  23.638  0.00  0.00    -0.532 OA
ATOM     20  O   UNL d   1     -50.883  12.011  22.171  0.00  0.00    -0.532 OA
ENDBRANCH   2  18
TORSDOF 4
ENDMDL
MODEL 4
REMARK VINA RESULT:      -5.7      8.894      9.736
REMARK  4 active torsions:
REMARK  status: ('A' for Active; 'I' for Inactive)
REMARK    1  A    between atoms: C_8  and  N_1 
REMARK    2  A    between atoms: C_2  and  C_4 
REMARK       I    between atoms: C_4  and  N_5 
REMARK    3  A    between atoms: N_5  and  C_7 
REMARK    4  A    between atoms: O_19  and  C_14 
ROOT
ATOM      1  C   UNL d   1     -39.239  14.341  18.608  0.00  0.00     0.108 A 
ATOM      2  C   UNL d   1     -39.942  14.620  17.460  0.00  0.00     0.128 A 
ATOM      3  C   UNL d   1     -39.774  14.816  18.215  0.00  0.00     0.045 A 
ATOM      4  C   UNL d   1     -38.896  13.710  18.263  0.00  0.00     0.112 A 
ATOM      5  C   UNL d   1     -39.638  14.018  17.077  0.00  0.00     0.026 A 
ATOM      6  C   UNL d   1     -39.092  13.528  17.466  0.00  0.00     0.027 A 
ENDROOT
BRANCH   1   7
ATOM      7  N   UNL d   1     -39.030  14.532  19.450  0.00  0.00    -0.206 NA
ATOM      8  C   UNL d   1     -39.656  14.592  20.002  0.00  0.00     0.285 C 
ATOM      9  O   UNL d   1     -40.424  14.470  19.729  0.00  0.00    -0.265 OA
BRANCH   8  10
ATOM     10  C   UNL d   1     -39.523  14.768  20.801  0.00  0.00     0.088 A 
ATOM     11  S   UNL d   1     -39.303  15.487  21.147  0.00  0.00    -0.075 SA
ATOM     12  C   UNL d   1     -39.245  15.356  21.971  0.00  0.00     0.064 A 
ATOM     13 BR   UNL d   1     -39.042  15.917  22.531  0.00  0.00    -0.042 Br
ATOM     14  C   UNL d   1     -39.435  14.546  22.103  0.00  0.00     0.014 A 
ATOM     15  C   UNL d   1     -39.596  14.222  21.385  0.00  0.00     0.012 A 
ENDBRANCH   8  10
ENDBRANCH   1   7
BRANCH   4  16
ATOM     16  O   UNL d   1     -38.351  13.221  18.652  0.00  0.00    -0.327 OA
ATOM     17  C   UNL d   1     -37.947  12.590  18.195  0.00  0.00     0.181 C 
ENDBRANCH   4  16
BRANCH   2  18
ATOM     18  N   UNL d   1     -40.531  15.146  17.035  0.00  0.00    -0.114 N 
ATOM     19  O   UNL d   1     -40.294  15.922  16.733  0.00  0.00    -0.532 OA
ATOM     20  O   UNL d   1     -41.316  14.860  16.941  0.00  0.00    -0.532 OA
ENDBRANCH   2  18
TORSDOF 4
ENDMDL
MODEL 5
REMARK VINA RESULT:      -5.5      2.353      4.189
REMARK  4 active torsions:
REMARK  status: ('A' for Active; 'I' for Inactive)
REMARK    1  A    between atoms: C_8  and  N_1 
REMARK    2  A    between atoms: C_2  and  C_4 
REMARK       I    between atoms: C_4  and  N_5 
REMARK    3  A    between atoms: N_5  and  C_7 
REMARK    4  A    between atoms: O_19  and  C_14 
ROOT
ATOM      1  C   UNL d   1     -48.316  13.788  22.985  0.00  0.00     0.108 A 
ATOM      2  C   UNL d   1     -49.572  14.175  22.581  0.00  0.00     0.128 A 
ATOM      3  C   UNL d   1     -49.105  13.606  22.888  0.00  0.00     0.045 A 
ATOM      4  C   UNL d   1     -48.016  14.498  22.784  0.00  0.00     0.112 A 
ATOM      5  C   UNL d   1     -49.333  14.882  22.369  0.00  0.00     0.026 A 
ATOM      6  C   UNL d   1     -48.531  15.080  22.462  0.00  0.00     0.027 A 
ENDROOT
BRANCH   1   7
ATOM      7  N   UNL d   1     -47.770  13.175  23.324  0.00  0.00    -0.206 NA
ATOM      8  C   UNL d   1     -47.707  12.445  22.922  0.00  0.00     0.285 C 
ATOM      9  O   UNL d   1     -48.154  12.341  22.236  0.00  0.00    -0.265 OA
BRANCH   8  10
ATOM     10  C   UNL d   1     -47.214  11.835  23.191  0.00  0.00     0.088 A 
ATOM     11  S   UNL d   1     -46.387  11.807  23.220  0.00  0.00    -0.075 SA
ATOM     12  C   UNL d   1     -46.177  11.064  23.539  0.00  0.00     0.064 A 
ATOM     13 BR   UNL d   1     -45.414  10.797  23.668  0.00  0.00    -0.042 Br
ATOM     14  C   UNL d   1     -46.895  10.654  23.698  0.00  0.00     0.014 A 
ATOM     15  C   UNL d   1     -47.497  11.141  23.479  0.00  0.00     0.012 A 
ENDBRANCH   8  10
ENDBRANCH   1   7
BRANCH   4  16
ATOM     16  O   UNL d   1     -47.216  14.695  22.877  0.00  0.00    -0.327 OA
ATOM     17  C   UNL d   1     -46.938  15.481  22.601  0.00  0.00     0.181 C 
ENDBRANCH   4  16
BRANCH   2  18
ATOM     18  N   UNL d   1     -50.438  13.968  22.478  0.00  0.00    -0.114 N 
ATOM     19  O   UNL d   1     -50.966  13.915  23.163  0.00  0.00    -0.532 OA
ATOM     20  O   UNL d   1     -50.718  13.826  21.697  0.00  0.00    -0.532 OA
ENDBRANCH   2  18
TORSDOF 4
ENDMDL
MODEL 6
REMARK VINA RESULT:      -5.3      8.425      9.899
REMARK  4 active torsions:
REMARK  status: ('A' for Active; 'I' for Inactive)
REMARK    1  A    between atoms: C_8  and  N_1 
REMARK    2  A    between atoms: C_2  and  C_4 
REMARK       I    between atoms: C_4  and  N_5 
REMARK    3  A    between atoms: N_5  and  C_7 
REMARK    4  A    between atoms: O_19  and  C_14 
ROOT
ATOM      1  C   UNL d   1     -39.360  14.328  19.953  0.00  0.00     0.108 A 
ATOM      2  C   UNL d   1     -40.451  14.701  20.702  0.00  0.00     0.128 A 
ATOM      3  C   UNL d   1     -40.097  14.674  19.987  0.00  0.00     0.045 A 
ATOM      4  C   UNL d   1     -39.000  14.028  20.597  0.00  0.00     0.112 A 
ATOM      5  C   UNL d   1     -40.146  14.425  21.360  0.00  0.00     0.026 A 
ATOM      6  C   UNL d   1     -39.395  14.070  21.338  0.00  0.00     0.027 A 
ENDROOT
BRANCH   1   7
ATOM      7  N   UNL d   1     -38.940  14.283  19.171  0.00  0.00    -0.206 NA
ATOM      8  C   UNL d   1     -39.356  13.954  18.525  0.00  0.00     0.285 C 
ATOM      9  O   UNL d   1     -40.128  13.692  18.655  0.00  0.00    -0.265 OA
BRANCH   8  10
ATOM     10  C   UNL d   1     -39.017  13.885  17.771  0.00  0.00     0.088 A 
ATOM     11  S   UNL d   1     -38.910  14.468  17.194  0.00  0.00    -0.075 SA
ATOM     12  C   UNL d   1     -38.541  14.100  16.539  0.00  0.00     0.064 A 
ATOM     13 BR   UNL d   1     -38.330  14.469  15.839  0.00  0.00    -0.042 Br
ATOM     14  C   UNL d   1     -38.435  13.290  16.742  0.00  0.00     0.014 A 
ATOM     15  C   UNL d   1     -38.729  13.193  17.484  0.00  0.00     0.012 A 
ENDBRANCH   8  10
ENDBRANCH   1   7
BRANCH   4  16
ATOM     16  O   UNL d   1     -38.251  13.674  20.575  0.00  0.00    -0.327 OA
ATOM     17  C   UNL d   1     -37.940  13.294  21.303  0.00  0.00     0.181 C 
ENDBRANCH   4  16
BRANCH   2  18
ATOM     18  N   UNL d   1     -41.261  15.083  20.731  0.00  0.00    -0.114 N 
ATOM     19  O   UNL d   1     -41.363  15.922  20.546  0.00  0.00    -0.532 OA
ATOM     20  O   UNL d   1     -41.915  14.598  20.945  0.00  0.00    -0.532 OA
ENDBRANCH   2  18
TORSDOF 4
ENDMDL
MODEL 7
REMARK VINA RESULT:      -4.8      8.914     10.162
REMARK  4 active torsions:
REMARK  status: ('A' for Active; 'I' for Inactive)
REMARK    1  A    between atoms: C_8  and  N_1 
REMARK    2  A    between atoms: C_2  and  C_4 
REMARK       I    between atoms: C_4  and  N_5 
REMARK    3  A    between atoms: N_5  and  C_7 
REMARK    4  A    between atoms: O_19  and  C_14 
ROOT
ATOM      1  C   UNL d   1     -39.603  14.425  19.913  0.00  0.00     0.108 A 
ATOM      2  C   UNL d   1     -39.302  14.408  21.254  0.00  0.00     0.128 A 
ATOM      3  C   UNL d   1     -39.179  14.100  20.529  0.00  0.00     0.045 A 
ATOM      4  C   UNL d   1     -40.119  15.022  20.020  0.00  0.00     0.112 A 
ATOM      5  C   UNL d   1     -39.792  14.988  21.415  0.00  0.00     0.026 A 
ATOM      6  C   UNL d   1     -40.230  15.328  20.795  0.00  0.00     0.027 A 
ENDROOT
BRANCH   1   7
ATOM      7  N   UNL d   1     -39.487  14.103  19.093  0.00  0.00    -0.206 NA
ATOM      8  C   UNL d   1     -38.705  14.051  18.802  0.00  0.00     0.285 C 
ATOM      9  O   UNL d   1     -38.093  14.302  19.294  0.00  0.00    -0.265 OA
BRANCH   8  10
ATOM     10  C   UNL d   1     -38.535  13.760  18.045  0.00  0.00     0.088 A 
ATOM     11  S   UNL d   1     -38.346  14.178  17.356  0.00  0.00    -0.075 SA
ATOM     12  C   UNL d   1     -38.227  13.613  16.751  0.00  0.00     0.064 A 
ATOM     13 BR   UNL d   1     -38.029  13.779  15.974  0.00  0.00    -0.042 Br
ATOM     14  C   UNL d   1     -38.349  12.855  17.096  0.00  0.00     0.014 A 
ATOM     15  C   UNL d   1     -38.532  12.977  17.870  0.00  0.00     0.012 A 
ENDBRANCH   8  10
ENDBRANCH   1   7
BRANCH   4  16
ATOM     16  O   UNL d   1     -40.556  15.361  19.402  0.00  0.00    -0.327 OA
ATOM     17  C   UNL d   1     -41.202  15.922  19.598  0.00  0.00     0.181 C 
ENDBRANCH   4  16
BRANCH   2  18
ATOM     18  N   UNL d   1     -38.832  14.046  21.926  0.00  0.00    -0.114 N 
ATOM     19  O   UNL d   1     -38.147  14.456  22.259  0.00  0.00    -0.532 OA
ATOM     20  O   UNL d   1     -39.081  13.297  22.220  0.00  0.00    -0.532 OA
ENDBRANCH   2  18
TORSDOF 4
ENDMDL
