MODEL 1
REMARK VINA RESULT:       2.2      0.000      0.000
REMARK  8 active torsions:
REMARK  status: ('A' for Active; 'I' for Inactive)
REMARK    1  A    between atoms: N_4  and  S_1 
REMARK    2  A    between atoms: C_10  and  S_1 
REMARK    3  A    between atoms: C_7  and  N_2 
REMARK    4  A    between atoms: N_3  and  C_6 
REMARK    5  A    between atoms: C_5  and  N_4 
REMARK    6  A    between atoms: C_6  and  C_5 
REMARK    7  A    between atoms: C_11  and  C_6 
REMARK    8  A    between atoms: O_19  and  C_17 
ROOT
ATOM      1  C   UNL d   1     -41.264-121.557 -51.917  0.00  0.00     0.086 C 
ENDROOT
BRANCH   1   2
ATOM      2  N   UNL d   1     -41.449-121.934 -51.205  0.00  0.00    -0.300 N 
ATOM      3  C   UNL d   1     -41.885-121.534 -50.625  0.00  0.00     0.100 A 
ATOM      4  C   UNL d   1     -42.069-121.908 -49.916  0.00  0.00     0.100 A 
ATOM      5  N   UNL d   1     -41.820-122.681 -49.781  0.00  0.00    -0.300 N 
ATOM      6  C   UNL d   1     -41.387-123.080 -50.354  0.00  0.00     0.100 A 
ATOM      7  C   UNL d   1     -41.200-122.707 -51.069  0.00  0.00     0.100 A 
BRANCH   5   8
ATOM      8  C   UNL d   1     -42.004-123.054 -49.072  0.00  0.00     0.086 A 
ATOM      9  C   UNL d   1     -42.734-123.417 -48.978  0.00  0.00     0.110 A 
ATOM     10  C   UNL d   1     -42.921-123.792 -48.268  0.00  0.00     0.026 A 
ATOM     11  C   UNL d   1     -42.368-123.801 -47.646  0.00  0.00     0.002 A 
ATOM     12  C   UNL d   1     -41.635-123.436 -47.743  0.00  0.00     0.002 A 
ATOM     13  C   UNL d   1     -41.451-123.063 -48.451  0.00  0.00     0.019 A 
BRANCH   9  14
ATOM     14  O   UNL d   1     -43.281-123.408 -49.593  0.00  0.00    -0.327 OA
ATOM     15  C   UNL d   1     -43.997-123.805 -49.514  0.00  0.00     0.181 C 
ENDBRANCH   9  14
ENDBRANCH   5   8
ENDBRANCH   1   2
BRANCH   1  16
ATOM     16  C   UNL d   1     -41.125-122.006 -52.604  0.00  0.00     0.130 C 
BRANCH  16  17
ATOM     17  N   UNL d   1     -41.764-122.295 -53.041  0.00  0.00    -0.155 NA
BRANCH  17  18
ATOM     18  S   UNL d   1     -41.661-122.956 -53.529  0.00  0.00     0.285 S 
ATOM     19  O   UNL d   1     -41.560-123.614 -54.017  0.00  0.00    -0.198 OA
ATOM     20  O   UNL d   1     -41.356-123.374 -52.883  0.00  0.00    -0.198 OA
BRANCH  18  21
ATOM     21  C   UNL d   1     -41.969-122.529 -54.175  0.00  0.00     0.105 A 
ATOM     22  C   UNL d   1     -41.557-122.517 -54.887  0.00  0.00     0.013 A 
ATOM     23  C   UNL d   1     -41.856-122.099 -55.527  0.00  0.00     0.001 A 
ATOM     24  C   UNL d   1     -42.582-121.680 -55.459  0.00  0.00     0.000 A 
ATOM     25  C   UNL d   1     -42.992-121.696 -54.736  0.00  0.00     0.001 A 
ATOM     26  C   UNL d   1     -42.680-122.123 -54.098  0.00  0.00     0.013 A 
ENDBRANCH  18  21
ENDBRANCH  17  18
ENDBRANCH  16  17
ENDBRANCH   1  16
BRANCH   1  27
ATOM     27  C   UNL d   1     -41.217-120.736 -51.951  0.00  0.00     0.037 A 
ATOM     28  C   UNL d   1     -41.215-120.295 -51.258  0.00  0.00     0.100 A 
ATOM     29  N   UNL d   1     -41.167-119.466 -51.291  0.00  0.00    -0.242 NA
ATOM     30  C   UNL d   1     -41.123-119.086 -52.018  0.00  0.00     0.099 A 
ATOM     31  C   UNL d   1     -41.126-119.526 -52.711  0.00  0.00     0.021 A 
ATOM     32  C   UNL d   1     -41.173-120.355 -52.678  0.00  0.00     0.005 A 
ENDBRANCH   1  27
TORSDOF 8
ENDMDL
