MODEL 1
REMARK VINA RESULT:      -0.2      0.000      0.000
REMARK  4 active torsions:
REMARK  status: ('A' for Active; 'I' for Inactive)
REMARK       I    between atoms: C_4  and  N_1 
REMARK    1  A    between atoms: C_7  and  C_3 
REMARK    2  A    between atoms: C_8  and  C_4 
REMARK    3  A    between atoms: C_10  and  C_5 
REMARK    4  A    between atoms: O_23  and  C_18 
ROOT
ATOM      1  N   UNL d   1     -42.748-122.925 -50.211  0.00  0.00    -0.194 N 
ATOM      2  N   UNL d   1     -42.783-122.824 -51.022  0.00  0.00    -0.163 NA
ATOM      3  C   UNL d   1     -41.953-122.925 -49.985  0.00  0.00     0.091 A 
ATOM      4  C   UNL d   1     -43.408-123.015 -49.686  0.00  0.00     0.286 C 
ATOM      5  C   UNL d   1     -42.006-122.761 -51.297  0.00  0.00     0.103 A 
ATOM      6  C   UNL d   1     -41.507-122.823 -50.662  0.00  0.00     0.040 A 
ATOM      7  O   UNL d   1     -44.174-123.003 -50.004  0.00  0.00    -0.265 OA
ENDROOT
BRANCH   5   8
ATOM      8  C   UNL d   1     -41.786-122.654 -52.085  0.00  0.00     0.019 A 
ATOM      9  C   UNL d   1     -41.393-123.252 -52.496  0.00  0.00     0.004 A 
ATOM     10  C   UNL d   1     -41.173-123.145 -53.284  0.00  0.00     0.024 A 
ATOM     11  C   UNL d   1     -41.347-122.431 -53.665  0.00  0.00     0.094 A 
ATOM     12  C   UNL d   1     -41.741-121.829 -53.256  0.00  0.00     0.024 A 
ATOM     13  C   UNL d   1     -41.960-121.940 -52.466  0.00  0.00     0.004 A 
BRANCH  11  14
ATOM     14  O   UNL d   1     -41.128-122.320 -54.454  0.00  0.00    -0.328 OA
ATOM     15  C   UNL d   1     -41.343-122.878 -55.027  0.00  0.00     0.181 C 
ENDBRANCH  11  14
ENDBRANCH   5   8
BRANCH   3  16
ATOM     16  C   UNL d   1     -41.677-123.012 -49.205  0.00  0.00     0.057 A 
ATOM     17  C   UNL d   1     -41.405-122.354 -48.809  0.00  0.00     0.197 A 
ATOM     18  O   UNL d   1     -41.401-121.624 -49.159  0.00  0.00    -0.286 OA
ATOM     19  C   UNL d   1     -41.126-122.438 -48.026  0.00  0.00     0.042 A 
ATOM     20  C   UNL d   1     -41.123-123.177 -47.649  0.00  0.00     0.003 A 
ATOM     21  C   UNL d   1     -41.403-123.817 -48.076  0.00  0.00     0.000 A 
ATOM     22  C   UNL d   1     -41.671-123.741 -48.828  0.00  0.00     0.005 A 
ENDBRANCH   3  16
BRANCH   4  23
ATOM     23  C   UNL d   1     -43.290-123.110 -48.893  0.00  0.00     0.087 A 
ATOM     24  S   UNL d   1     -43.231-123.814 -48.522  0.00  0.00    -0.082 SA
ATOM     25  C   UNL d   1     -43.110-123.658 -47.702  0.00  0.00     0.036 A 
ATOM     26  C   UNL d   1     -43.100-122.832 -47.602  0.00  0.00     0.008 A 
ATOM     27  C   UNL d   1     -43.212-122.494 -48.343  0.00  0.00     0.012 A 
ENDBRANCH   4  23
TORSDOF 4
ENDMDL
MODEL 2
REMARK VINA RESULT:       1.5      1.745      5.052
REMARK  4 active torsions:
REMARK  status: ('A' for Active; 'I' for Inactive)
REMARK       I    between atoms: C_4  and  N_1 
REMARK    1  A    between atoms: C_7  and  C_3 
REMARK    2  A    between atoms: C_8  and  C_4 
REMARK    3  A    between atoms: C_10  and  C_5 
REMARK    4  A    between atoms: O_23  and  C_18 
ROOT
ATOM      1  N   UNL d   1     -41.796-122.045 -52.471  0.00  0.00    -0.194 N 
ATOM      2  N   UNL d   1     -41.798-122.037 -51.652  0.00  0.00    -0.163 NA
ATOM      3  C   UNL d   1     -41.750-122.832 -52.721  0.00  0.00     0.091 A 
ATOM      4  C   UNL d   1     -41.834-121.369 -52.981  0.00  0.00     0.286 C 
ATOM      5  C   UNL d   1     -41.754-122.821 -51.397  0.00  0.00     0.103 A 
ATOM      6  C   UNL d   1     -41.724-123.299 -52.051  0.00  0.00     0.040 A 
ATOM      7  O   UNL d   1     -41.878-120.615 -52.640  0.00  0.00    -0.265 OA
ENDROOT
BRANCH   5   8
ATOM      8  C   UNL d   1     -41.742-123.067 -50.609  0.00  0.00     0.019 A 
ATOM      9  C   UNL d   1     -41.144-123.564 -50.334  0.00  0.00     0.004 A 
ATOM     10  C   UNL d   1     -41.132-123.809 -49.546  0.00  0.00     0.024 A 
ATOM     11  C   UNL d   1     -41.725-123.555 -49.028  0.00  0.00     0.094 A 
ATOM     12  C   UNL d   1     -42.326-123.056 -49.301  0.00  0.00     0.024 A 
ATOM     13  C   UNL d   1     -42.335-122.812 -50.091  0.00  0.00     0.004 A 
BRANCH  11  14
ATOM     14  O   UNL d   1     -41.716-123.798 -48.238  0.00  0.00    -0.328 OA
ATOM     15  C   UNL d   1     -41.738-123.237 -47.630  0.00  0.00     0.181 C 
ENDBRANCH  11  14
ENDBRANCH   5   8
BRANCH   3  16
ATOM     16  C   UNL d   1     -41.733-123.083 -53.513  0.00  0.00     0.057 A 
ATOM     17  C   UNL d   1     -42.333-123.562 -53.785  0.00  0.00     0.197 A 
ATOM     18  O   UNL d   1     -42.938-123.796 -53.300  0.00  0.00    -0.286 OA
ATOM     19  C   UNL d   1     -42.320-123.817 -54.581  0.00  0.00     0.042 A 
ATOM     20  C   UNL d   1     -41.710-123.589 -55.094  0.00  0.00     0.003 A 
ATOM     21  C   UNL d   1     -41.123-123.106 -54.788  0.00  0.00     0.000 A 
ATOM     22  C   UNL d   1     -41.131-122.860 -54.025  0.00  0.00     0.005 A 
ENDBRANCH   3  16
BRANCH   4  23
ATOM     23  C   UNL d   1     -41.826-121.461 -53.783  0.00  0.00     0.087 A 
ATOM     24  S   UNL d   1     -42.476-121.501 -54.244  0.00  0.00    -0.082 SA
ATOM     25  C   UNL d   1     -42.216-121.598 -55.040  0.00  0.00     0.036 A 
ATOM     26  C   UNL d   1     -41.384-121.615 -55.033  0.00  0.00     0.008 A 
ATOM     27  C   UNL d   1     -41.145-121.530 -54.251  0.00  0.00     0.012 A 
ENDBRANCH   4  23
TORSDOF 4
ENDMDL
