MODEL 1
REMARK VINA RESULT:      73.3      0.000      0.000
REMARK  6 active torsions:
REMARK  status: ('A' for Active; 'I' for Inactive)
REMARK    1  A    between atoms: C_5  and  N_1 
REMARK    2  A    between atoms: C_7  and  C_5 
REMARK    3  A    between atoms: O_14  and  C_10 
REMARK    4  A    between atoms: C_18  and  O_14 
REMARK    5  A    between atoms: C_19  and  C_18 
REMARK    6  A    between atoms: C_20  and  C_19 
ROOT
ATOM      1  C   UNL d   1      59.285  48.737  51.323  0.00  0.00     0.087 C 
ENDROOT
BRANCH   1   2
ATOM      2  N   UNL d   1      59.001  49.092  50.634  0.00  0.00    -0.251 N 
ATOM      3  C   UNL d   1      59.431  49.424  50.010  0.00  0.00     0.378 A 
ATOM      4  O   UNL d   1      58.890  49.708  49.452  0.00  0.00    -0.258 OA
ATOM      5  O   UNL d   1      60.251  49.465  49.951  0.00  0.00    -0.237 OA
ATOM      6  C   UNL d   1      58.128  49.552  49.732  0.00  0.00     0.121 A 
ATOM      7  C   UNL d   1      58.196  49.171  50.463  0.00  0.00     0.092 A 
ATOM      8  C   UNL d   1      57.374  49.703  49.424  0.00  0.00     0.026 A 
ATOM      9  C   UNL d   1      57.526  48.945  50.881  0.00  0.00     0.020 A 
ATOM     10  C   UNL d   1      56.781  49.097  50.572  0.00  0.00     0.002 A 
ATOM     11  C   UNL d   1      56.705  49.477  49.842  0.00  0.00     0.002 A 
ATOM     12  C   UNL d   1      56.108  48.870  50.990  0.00  0.00     0.000 C 
ENDBRANCH   1   2
BRANCH   1  13
ATOM     13  C   UNL d   1      60.055  48.888  51.583  0.00  0.00     0.041 A 
ATOM     14  C   UNL d   1      60.662  48.388  51.378  0.00  0.00     0.102 A 
ATOM     15  C   UNL d   1      61.423  48.539  51.637  0.00  0.00     0.025 A 
ATOM     16  C   UNL d   1      61.577  49.198  52.105  0.00  0.00     0.002 A 
ATOM     17  C   UNL d   1      60.960  49.705  52.313  0.00  0.00     0.000 A 
ATOM     18  C   UNL d   1      60.194  49.548  52.049  0.00  0.00     0.004 A 
BRANCH  14  19
ATOM     19  O   UNL d   1      60.513  47.724  50.908  0.00  0.00    -0.305 OA
BRANCH  19  20
ATOM     20  C   UNL d   1      61.135  47.238  50.667  0.00  0.00     0.123 C 
BRANCH  20  21
ATOM     21  C   UNL d   1      60.980  46.499  50.353  0.00  0.00     0.027 C 
BRANCH  21  22
ATOM     22  C   UNL d   1      61.595  46.040  50.050  0.00  0.00     0.002 C 
ATOM     23  C   UNL d   1      61.862  46.159  49.275  0.00  0.00     0.000 C 
ENDBRANCH  21  22
ENDBRANCH  20  21
ENDBRANCH  19  20
ENDBRANCH  14  19
ENDBRANCH   1  13
TORSDOF 6
ENDMDL
MODEL 2
REMARK VINA RESULT:      75.9      2.028      4.115
REMARK  6 active torsions:
REMARK  status: ('A' for Active; 'I' for Inactive)
REMARK    1  A    between atoms: C_5  and  N_1 
REMARK    2  A    between atoms: C_7  and  C_5 
REMARK    3  A    between atoms: O_14  and  C_10 
REMARK    4  A    between atoms: C_18  and  O_14 
REMARK    5  A    between atoms: C_19  and  C_18 
REMARK    6  A    between atoms: C_20  and  C_19 
ROOT
ATOM      1  C   UNL d   1      61.287  47.742  50.879  0.00  0.00     0.087 C 
ENDROOT
BRANCH   1   2
ATOM      2  N   UNL d   1      61.608  47.169  50.379  0.00  0.00    -0.251 N 
ATOM      3  C   UNL d   1      62.171  47.266  49.780  0.00  0.00     0.378 A 
ATOM      4  O   UNL d   1      62.309  46.524  49.441  0.00  0.00    -0.258 OA
ATOM      5  O   UNL d   1      62.531  47.972  49.558  0.00  0.00    -0.237 OA
ATOM      6  C   UNL d   1      61.832  45.971  49.830  0.00  0.00     0.121 A 
ATOM      7  C   UNL d   1      61.399  46.371  50.410  0.00  0.00     0.092 A 
ATOM      8  C   UNL d   1      61.729  45.155  49.739  0.00  0.00     0.026 A 
ATOM      9  C   UNL d   1      60.872  45.964  50.892  0.00  0.00     0.020 A 
ATOM     10  C   UNL d   1      60.773  45.155  50.798  0.00  0.00     0.002 A 
ATOM     11  C   UNL d   1      61.203  44.749  50.220  0.00  0.00     0.002 A 
ATOM     12  C   UNL d   1      60.244  44.746  51.280  0.00  0.00     0.000 C 
ENDBRANCH   1   2
BRANCH   1  13
ATOM     13  C   UNL d   1      60.834  48.361  50.568  0.00  0.00     0.041 A 
ATOM     14  C   UNL d   1      60.856  49.096  50.912  0.00  0.00     0.102 A 
ATOM     15  C   UNL d   1      60.408  49.707  50.603  0.00  0.00     0.025 A 
ATOM     16  C   UNL d   1      59.933  49.578  49.943  0.00  0.00     0.002 A 
ATOM     17  C   UNL d   1      59.911  48.831  49.595  0.00  0.00     0.000 A 
ATOM     18  C   UNL d   1      60.365  48.219  49.911  0.00  0.00     0.004 A 
BRANCH  14  19
ATOM     19  O   UNL d   1      61.332  49.232  51.575  0.00  0.00    -0.305 OA
BRANCH  19  20
ATOM     20  C   UNL d   1      61.023  49.620  52.235  0.00  0.00     0.123 C 
BRANCH  20  21
ATOM     21  C   UNL d   1      61.478  49.706  52.909  0.00  0.00     0.027 C 
BRANCH  21  22
ATOM     22  C   UNL d   1      61.127  49.661  53.654  0.00  0.00     0.002 C 
ATOM     23  C   UNL d   1      60.304  49.707  53.732  0.00  0.00     0.000 C 
ENDBRANCH  21  22
ENDBRANCH  20  21
ENDBRANCH  19  20
ENDBRANCH  14  19
ENDBRANCH   1  13
TORSDOF 6
ENDMDL
