MODEL 1
REMARK VINA RESULT:      -4.1      0.000      0.000
REMARK  7 active torsions:
REMARK  status: ('A' for Active; 'I' for Inactive)
REMARK    1  A    between atoms: S_2  and  C_1 
REMARK    2  A    between atoms: C_9  and  S_2 
REMARK    3  A    between atoms: C_10  and  N_3 
REMARK    4  A    between atoms: C_8  and  C_10 
REMARK       I    between atoms: N_15  and  C_8 
REMARK    5  A    between atoms: C_20  and  N_15 
REMARK    6  A    between atoms: O_32  and  C_21 
REMARK    7  A    between atoms: C_33  and  C_27 
ROOT
ATOM      1  C   UNL d   1     -40.363  14.849  19.610  0.00  0.00     0.144 A 
ATOM      2  N   UNL d   1     -40.543  14.014  20.760  0.00  0.00    -0.299 N 
ATOM      3  C   UNL d   1     -39.754  15.252  20.006  0.00  0.00     0.209 A 
ATOM      4  C   UNL d   1     -40.758  14.230  19.987  0.00  0.00     0.095 A 
ATOM      5  C   UNL d   1     -39.544  15.034  20.773  0.00  0.00     0.058 A 
ATOM      6  C   UNL d   1     -39.938  14.415  21.150  0.00  0.00     0.068 A 
ATOM      7  C   UNL d   1     -39.729  14.199  21.915  0.00  0.00     0.020 A 
ATOM      8  C   UNL d   1     -38.940  15.436  21.161  0.00  0.00     0.029 A 
ATOM      9  O   UNL d   1     -39.357  15.874  19.627  0.00  0.00    -0.286 OA
ATOM     10  C   UNL d   1     -38.727  15.219  21.931  0.00  0.00     0.094 A 
ATOM     11  C   UNL d   1     -39.122  14.600  22.308  0.00  0.00     0.026 A 
ENDROOT
BRANCH   2  12
ATOM     12  C   UNL d   1     -40.937  13.395  21.137  0.00  0.00     0.144 C 
BRANCH  12  13
ATOM     13  C   UNL d   1     -41.748  13.443  21.270  0.00  0.00     0.297 C 
ATOM     14  N   UNL d   1     -42.181  12.760  21.435  0.00  0.00    -0.207 NA
ATOM     15  O   UNL d   1     -42.127  14.174  21.237  0.00  0.00    -0.264 OA
BRANCH  14  16
ATOM     16  C   UNL d   1     -42.992  12.809  21.568  0.00  0.00     0.085 A 
ATOM     17  C   UNL d   1     -43.372  12.225  22.006  0.00  0.00     0.019 A 
ATOM     18  C   UNL d   1     -44.183  12.274  22.139  0.00  0.00     0.002 A 
ATOM     19  C   UNL d   1     -44.614  12.907  21.833  0.00  0.00     0.000 A 
ATOM     20  C   UNL d   1     -44.231  13.493  21.392  0.00  0.00     0.002 A 
ATOM     21  C   UNL d   1     -43.420  13.444  21.260  0.00  0.00     0.019 A 
BRANCH  19  22
ATOM     22  C   UNL d   1     -45.430  12.963  21.962  0.00  0.00     0.000 C 
ATOM     23  C   UNL d   1     -45.727  13.596  22.397  0.00  0.00     0.000 C 
ENDBRANCH  19  22
ENDBRANCH  14  16
ENDBRANCH  12  13
ENDBRANCH   2  12
BRANCH   1  24
ATOM     24  S   UNL d   1     -40.575  15.066  18.842  0.00  0.00     0.214 S 
ATOM     25  O   UNL d   1     -40.357  14.319  18.569  0.00  0.00    -0.217 OA
ATOM     26  O   UNL d   1     -40.798  15.823  19.111  0.00  0.00    -0.217 OA
BRANCH  24  27
ATOM     27  C   UNL d   1     -40.787  15.281  18.068  0.00  0.00     0.088 A 
ATOM     28  C   UNL d   1     -41.479  15.710  17.928  0.00  0.00     0.014 A 
ATOM     29  C   UNL d   1     -41.685  15.922  17.160  0.00  0.00     0.030 A 
ATOM     30  C   UNL d   1     -41.206  15.709  16.523  0.00  0.00     0.140 A 
ATOM     31  C   UNL d   1     -40.511  15.277  16.664  0.00  0.00     0.030 A 
ATOM     32  F   UNL d   1     -41.415  15.922  15.751  0.00  0.00    -0.204 F 
ATOM     33  C   UNL d   1     -40.305  15.066  17.433  0.00  0.00     0.014 A 
ENDBRANCH  24  27
ENDBRANCH   1  24
BRANCH  10  34
ATOM     34  O   UNL d   1     -38.117  15.630  22.314  0.00  0.00    -0.328 OA
ATOM     35  C   UNL d   1     -38.075  15.618  23.143  0.00  0.00     0.181 C 
ENDBRANCH  10  34
TORSDOF 7
ENDMDL
MODEL 2
REMARK VINA RESULT:      -3.1      3.089      6.270
REMARK  7 active torsions:
REMARK  status: ('A' for Active; 'I' for Inactive)
REMARK    1  A    between atoms: S_2  and  C_1 
REMARK    2  A    between atoms: C_9  and  S_2 
REMARK    3  A    between atoms: C_10  and  N_3 
REMARK    4  A    between atoms: C_8  and  C_10 
REMARK       I    between atoms: N_15  and  C_8 
REMARK    5  A    between atoms: C_20  and  N_15 
REMARK    6  A    between atoms: O_32  and  C_21 
REMARK    7  A    between atoms: C_33  and  C_27 
ROOT
ATOM      1  C   UNL d   1     -45.357  12.979  22.356  0.00  0.00     0.144 A 
ATOM      2  N   UNL d   1     -44.122  12.663  21.704  0.00  0.00    -0.299 N 
ATOM      3  C   UNL d   1     -45.255  12.323  22.855  0.00  0.00     0.209 A 
ATOM      4  C   UNL d   1     -44.791  13.150  21.781  0.00  0.00     0.095 A 
ATOM      5  C   UNL d   1     -44.590  11.843  22.775  0.00  0.00     0.058 A 
ATOM      6  C   UNL d   1     -44.024  12.013  22.200  0.00  0.00     0.068 A 
ATOM      7  C   UNL d   1     -43.360  11.534  22.121  0.00  0.00     0.020 A 
ATOM      8  C   UNL d   1     -44.492  11.194  23.272  0.00  0.00     0.029 A 
ATOM      9  O   UNL d   1     -45.824  12.152  23.433  0.00  0.00    -0.286 OA
ATOM     10  C   UNL d   1     -43.825  10.711  23.193  0.00  0.00     0.094 A 
ATOM     11  C   UNL d   1     -43.259  10.881  22.618  0.00  0.00     0.026 A 
ENDROOT
BRANCH   2  12
ATOM     12  C   UNL d   1     -43.556  12.834  21.129  0.00  0.00     0.144 C 
BRANCH  12  13
ATOM     13  C   UNL d   1     -43.014  13.441  21.250  0.00  0.00     0.297 C 
ATOM     14  N   UNL d   1     -42.303  13.451  20.831  0.00  0.00    -0.207 NA
ATOM     15  O   UNL d   1     -43.182  14.038  21.792  0.00  0.00    -0.264 OA
BRANCH  14  16
ATOM     16  C   UNL d   1     -41.761  14.059  20.954  0.00  0.00     0.085 A 
ATOM     17  C   UNL d   1     -41.129  13.948  21.468  0.00  0.00     0.019 A 
ATOM     18  C   UNL d   1     -40.587  14.556  21.591  0.00  0.00     0.002 A 
ATOM     19  C   UNL d   1     -40.679  15.275  21.198  0.00  0.00     0.000 A 
ATOM     20  C   UNL d   1     -41.315  15.386  20.680  0.00  0.00     0.002 A 
ATOM     21  C   UNL d   1     -41.856  14.777  20.559  0.00  0.00     0.019 A 
BRANCH  19  22
ATOM     22  C   UNL d   1     -40.139  15.891  21.315  0.00  0.00     0.000 C 
ATOM     23  C   UNL d   1     -39.341  15.766  21.148  0.00  0.00     0.000 C 
ENDBRANCH  19  22
ENDBRANCH  14  16
ENDBRANCH  12  13
ENDBRANCH   2  12
BRANCH   1  24
ATOM     24  S   UNL d   1     -46.024  13.462  22.434  0.00  0.00     0.214 S 
ATOM     25  O   UNL d   1     -45.782  13.676  23.192  0.00  0.00    -0.217 OA
ATOM     26  O   UNL d   1     -46.275  13.249  21.668  0.00  0.00    -0.217 OA
BRANCH  24  27
ATOM     27  C   UNL d   1     -46.693  13.947  22.516  0.00  0.00     0.088 A 
ATOM     28  C   UNL d   1     -47.432  13.615  22.683  0.00  0.00     0.014 A 
ATOM     29  C   UNL d   1     -48.092  14.100  22.764  0.00  0.00     0.030 A 
ATOM     30  C   UNL d   1     -48.026  14.918  22.679  0.00  0.00     0.140 A 
ATOM     31  C   UNL d   1     -47.284  15.250  22.512  0.00  0.00     0.030 A 
ATOM     32  F   UNL d   1     -48.691  15.404  22.761  0.00  0.00    -0.204 F 
ATOM     33  C   UNL d   1     -46.623  14.764  22.432  0.00  0.00     0.014 A 
ENDBRANCH  24  27
ENDBRANCH   1  24
BRANCH  10  34
ATOM     34  O   UNL d   1     -43.736  10.059  23.698  0.00  0.00    -0.328 OA
ATOM     35  C   UNL d   1     -44.052   9.324  23.475  0.00  0.00     0.181 C 
ENDBRANCH  10  34
TORSDOF 7
ENDMDL
MODEL 3
REMARK VINA RESULT:      -2.3      3.270      5.256
REMARK  7 active torsions:
REMARK  status: ('A' for Active; 'I' for Inactive)
REMARK    1  A    between atoms: S_2  and  C_1 
REMARK    2  A    between atoms: C_9  and  S_2 
REMARK    3  A    between atoms: C_10  and  N_3 
REMARK    4  A    between atoms: C_8  and  C_10 
REMARK       I    between atoms: N_15  and  C_8 
REMARK    5  A    between atoms: C_20  and  N_15 
REMARK    6  A    between atoms: O_32  and  C_21 
REMARK    7  A    between atoms: C_33  and  C_27 
ROOT
ATOM      1  C   UNL d   1     -38.578  12.911  17.531  0.00  0.00     0.144 A 
ATOM      2  N   UNL d   1     -39.088  14.195  17.910  0.00  0.00    -0.299 N 
ATOM      3  C   UNL d   1     -38.324  13.233  16.808  0.00  0.00     0.209 A 
ATOM      4  C   UNL d   1     -38.960  13.392  18.082  0.00  0.00     0.095 A 
ATOM      5  C   UNL d   1     -38.453  14.029  16.642  0.00  0.00     0.058 A 
ATOM      6  C   UNL d   1     -38.835  14.510  17.192  0.00  0.00     0.068 A 
ATOM      7  C   UNL d   1     -38.963  15.305  17.026  0.00  0.00     0.020 A 
ATOM      8  C   UNL d   1     -38.199  14.343  15.924  0.00  0.00     0.029 A 
ATOM      9  O   UNL d   1     -37.940  12.749  16.255  0.00  0.00    -0.286 OA
ATOM     10  C   UNL d   1     -38.328  15.143  15.755  0.00  0.00     0.094 A 
ATOM     11  C   UNL d   1     -38.710  15.624  16.306  0.00  0.00     0.026 A 
ENDROOT
BRANCH   2  12
ATOM     12  C   UNL d   1     -39.470  14.675  18.460  0.00  0.00     0.144 C 
BRANCH  12  13
ATOM     13  C   UNL d   1     -39.291  14.609  19.261  0.00  0.00     0.297 C 
ATOM     14  N   UNL d   1     -39.897  14.539  19.816  0.00  0.00    -0.207 NA
ATOM     15  O   UNL d   1     -38.504  14.614  19.506  0.00  0.00    -0.264 OA
BRANCH  14  16
ATOM     16  C   UNL d   1     -39.717  14.473  20.617  0.00  0.00     0.085 A 
ATOM     17  C   UNL d   1     -39.335  13.800  20.898  0.00  0.00     0.019 A 
ATOM     18  C   UNL d   1     -39.155  13.734  21.698  0.00  0.00     0.002 A 
ATOM     19  C   UNL d   1     -39.356  14.342  22.218  0.00  0.00     0.000 A 
ATOM     20  C   UNL d   1     -39.740  15.018  21.934  0.00  0.00     0.002 A 
ATOM     21  C   UNL d   1     -39.919  15.083  21.134  0.00  0.00     0.019 A 
BRANCH  19  22
ATOM     22  C   UNL d   1     -39.178  14.283  23.024  0.00  0.00     0.000 C 
ATOM     23  C   UNL d   1     -38.467  14.592  23.304  0.00  0.00     0.000 C 
ENDBRANCH  19  22
ENDBRANCH  14  16
ENDBRANCH  12  13
ENDBRANCH   2  12
BRANCH   1  24
ATOM     24  S   UNL d   1     -38.449  12.112  17.699  0.00  0.00     0.214 S 
ATOM     25  O   UNL d   1     -38.951  11.900  17.082  0.00  0.00    -0.217 OA
ATOM     26  O   UNL d   1     -37.940  12.321  18.326  0.00  0.00    -0.217 OA
BRANCH  24  27
ATOM     27  C   UNL d   1     -38.322  11.309  17.866  0.00  0.00     0.088 A 
ATOM     28  C   UNL d   1     -38.386  10.742  17.267  0.00  0.00     0.014 A 
ATOM     29  C   UNL d   1     -38.259   9.947  17.436  0.00  0.00     0.030 A 
ATOM     30  C   UNL d   1     -38.067   9.706  18.202  0.00  0.00     0.140 A 
ATOM     31  C   UNL d   1     -38.004  10.275  18.803  0.00  0.00     0.030 A 
ATOM     32  F   UNL d   1     -37.940   8.906  18.371  0.00  0.00    -0.204 F 
ATOM     33  C   UNL d   1     -38.131  11.072  18.633  0.00  0.00     0.014 A 
ENDBRANCH  24  27
ENDBRANCH   1  24
BRANCH  10  34
ATOM     34  O   UNL d   1     -38.069  15.450  15.030  0.00  0.00    -0.328 OA
ATOM     35  C   UNL d   1     -38.310  15.087  14.323  0.00  0.00     0.181 C 
ENDBRANCH  10  34
TORSDOF 7
ENDMDL
MODEL 4
REMARK VINA RESULT:      -2.0      1.970      4.896
REMARK  7 active torsions:
REMARK  status: ('A' for Active; 'I' for Inactive)
REMARK    1  A    between atoms: S_2  and  C_1 
REMARK    2  A    between atoms: C_9  and  S_2 
REMARK    3  A    between atoms: C_10  and  N_3 
REMARK    4  A    between atoms: C_8  and  C_10 
REMARK       I    between atoms: N_15  and  C_8 
REMARK    5  A    between atoms: C_20  and  N_15 
REMARK    6  A    between atoms: O_32  and  C_21 
REMARK    7  A    between atoms: C_33  and  C_27 
ROOT
ATOM      1  C   UNL d   1     -40.862  14.426  20.995  0.00  0.00     0.144 A 
ATOM      2  N   UNL d   1     -40.031  15.259  20.179  0.00  0.00    -0.299 N 
ATOM      3  C   UNL d   1     -40.332  14.527  21.627  0.00  0.00     0.209 A 
ATOM      4  C   UNL d   1     -40.711  14.792  20.271  0.00  0.00     0.095 A 
ATOM      5  C   UNL d   1     -39.659  14.992  21.531  0.00  0.00     0.058 A 
ATOM      6  C   UNL d   1     -39.508  15.358  20.807  0.00  0.00     0.068 A 
ATOM      7  C   UNL d   1     -38.835  15.822  20.712  0.00  0.00     0.020 A 
ATOM      8  C   UNL d   1     -39.136  15.090  22.160  0.00  0.00     0.029 A 
ATOM      9  O   UNL d   1     -40.484  14.159  22.354  0.00  0.00    -0.286 OA
ATOM     10  C   UNL d   1     -38.459  15.556  22.066  0.00  0.00     0.094 A 
ATOM     11  C   UNL d   1     -38.309  15.922  21.342  0.00  0.00     0.026 A 
ENDROOT
BRANCH   2  12
ATOM     12  C   UNL d   1     -39.880  15.625  19.455  0.00  0.00     0.144 C 
BRANCH  12  13
ATOM     13  C   UNL d   1     -39.680  15.172  18.797  0.00  0.00     0.297 C 
ATOM     14  N   UNL d   1     -38.918  15.210  18.485  0.00  0.00    -0.207 NA
ATOM     15  O   UNL d   1     -40.244  14.681  18.451  0.00  0.00    -0.264 OA
BRANCH  14  16
ATOM     16  C   UNL d   1     -38.719  14.757  17.827  0.00  0.00     0.085 A 
ATOM     17  C   UNL d   1     -38.406  14.003  17.927  0.00  0.00     0.019 A 
ATOM     18  C   UNL d   1     -38.207  13.550  17.269  0.00  0.00     0.002 A 
ATOM     19  C   UNL d   1     -38.322  13.852  16.510  0.00  0.00     0.000 A 
ATOM     20  C   UNL d   1     -38.637  14.611  16.410  0.00  0.00     0.002 A 
ATOM     21  C   UNL d   1     -38.835  15.063  17.069  0.00  0.00     0.019 A 
BRANCH  19  22
ATOM     22  C   UNL d   1     -38.125  13.403  15.844  0.00  0.00     0.000 C 
ATOM     23  C   UNL d   1     -38.152  13.753  15.098  0.00  0.00     0.000 C 
ENDBRANCH  19  22
ENDBRANCH  14  16
ENDBRANCH  12  13
ENDBRANCH   2  12
BRANCH   1  24
ATOM     24  S   UNL d   1     -41.538  13.960  21.089  0.00  0.00     0.214 S 
ATOM     25  O   UNL d   1     -41.081  13.278  21.014  0.00  0.00    -0.217 OA
ATOM     26  O   UNL d   1     -42.006  14.646  21.166  0.00  0.00    -0.217 OA
BRANCH  24  27
ATOM     27  C   UNL d   1     -42.216  13.489  21.184  0.00  0.00     0.088 A 
ATOM     28  C   UNL d   1     -42.907  13.663  20.765  0.00  0.00     0.014 A 
ATOM     29  C   UNL d   1     -43.576  13.194  20.862  0.00  0.00     0.030 A 
ATOM     30  C   UNL d   1     -43.566  12.548  21.375  0.00  0.00     0.140 A 
ATOM     31  C   UNL d   1     -42.871  12.374  21.795  0.00  0.00     0.030 A 
ATOM     32  F   UNL d   1     -44.239  12.077  21.471  0.00  0.00    -0.204 F 
ATOM     33  C   UNL d   1     -42.201  12.844  21.698  0.00  0.00     0.014 A 
ENDBRANCH  24  27
ENDBRANCH   1  24
BRANCH  10  34
ATOM     34  O   UNL d   1     -37.940  15.649  22.705  0.00  0.00    -0.328 OA
ATOM     35  C   UNL d   1     -38.243  15.847  23.452  0.00  0.00     0.181 C 
ENDBRANCH  10  34
TORSDOF 7
ENDMDL
