MODEL 1
REMARK VINA RESULT:      -8.3      0.000      0.000
REMARK  3 active torsions:
REMARK  status: ('A' for Active; 'I' for Inactive)
REMARK    1  A    between atoms: N_2  and  S_1 
REMARK    2  A    between atoms: C_5  and  S_1 
REMARK    3  A    between atoms: C_3  and  N_4 
ROOT
ATOM      1  N   UNL d   1      51.724  33.885  53.066  0.00  0.00    -0.226 N 
ATOM      2  N   UNL d   1      50.340  34.266  52.259  0.00  0.00    -0.134 N 
ATOM      3  C   UNL d   1      50.993  33.693  53.393  0.00  0.00     0.111 A 
ATOM      4  C   UNL d   1      51.763  34.267  52.336  0.00  0.00     0.111 A 
ATOM      5  C   UNL d   1      51.071  34.457  51.933  0.00  0.00     0.118 A 
ATOM      6  C   UNL d   1      50.301  33.884  52.990  0.00  0.00     0.118 A 
ENDROOT
BRANCH   1   7
ATOM      7  S   UNL d   1      52.420  33.689  53.481  0.00  0.00     0.271 S 
ATOM      8  O   UNL d   1      52.278  32.884  53.335  0.00  0.00    -0.200 OA
ATOM      9  O   UNL d   1      52.556  34.500  53.624  0.00  0.00    -0.200 OA
BRANCH   7  10
ATOM     10  C   UNL d   1      53.116  33.501  53.897  0.00  0.00     0.104 A 
ATOM     11  C   UNL d   1      53.297  33.930  54.593  0.00  0.00     0.015 A 
ATOM     12  C   UNL d   1      53.995  33.747  55.016  0.00  0.00     0.030 A 
ATOM     13  C   UNL d   1      54.499  33.142  54.740  0.00  0.00     0.140 A 
ATOM     14  C   UNL d   1      54.313  32.717  54.043  0.00  0.00     0.030 A 
ATOM     15  F   UNL d   1      55.190  32.960  55.158  0.00  0.00    -0.204 F 
ATOM     16  C   UNL d   1      53.612  32.908  53.627  0.00  0.00     0.015 A 
ENDBRANCH   7  10
ENDBRANCH   1   7
BRANCH   2  17
ATOM     17  C   UNL d   1      49.661  34.456  51.857  0.00  0.00     0.735 A 
ATOM     18  N   UNL d   1      49.555  34.212  51.076  0.00  0.00    -0.059 NA
ATOM     19  C   UNL d   1      48.867  34.406  50.672  0.00  0.00     0.120 A 
ATOM     20  C   UNL d   1      48.283  34.846  51.051  0.00  0.00     0.043 A 
ATOM     21  C   UNL d   1      48.389  35.090  51.832  0.00  0.00     0.120 A 
ATOM     22  N   UNL d   1      49.075  34.894  52.227  0.00  0.00    -0.059 NA
ENDBRANCH   2  17
TORSDOF 3
ENDMDL
MODEL 2
REMARK VINA RESULT:      -8.0      2.272      4.929
REMARK  3 active torsions:
REMARK  status: ('A' for Active; 'I' for Inactive)
REMARK    1  A    between atoms: N_2  and  S_1 
REMARK    2  A    between atoms: C_5  and  S_1 
REMARK    3  A    between atoms: C_3  and  N_4 
ROOT
ATOM      1  N   UNL d   1      51.285  34.121  52.871  0.00  0.00    -0.226 N 
ATOM      2  N   UNL d   1      52.700  33.764  53.633  0.00  0.00    -0.134 N 
ATOM      3  C   UNL d   1      51.883  34.686  52.909  0.00  0.00     0.111 A 
ATOM      4  C   UNL d   1      51.394  33.378  53.214  0.00  0.00     0.111 A 
ATOM      5  C   UNL d   1      52.102  33.200  53.594  0.00  0.00     0.118 A 
ATOM      6  C   UNL d   1      52.591  34.506  53.290  0.00  0.00     0.118 A 
ENDROOT
BRANCH   1   7
ATOM      7  S   UNL d   1      50.571  34.309  52.484  0.00  0.00     0.271 S 
ATOM      8  O   UNL d   1      50.920  34.122  51.754  0.00  0.00    -0.200 OA
ATOM      9  O   UNL d   1      50.228  34.496  53.221  0.00  0.00    -0.200 OA
BRANCH   7  10
ATOM     10  C   UNL d   1      49.855  34.500  52.105  0.00  0.00     0.104 A 
ATOM     11  C   UNL d   1      49.261  34.895  52.542  0.00  0.00     0.015 A 
ATOM     12  C   UNL d   1      48.539  35.090  52.168  0.00  0.00     0.030 A 
ATOM     13  C   UNL d   1      48.421  34.888  51.367  0.00  0.00     0.140 A 
ATOM     14  C   UNL d   1      49.019  34.492  50.935  0.00  0.00     0.030 A 
ATOM     15  F   UNL d   1      47.706  35.080  50.995  0.00  0.00    -0.204 F 
ATOM     16  C   UNL d   1      49.737  34.302  51.318  0.00  0.00     0.015 A 
ENDBRANCH   7  10
ENDBRANCH   1   7
BRANCH   2  17
ATOM     17  C   UNL d   1      53.396  33.582  54.009  0.00  0.00     0.735 A 
ATOM     18  N   UNL d   1      53.973  33.131  53.629  0.00  0.00    -0.059 NA
ATOM     19  C   UNL d   1      54.675  32.949  54.013  0.00  0.00     0.120 A 
ATOM     20  C   UNL d   1      54.802  33.220  54.780  0.00  0.00     0.043 A 
ATOM     21  C   UNL d   1      54.226  33.672  55.160  0.00  0.00     0.120 A 
ATOM     22  N   UNL d   1      53.530  33.848  54.773  0.00  0.00    -0.059 NA
ENDBRANCH   2  17
TORSDOF 3
ENDMDL
