MODEL 1
REMARK VINA RESULT:      56.6      0.000      0.000
REMARK  5 active torsions:
REMARK  status: ('A' for Active; 'I' for Inactive)
REMARK    1  A    between atoms: N_2  and  S_1 
REMARK    2  A    between atoms: C_5  and  S_1 
REMARK    3  A    between atoms: S_6  and  C_3 
REMARK    4  A    between atoms: C_15  and  S_6 
REMARK    5  A    between atoms: C_14  and  C_15 
ROOT
ATOM      1  N   UNL d   1     -49.893  26.569  33.553  0.00  0.00    -0.208 N 
ATOM      2  C   UNL d   1     -49.191  26.790  33.938  0.00  0.00     0.189 A 
ATOM      3  N   UNL d   1     -48.678  26.143  33.932  0.00  0.00    -0.219 NA
ATOM      4  C   UNL d   1     -49.810  25.779  33.307  0.00  0.00     0.114 A 
ATOM      5  C   UNL d   1     -49.063  25.522  33.542  0.00  0.00     0.121 A 
ENDROOT
BRANCH   1   6
ATOM      6  S   UNL d   1     -50.555  27.053  33.436  0.00  0.00     0.273 S 
ATOM      7  O   UNL d   1     -51.037  27.714  33.311  0.00  0.00    -0.200 OA
ATOM      8  O   UNL d   1     -50.040  27.687  33.398  0.00  0.00    -0.200 OA
BRANCH   6   9
ATOM      9  C   UNL d   1     -51.090  26.425  33.471  0.00  0.00     0.104 A 
ATOM     10  C   UNL d   1     -51.872  26.576  33.670  0.00  0.00     0.013 A 
ATOM     11  C   UNL d   1     -52.404  25.944  33.704  0.00  0.00     0.001 A 
ATOM     12  C   UNL d   1     -52.152  25.174  33.539  0.00  0.00     0.000 A 
ATOM     13  C   UNL d   1     -51.362  25.034  33.340  0.00  0.00     0.001 A 
ATOM     14  C   UNL d   1     -52.687  24.546  33.574  0.00  0.00     0.000 C 
ATOM     15  C   UNL d   1     -50.830  25.665  33.306  0.00  0.00     0.013 A 
ENDBRANCH   6   9
ENDBRANCH   1   6
BRANCH   2  16
ATOM     16  S   UNL d   1     -49.034  27.535  34.273  0.00  0.00    -0.049 SA
BRANCH  16  17
ATOM     17  C   UNL d   1     -48.304  27.680  34.625  0.00  0.00     0.040 C 
BRANCH  17  18
ATOM     18  C   UNL d   1     -48.182  28.377  35.044  0.00  0.00     0.026 A 
ATOM     19  C   UNL d   1     -48.439  28.437  35.840  0.00  0.00     0.099 A 
ATOM     20  N   UNL d   1     -48.325  29.126  36.271  0.00  0.00    -0.242 NA
ATOM     21  C   UNL d   1     -47.951  29.763  35.906  0.00  0.00     0.099 A 
ATOM     22  C   UNL d   1     -47.697  29.709  35.125  0.00  0.00     0.021 A 
ATOM     23  C   UNL d   1     -47.814  29.016  34.696  0.00  0.00     0.004 A 
ENDBRANCH  17  18
ENDBRANCH  16  17
ENDBRANCH   2  16
TORSDOF 5
ENDMDL
MODEL 2
REMARK VINA RESULT:      59.3      2.196      2.786
REMARK  5 active torsions:
REMARK  status: ('A' for Active; 'I' for Inactive)
REMARK    1  A    between atoms: N_2  and  S_1 
REMARK    2  A    between atoms: C_5  and  S_1 
REMARK    3  A    between atoms: S_6  and  C_3 
REMARK    4  A    between atoms: C_15  and  S_6 
REMARK    5  A    between atoms: C_14  and  C_15 
ROOT
ATOM      1  N   UNL d   1     -50.860  26.589  33.919  0.00  0.00    -0.208 N 
ATOM      2  C   UNL d   1     -50.540  26.688  34.679  0.00  0.00     0.189 A 
ATOM      3  N   UNL d   1     -49.736  26.864  34.599  0.00  0.00    -0.219 NA
ATOM      4  C   UNL d   1     -50.248  26.704  33.368  0.00  0.00     0.114 A 
ATOM      5  C   UNL d   1     -49.560  26.872  33.790  0.00  0.00     0.121 A 
ENDROOT
BRANCH   1   6
ATOM      6  S   UNL d   1     -51.649  26.407  33.745  0.00  0.00     0.273 S 
ATOM      7  O   UNL d   1     -52.462  26.475  33.608  0.00  0.00    -0.200 OA
ATOM      8  O   UNL d   1     -51.816  27.202  33.845  0.00  0.00    -0.200 OA
BRANCH   6   9
ATOM      9  C   UNL d   1     -51.500  25.602  33.641  0.00  0.00     0.104 A 
ATOM     10  C   UNL d   1     -50.746  25.359  33.428  0.00  0.00     0.013 A 
ATOM     11  C   UNL d   1     -50.601  24.551  33.325  0.00  0.00     0.001 A 
ATOM     12  C   UNL d   1     -51.206  23.999  33.435  0.00  0.00     0.000 A 
ATOM     13  C   UNL d   1     -51.962  24.255  33.650  0.00  0.00     0.001 A 
ATOM     14  C   UNL d   1     -51.056  23.193  33.331  0.00  0.00     0.000 C 
ATOM     15  C   UNL d   1     -52.108  25.062  33.753  0.00  0.00     0.013 A 
ENDBRANCH   6   9
ENDBRANCH   1   6
BRANCH   2  16
ATOM     16  S   UNL d   1     -50.957  26.623  35.395  0.00  0.00    -0.049 SA
BRANCH  16  17
ATOM     17  C   UNL d   1     -50.545  26.525  36.101  0.00  0.00     0.040 C 
BRANCH  17  18
ATOM     18  C   UNL d   1     -50.927  26.652  36.819  0.00  0.00     0.026 A 
ATOM     19  C   UNL d   1     -50.851  27.390  37.210  0.00  0.00     0.099 A 
ATOM     20  N   UNL d   1     -51.226  27.531  37.926  0.00  0.00    -0.242 NA
ATOM     21  C   UNL d   1     -51.681  26.930  38.257  0.00  0.00     0.099 A 
ATOM     22  C   UNL d   1     -51.759  26.204  37.879  0.00  0.00     0.021 A 
ATOM     23  C   UNL d   1     -51.381  26.066  37.159  0.00  0.00     0.004 A 
ENDBRANCH  17  18
ENDBRANCH  16  17
ENDBRANCH   2  16
TORSDOF 5
ENDMDL
MODEL 3
REMARK VINA RESULT:      59.4      2.519      2.971
REMARK  5 active torsions:
REMARK  status: ('A' for Active; 'I' for Inactive)
REMARK    1  A    between atoms: N_2  and  S_1 
REMARK    2  A    between atoms: C_5  and  S_1 
REMARK    3  A    between atoms: S_6  and  C_3 
REMARK    4  A    between atoms: C_15  and  S_6 
REMARK    5  A    between atoms: C_14  and  C_15 
ROOT
ATOM      1  N   UNL d   1     -51.352  25.903  33.916  0.00  0.00    -0.208 N 
ATOM      2  C   UNL d   1     -51.491  26.327  34.617  0.00  0.00     0.189 A 
ATOM      3  N   UNL d   1     -52.000  26.954  34.442  0.00  0.00    -0.219 NA
ATOM      4  C   UNL d   1     -51.779  26.272  33.306  0.00  0.00     0.114 A 
ATOM      5  C   UNL d   1     -52.176  26.917  33.634  0.00  0.00     0.121 A 
ENDROOT
BRANCH   1   6
ATOM      6  S   UNL d   1     -50.872  25.231  33.843  0.00  0.00     0.273 S 
ATOM      7  O   UNL d   1     -50.212  24.734  33.813  0.00  0.00    -0.200 OA
ATOM      8  O   UNL d   1     -50.230  25.721  33.975  0.00  0.00    -0.200 OA
BRANCH   6   9
ATOM      9  C   UNL d   1     -51.508  24.722  33.709  0.00  0.00     0.104 A 
ATOM     10  C   UNL d   1     -52.227  25.035  33.467  0.00  0.00     0.013 A 
ATOM     11  C   UNL d   1     -52.861  24.522  33.334  0.00  0.00     0.001 A 
ATOM     12  C   UNL d   1     -52.771  23.707  33.441  0.00  0.00     0.000 A 
ATOM     13  C   UNL d   1     -52.042  23.403  33.685  0.00  0.00     0.001 A 
ATOM     14  C   UNL d   1     -53.407  23.198  33.307  0.00  0.00     0.000 C 
ATOM     15  C   UNL d   1     -51.408  23.916  33.819  0.00  0.00     0.013 A 
ENDBRANCH   6   9
ENDBRANCH   1   6
BRANCH   2  16
ATOM     16  S   UNL d   1     -51.172  26.150  35.364  0.00  0.00    -0.049 SA
BRANCH  16  17
ATOM     17  C   UNL d   1     -50.844  26.751  35.822  0.00  0.00     0.040 C 
BRANCH  17  18
ATOM     18  C   UNL d   1     -50.897  26.717  36.642  0.00  0.00     0.026 A 
ATOM     19  C   UNL d   1     -51.587  26.407  37.004  0.00  0.00     0.099 A 
ATOM     20  N   UNL d   1     -51.655  26.366  37.821  0.00  0.00    -0.242 NA
ATOM     21  C   UNL d   1     -51.029  26.637  38.283  0.00  0.00     0.099 A 
ATOM     22  C   UNL d   1     -50.349  26.941  37.933  0.00  0.00     0.021 A 
ATOM     23  C   UNL d   1     -50.285  26.980  37.112  0.00  0.00     0.004 A 
ENDBRANCH  17  18
ENDBRANCH  16  17
ENDBRANCH   2  16
TORSDOF 5
ENDMDL
