MODEL 1
REMARK VINA RESULT:      33.4      0.000      0.000
REMARK  6 active torsions:
REMARK  status: ('A' for Active; 'I' for Inactive)
REMARK    1  A    between atoms: C_5  and  C_4 
REMARK    2  A    between atoms: C_6  and  C_5 
REMARK       I    between atoms: N_9  and  C_6 
REMARK    3  A    between atoms: C_10  and  N_9 
REMARK    4  A    between atoms: O_14  and  C_13 
REMARK    5  A    between atoms: C_19  and  O_14 
REMARK    6  A    between atoms: C_20  and  C_19 
ROOT
ATOM      1  C   UNL d   1      13.923  12.490  -2.288  0.00  0.00     0.281 C 
ATOM      2  N   UNL d   1      13.238  12.697  -2.661  0.00  0.00    -0.206 NA
ATOM      3  O   UNL d   1      14.561  12.238  -2.729  0.00  0.00    -0.265 OA
ENDROOT
BRANCH   1   4
ATOM      4  C   UNL d   1      13.965  12.537  -1.478  0.00  0.00     0.086 C 
BRANCH   4   5
ATOM      5  C   UNL d   1      14.526  13.022  -1.113  0.00  0.00     0.144 A 
ATOM      6  C   UNL d   1      15.195  12.693  -0.758  0.00  0.00     0.297 A 
ATOM      7  N   UNL d   1      15.759  13.173  -0.391  0.00  0.00    -0.205 NA
ATOM      8  O   UNL d   1      15.315  11.872  -0.763  0.00  0.00    -0.264 OA
ATOM      9  C   UNL d   1      15.641  14.000  -0.384  0.00  0.00     0.102 A 
ATOM     10  C   UNL d   1      14.972  14.330  -0.739  0.00  0.00     0.099 A 
ATOM     11  C   UNL d   1      16.204  14.479  -0.018  0.00  0.00     0.021 A 
ATOM     12  N   UNL d   1      14.409  13.838  -1.106  0.00  0.00    -0.239 NA
ATOM     13  C   UNL d   1      14.855  15.144  -0.733  0.00  0.00     0.021 A 
ATOM     14  C   UNL d   1      15.414  15.625  -0.369  0.00  0.00     0.002 A 
ATOM     15  C   UNL d   1      16.083  15.296  -0.014  0.00  0.00     0.002 A 
ENDBRANCH   4   5
ENDBRANCH   1   4
BRANCH   2  16
ATOM     16  C   UNL d   1      13.074  12.683  -3.587  0.00  0.00     0.107 A 
ATOM     17  C   UNL d   1      13.043  13.339  -4.098  0.00  0.00     0.118 A 
ATOM     18  C   UNL d   1      12.890  13.182  -4.891  0.00  0.00     0.026 A 
ATOM     19  C   UNL d   1      12.770  12.384  -5.179  0.00  0.00     0.002 A 
ATOM     20  C   UNL d   1      12.808  11.782  -4.660  0.00  0.00     0.002 A 
ATOM     21  C   UNL d   1      12.958  11.916  -3.864  0.00  0.00     0.021 A 
BRANCH  17  22
ATOM     22  O   UNL d   1      13.158  14.126  -3.838  0.00  0.00    -0.304 OA
BRANCH  22  23
ATOM     23  C   UNL d   1      13.667  14.631  -4.259  0.00  0.00     0.123 C 
BRANCH  23  24
ATOM     24  C   UNL d   1      13.697  15.468  -4.098  0.00  0.00     0.027 C 
ATOM     25  C   UNL d   1      14.406  15.915  -4.163  0.00  0.00     0.002 C 
ENDBRANCH  23  24
ENDBRANCH  22  23
ENDBRANCH  17  22
ENDBRANCH   2  16
TORSDOF 6
ENDMDL
