MODEL 1
REMARK VINA RESULT:      14.5      0.000      0.000
REMARK  7 active torsions:
REMARK  status: ('A' for Active; 'I' for Inactive)
REMARK    1  A    between atoms: C_4  and  C_1 
REMARK    2  A    between atoms: N_5  and  C_2 
REMARK    3  A    between atoms: C_15  and  C_4 
REMARK    4  A    between atoms: C_9  and  C_13 
REMARK    5  A    between atoms: O_21  and  C_9 
REMARK    6  A    between atoms: C_25  and  C_20 
REMARK    7  A    between atoms: C_26  and  O_21 
ROOT
ATOM      1  C   UNL d   1     -41.547-121.827 -51.042  0.00  0.00     0.074 A 
ATOM      2  C   UNL d   1     -41.541-121.384 -51.745  0.00  0.00     0.070 A 
ATOM      3  C   UNL d   1     -41.402-120.573 -51.721  0.00  0.00     0.034 A 
ATOM      4  C   UNL d   1     -41.414-121.451 -50.320  0.00  0.00     0.103 A 
ATOM      5  N   UNL d   1     -41.275-120.632 -50.301  0.00  0.00    -0.244 NA
ATOM      6  C   UNL d   1     -41.269-120.197 -50.999  0.00  0.00     0.083 A 
ATOM      7  C   UNL d   1     -41.397-120.138 -52.421  0.00  0.00     0.003 A 
ATOM      8  C   UNL d   1     -41.131-119.386 -50.976  0.00  0.00     0.019 A 
ATOM      9  C   UNL d   1     -41.257-119.322 -52.399  0.00  0.00     0.000 A 
ATOM     10  C   UNL d   1     -41.124-118.946 -51.677  0.00  0.00     0.002 A 
ENDROOT
BRANCH   2  11
ATOM     11  N   UNL d   1     -41.676-121.765 -52.478  0.00  0.00    -0.304 N 
ATOM     12  C   UNL d   1     -41.125-122.303 -52.772  0.00  0.00     0.080 A 
ATOM     13  C   UNL d   1     -41.258-122.679 -53.494  0.00  0.00     0.024 A 
ATOM     14  C   UNL d   1     -41.942-122.517 -53.922  0.00  0.00     0.067 A 
ATOM     15  C   UNL d   1     -42.497-121.978 -53.630  0.00  0.00     0.024 A 
ATOM     16  C   UNL d   1     -42.364-121.603 -52.908  0.00  0.00     0.080 A 
BRANCH  14  17
ATOM     17  C   UNL d   1     -42.067-122.898 -54.644  0.00  0.00     0.300 C 
ATOM     18  O   UNL d   1     -42.633-123.496 -54.711  0.00  0.00    -0.259 OA
BRANCH  17  19
ATOM     19  O   UNL d   1     -41.622-122.676 -55.301  0.00  0.00    -0.271 OA
BRANCH  19  20
ATOM     20  C   UNL d   1     -41.988-122.477 -56.013  0.00  0.00     0.126 C 
ATOM     21  C   UNL d   1     -41.553-122.174 -56.647  0.00  0.00     0.029 C 
ENDBRANCH  19  20
ENDBRANCH  17  19
ENDBRANCH  14  17
ENDBRANCH   2  11
BRANCH   1  22
ATOM     22  C   UNL d   1     -41.687-122.642 -51.064  0.00  0.00     0.198 C 
ATOM     23  O   UNL d   1     -41.523-123.077 -51.746  0.00  0.00    -0.286 OA
BRANCH  22  24
ATOM     24  C   UNL d   1     -41.991-123.025 -50.401  0.00  0.00     0.039 A 
ATOM     25  C   UNL d   1     -41.484-123.434 -49.895  0.00  0.00     0.003 A 
ATOM     26  C   UNL d   1     -41.789-123.816 -49.233  0.00  0.00     0.000 A 
ATOM     27  C   UNL d   1     -42.600-123.790 -49.077  0.00  0.00     0.000 A 
ATOM     28  C   UNL d   1     -43.111-123.382 -49.581  0.00  0.00     0.000 A 
ATOM     29  C   UNL d   1     -42.800-122.997 -50.248  0.00  0.00     0.003 A 
ENDBRANCH  22  24
ENDBRANCH   1  22
BRANCH   9  30
ATOM     30  C   UNL d   1     -41.252-118.883 -53.105  0.00  0.00     0.000 C 
ATOM     31  C   UNL d   1     -41.161-118.063 -53.073  0.00  0.00     0.000 C 
ENDBRANCH   9  30
TORSDOF 7
ENDMDL
MODEL 2
REMARK VINA RESULT:      15.5      1.513      3.403
REMARK  7 active torsions:
REMARK  status: ('A' for Active; 'I' for Inactive)
REMARK    1  A    between atoms: C_4  and  C_1 
REMARK    2  A    between atoms: N_5  and  C_2 
REMARK    3  A    between atoms: C_15  and  C_4 
REMARK    4  A    between atoms: C_9  and  C_13 
REMARK    5  A    between atoms: O_21  and  C_9 
REMARK    6  A    between atoms: C_25  and  C_20 
REMARK    7  A    between atoms: C_26  and  O_21 
ROOT
ATOM      1  C   UNL d   1     -42.096-122.602 -51.483  0.00  0.00     0.074 A 
ATOM      2  C   UNL d   1     -41.848-122.190 -52.161  0.00  0.00     0.070 A 
ATOM      3  C   UNL d   1     -41.734-122.592 -52.870  0.00  0.00     0.034 A 
ATOM      4  C   UNL d   1     -42.227-123.415 -51.523  0.00  0.00     0.103 A 
ATOM      5  N   UNL d   1     -42.110-123.817 -52.240  0.00  0.00    -0.244 NA
ATOM      6  C   UNL d   1     -41.865-123.406 -52.909  0.00  0.00     0.083 A 
ATOM      7  C   UNL d   1     -41.488-122.180 -53.539  0.00  0.00     0.003 A 
ATOM      8  C   UNL d   1     -41.750-123.807 -53.619  0.00  0.00     0.019 A 
ATOM      9  C   UNL d   1     -41.372-122.582 -54.253  0.00  0.00     0.000 A 
ATOM     10  C   UNL d   1     -41.503-123.396 -54.293  0.00  0.00     0.002 A 
ENDROOT
BRANCH   2  11
ATOM     11  N   UNL d   1     -41.715-121.364 -52.120  0.00  0.00    -0.304 N 
ATOM     12  C   UNL d   1     -41.254-121.049 -51.514  0.00  0.00     0.080 A 
ATOM     13  C   UNL d   1     -41.123-120.236 -51.474  0.00  0.00     0.024 A 
ATOM     14  C   UNL d   1     -41.453-119.737 -52.040  0.00  0.00     0.067 A 
ATOM     15  C   UNL d   1     -41.915-120.051 -52.650  0.00  0.00     0.024 A 
ATOM     16  C   UNL d   1     -42.046-120.864 -52.690  0.00  0.00     0.080 A 
BRANCH  14  17
ATOM     17  C   UNL d   1     -41.316-118.925 -51.993  0.00  0.00     0.300 C 
ATOM     18  O   UNL d   1     -41.165-118.565 -51.264  0.00  0.00    -0.259 OA
BRANCH  17  19
ATOM     19  O   UNL d   1     -41.333-118.471 -52.680  0.00  0.00    -0.271 OA
BRANCH  19  20
ATOM     20  C   UNL d   1     -41.126-117.672 -52.665  0.00  0.00     0.126 C 
ATOM     21  C   UNL d   1     -41.264-117.183 -53.318  0.00  0.00     0.029 C 
ENDBRANCH  19  20
ENDBRANCH  17  19
ENDBRANCH  14  17
ENDBRANCH   2  11
BRANCH   1  22
ATOM     22  C   UNL d   1     -42.211-122.199 -50.769  0.00  0.00     0.198 C 
ATOM     23  O   UNL d   1     -42.649-121.500 -50.749  0.00  0.00    -0.286 OA
BRANCH  22  24
ATOM     24  C   UNL d   1     -41.888-122.496 -50.073  0.00  0.00     0.039 A 
ATOM     25  C   UNL d   1     -41.918-122.047 -49.382  0.00  0.00     0.003 A 
ATOM     26  C   UNL d   1     -41.595-122.346 -48.686  0.00  0.00     0.000 A 
ATOM     27  C   UNL d   1     -41.241-123.092 -48.681  0.00  0.00     0.000 A 
ATOM     28  C   UNL d   1     -41.208-123.545 -49.370  0.00  0.00     0.000 A 
ATOM     29  C   UNL d   1     -41.535-123.241 -50.071  0.00  0.00     0.003 A 
ENDBRANCH  22  24
ENDBRANCH   1  22
BRANCH   9  30
ATOM     30  C   UNL d   1     -41.124-122.166 -54.930  0.00  0.00     0.000 C 
ATOM     31  C   UNL d   1     -41.638-122.088 -55.570  0.00  0.00     0.000 C 
ENDBRANCH   9  30
TORSDOF 7
ENDMDL
