MODEL 1
REMARK VINA RESULT:      -3.2      0.000      0.000
REMARK  5 active torsions:
REMARK  status: ('A' for Active; 'I' for Inactive)
REMARK    1  A    between atoms: C_3  and  C_1 
REMARK    2  A    between atoms: C_5  and  C_3 
REMARK    3  A    between atoms: C_13  and  C_5 
REMARK    4  A    between atoms: C_10  and  C_11 
REMARK    5  A    between atoms: O_16  and  C_10 
ROOT
ATOM      1  C   UNL d   1      32.974  19.328 -23.352  0.00  0.00     0.092 C 
ATOM      2  C   UNL d   1      33.106  19.861 -23.971  0.00  0.00     0.103 C 
ATOM      3  N   UNL d   1      33.236  20.389 -24.592  0.00  0.00    -0.191 NA
ENDROOT
BRANCH   1   4
ATOM      4  C   UNL d   1      32.578  18.619 -23.496  0.00  0.00     0.120 A 
ATOM      5  N   UNL d   1      31.867  18.541 -23.917  0.00  0.00    -0.238 NA
ATOM      6  C   UNL d   1      31.669  17.735 -23.926  0.00  0.00     0.088 A 
ATOM      7  C   UNL d   1      31.031  17.334 -24.259  0.00  0.00     0.020 A 
ATOM      8  C   UNL d   1      32.254  17.325 -23.514  0.00  0.00     0.049 A 
ATOM      9  C   UNL d   1      30.981  16.512 -24.176  0.00  0.00     0.002 A 
ATOM     10  C   UNL d   1      31.562  16.096 -23.765  0.00  0.00     0.001 A 
ATOM     11  C   UNL d   1      32.199  16.496 -23.433  0.00  0.00     0.008 A 
ATOM     12  S   UNL d   1      32.814  17.872 -23.249  0.00  0.00    -0.066 SA
ENDBRANCH   1   4
BRANCH   1  13
ATOM     13  C   UNL d   1      33.241  19.514 -22.596  0.00  0.00     0.012 C 
BRANCH  13  14
ATOM     14  C   UNL d   1      32.994  20.205 -22.227  0.00  0.00     0.001 A 
ATOM     15  C   UNL d   1      33.217  20.934 -22.524  0.00  0.00     0.000 A 
ATOM     16  C   UNL d   1      32.971  21.630 -22.156  0.00  0.00     0.005 A 
ATOM     17  C   UNL d   1      32.495  21.594 -21.482  0.00  0.00     0.063 A 
ATOM     18  C   UNL d   1      32.266  20.865 -21.177  0.00  0.00     0.005 A 
ATOM     19  C   UNL d   1      32.514  20.164 -21.547  0.00  0.00     0.000 A 
BRANCH  17  20
ATOM     20  C   UNL d   1      32.249  22.291 -21.115  0.00  0.00     0.296 C 
ATOM     21  O   UNL d   1      31.852  22.873 -21.556  0.00  0.00    -0.259 OA
BRANCH  20  22
ATOM     22  O   UNL d   1      32.396  22.409 -20.314  0.00  0.00    -0.296 OA
ATOM     23  C   UNL d   1      32.367  23.173 -19.997  0.00  0.00     0.185 C 
ENDBRANCH  20  22
ENDBRANCH  17  20
ENDBRANCH  13  14
ENDBRANCH   1  13
TORSDOF 5
ENDMDL
MODEL 2
REMARK VINA RESULT:      -1.1      2.633      4.273
REMARK  5 active torsions:
REMARK  status: ('A' for Active; 'I' for Inactive)
REMARK    1  A    between atoms: C_3  and  C_1 
REMARK    2  A    between atoms: C_5  and  C_3 
REMARK    3  A    between atoms: C_13  and  C_5 
REMARK    4  A    between atoms: C_10  and  C_11 
REMARK    5  A    between atoms: O_16  and  C_10 
ROOT
ATOM      1  C   UNL d   1      30.739  16.067 -24.077  0.00  0.00     0.092 C 
ATOM      2  C   UNL d   1      31.278  15.760 -23.529  0.00  0.00     0.103 C 
ATOM      3  N   UNL d   1      31.811  15.453 -22.979  0.00  0.00    -0.191 NA
ENDROOT
BRANCH   1   4
ATOM      4  C   UNL d   1      29.928  15.978 -23.954  0.00  0.00     0.120 A 
ATOM      5  N   UNL d   1      29.369  15.804 -24.541  0.00  0.00    -0.238 NA
ATOM      6  C   UNL d   1      28.625  15.765 -24.174  0.00  0.00     0.088 A 
ATOM      7  C   UNL d   1      27.875  15.613 -24.478  0.00  0.00     0.020 A 
ATOM      8  C   UNL d   1      28.731  15.914 -23.370  0.00  0.00     0.049 A 
ATOM      9  C   UNL d   1      27.224  15.610 -23.967  0.00  0.00     0.002 A 
ATOM     10  C   UNL d   1      27.322  15.758 -23.162  0.00  0.00     0.001 A 
ATOM     11  C   UNL d   1      28.071  15.910 -22.859  0.00  0.00     0.008 A 
ATOM     12  S   UNL d   1      29.536  16.045 -23.236  0.00  0.00    -0.066 SA
ENDBRANCH   1   4
BRANCH   1  13
ATOM     13  C   UNL d   1      31.021  16.459 -24.744  0.00  0.00     0.012 C 
BRANCH  13  14
ATOM     14  C   UNL d   1      31.494  17.126 -24.663  0.00  0.00     0.001 A 
ATOM     15  C   UNL d   1      32.302  17.050 -24.562  0.00  0.00     0.000 A 
ATOM     16  C   UNL d   1      32.780  17.717 -24.480  0.00  0.00     0.005 A 
ATOM     17  C   UNL d   1      32.443  18.471 -24.501  0.00  0.00     0.063 A 
ATOM     18  C   UNL d   1      31.630  18.556 -24.602  0.00  0.00     0.005 A 
ATOM     19  C   UNL d   1      31.149  17.885 -24.684  0.00  0.00     0.000 A 
BRANCH  17  20
ATOM     20  C   UNL d   1      32.921  19.139 -24.419  0.00  0.00     0.296 C 
ATOM     21  O   UNL d   1      33.239  19.503 -25.094  0.00  0.00    -0.259 OA
BRANCH  20  22
ATOM     22  O   UNL d   1      33.082  19.442 -23.671  0.00  0.00    -0.296 OA
ATOM     23  C   UNL d   1      33.240  20.249 -23.579  0.00  0.00     0.185 C 
ENDBRANCH  20  22
ENDBRANCH  17  20
ENDBRANCH  13  14
ENDBRANCH   1  13
TORSDOF 5
ENDMDL
MODEL 3
REMARK VINA RESULT:      -1.1      1.742      2.212
REMARK  5 active torsions:
REMARK  status: ('A' for Active; 'I' for Inactive)
REMARK    1  A    between atoms: C_3  and  C_1 
REMARK    2  A    between atoms: C_5  and  C_3 
REMARK    3  A    between atoms: C_13  and  C_5 
REMARK    4  A    between atoms: C_10  and  C_11 
REMARK    5  A    between atoms: O_16  and  C_10 
ROOT
ATOM      1  C   UNL d   1      32.808  18.315 -23.562  0.00  0.00     0.092 C 
ATOM      2  C   UNL d   1      32.996  18.321 -22.757  0.00  0.00     0.103 C 
ATOM      3  N   UNL d   1      33.180  18.323 -21.952  0.00  0.00    -0.191 NA
ENDROOT
BRANCH   1   4
ATOM      4  C   UNL d   1      32.193  17.840 -23.840  0.00  0.00     0.120 A 
ATOM      5  N   UNL d   1      31.386  17.961 -23.690  0.00  0.00    -0.238 NA
ATOM      6  C   UNL d   1      30.967  17.356 -24.073  0.00  0.00     0.088 A 
ATOM      7  C   UNL d   1      30.160  17.196 -24.118  0.00  0.00     0.020 A 
ATOM      8  C   UNL d   1      31.514  16.870 -24.453  0.00  0.00     0.049 A 
ATOM      9  C   UNL d   1      29.900  16.539 -24.549  0.00  0.00     0.002 A 
ATOM     10  C   UNL d   1      30.442  16.049 -24.932  0.00  0.00     0.001 A 
ATOM     11  C   UNL d   1      31.247  16.209 -24.888  0.00  0.00     0.008 A 
ATOM     12  S   UNL d   1      32.270  17.170 -24.308  0.00  0.00    -0.066 SA
ENDBRANCH   1   4
BRANCH   1  13
ATOM     13  C   UNL d   1      33.239  18.787 -24.081  0.00  0.00     0.012 C 
BRANCH  13  14
ATOM     14  C   UNL d   1      33.224  19.604 -24.009  0.00  0.00     0.001 A 
ATOM     15  C   UNL d   1      33.195  20.078 -24.675  0.00  0.00     0.000 A 
ATOM     16  C   UNL d   1      33.179  20.900 -24.606  0.00  0.00     0.005 A 
ATOM     17  C   UNL d   1      33.192  21.251 -23.859  0.00  0.00     0.063 A 
ATOM     18  C   UNL d   1      33.221  20.782 -23.183  0.00  0.00     0.005 A 
ATOM     19  C   UNL d   1      33.237  19.955 -23.252  0.00  0.00     0.000 A 
BRANCH  17  20
ATOM     20  C   UNL d   1      33.176  22.073 -23.790  0.00  0.00     0.296 C 
ATOM     21  O   UNL d   1      33.180  22.425 -23.037  0.00  0.00    -0.259 OA
BRANCH  20  22
ATOM     22  O   UNL d   1      33.156  22.544 -24.465  0.00  0.00    -0.296 OA
ATOM     23  C   UNL d   1      32.928  23.337 -24.408  0.00  0.00     0.185 C 
ENDBRANCH  20  22
ENDBRANCH  17  20
ENDBRANCH  13  14
ENDBRANCH   1  13
TORSDOF 5
ENDMDL
