MODEL 1
REMARK VINA RESULT:      -6.6      0.000      0.000
REMARK  4 active torsions:
REMARK  status: ('A' for Active; 'I' for Inactive)
REMARK    1  A    between atoms: C_5  and  N_1 
REMARK    2  A    between atoms: C_7  and  C_3 
REMARK    3  A    between atoms: C_8  and  C_4 
REMARK    4  A    between atoms: N_10  and  C_5 
ROOT
ATOM      1  N   UNL d   1     -48.748  12.794  22.786  0.00  0.00    -0.203 N 
ATOM      2  N   UNL d   1     -47.995  12.467  22.676  0.00  0.00    -0.163 NA
ATOM      3  C   UNL d   1     -47.445  13.055  22.622  0.00  0.00     0.103 A 
ATOM      4  C   UNL d   1     -48.670  13.625  22.802  0.00  0.00     0.087 A 
ATOM      5  C   UNL d   1     -47.866  13.793  22.701  0.00  0.00     0.040 A 
ENDROOT
BRANCH   3   6
ATOM      6  C   UNL d   1     -46.627  12.937  22.509  0.00  0.00     0.019 A 
ATOM      7  C   UNL d   1     -46.219  12.372  22.947  0.00  0.00     0.002 A 
ATOM      8  C   UNL d   1     -45.399  12.268  22.821  0.00  0.00     0.000 A 
ATOM      9  C   UNL d   1     -45.009  12.724  22.267  0.00  0.00     0.000 A 
ATOM     10  C   UNL d   1     -45.435  13.286  21.837  0.00  0.00     0.000 A 
ATOM     11  C   UNL d   1     -44.036  12.564  22.153  0.00  0.00     0.000 C 
ATOM     12  C   UNL d   1     -46.229  13.391  21.955  0.00  0.00     0.002 A 
ENDBRANCH   3   6
BRANCH   1  13
ATOM     13  C   UNL d   1     -49.471  12.370  22.869  0.00  0.00     0.222 C 
ATOM     14  S   UNL d   1     -49.908  12.164  22.173  0.00  0.00    -0.037 SA
BRANCH  13  15
ATOM     15  N   UNL d   1     -49.769  12.147  23.629  0.00  0.00    -0.214 NA
ATOM     16  C   UNL d   1     -50.299  11.509  23.697  0.00  0.00     0.122 C 
ENDBRANCH  13  15
ENDBRANCH   1  13
BRANCH   4  17
ATOM     17  C   UNL d   1     -49.259  14.198  22.898  0.00  0.00     0.018 A 
ATOM     18  C   UNL d   1     -49.801  14.351  22.301  0.00  0.00     0.002 A 
ATOM     19  C   UNL d   1     -50.386  14.922  22.398  0.00  0.00     0.007 A 
ATOM     20  C   UNL d   1     -50.428  15.344  23.102  0.00  0.00     0.035 A 
ATOM     21  C   UNL d   1     -49.904  15.204  23.694  0.00  0.00     0.007 A 
ATOM     22 BR   UNL d   1     -51.032  15.921  23.181  0.00  0.00    -0.049 Br
ATOM     23  C   UNL d   1     -49.315  14.631  23.598  0.00  0.00     0.002 A 
ENDBRANCH   4  17
TORSDOF 4
ENDMDL
MODEL 2
REMARK VINA RESULT:      -6.1      1.079      1.542
REMARK  4 active torsions:
REMARK  status: ('A' for Active; 'I' for Inactive)
REMARK    1  A    between atoms: C_5  and  N_1 
REMARK    2  A    between atoms: C_7  and  C_3 
REMARK    3  A    between atoms: C_8  and  C_4 
REMARK    4  A    between atoms: N_10  and  C_5 
ROOT
ATOM      1  N   UNL d   1     -48.317  12.071  23.039  0.00  0.00    -0.203 N 
ATOM      2  N   UNL d   1     -47.695  11.532  23.128  0.00  0.00    -0.163 NA
ATOM      3  C   UNL d   1     -46.992  11.925  23.154  0.00  0.00     0.103 A 
ATOM      4  C   UNL d   1     -47.993  12.839  23.008  0.00  0.00     0.087 A 
ATOM      5  C   UNL d   1     -47.172  12.757  23.078  0.00  0.00     0.040 A 
ENDROOT
BRANCH   3   6
ATOM      6  C   UNL d   1     -46.244  11.566  23.239  0.00  0.00     0.019 A 
ATOM      7  C   UNL d   1     -46.166  10.841  23.621  0.00  0.00     0.002 A 
ATOM      8  C   UNL d   1     -45.408  10.496  23.697  0.00  0.00     0.000 A 
ATOM      9  C   UNL d   1     -44.753  10.877  23.393  0.00  0.00     0.000 A 
ATOM     10  C   UNL d   1     -44.850  11.602  23.013  0.00  0.00     0.000 A 
ATOM     11  C   UNL d   1     -43.876  10.427  23.508  0.00  0.00     0.000 C 
ATOM     12  C   UNL d   1     -45.581  11.942  22.936  0.00  0.00     0.002 A 
ENDBRANCH   3   6
BRANCH   1  13
ATOM     13  C   UNL d   1     -49.138  11.885  22.989  0.00  0.00     0.222 C 
ATOM     14  S   UNL d   1     -49.500  11.833  22.225  0.00  0.00    -0.037 SA
BRANCH  13  15
ATOM     15  N   UNL d   1     -49.604  11.751  23.682  0.00  0.00    -0.214 NA
ATOM     16  C   UNL d   1     -50.380  11.457  23.610  0.00  0.00     0.122 C 
ENDBRANCH  13  15
ENDBRANCH   1  13
BRANCH   4  17
ATOM     17  C   UNL d   1     -48.383  13.563  22.924  0.00  0.00     0.018 A 
ATOM     18  C   UNL d   1     -48.612  13.999  23.581  0.00  0.00     0.002 A 
ATOM     19  C   UNL d   1     -49.001  14.719  23.496  0.00  0.00     0.007 A 
ATOM     20  C   UNL d   1     -49.162  15.006  22.743  0.00  0.00     0.035 A 
ATOM     21  C   UNL d   1     -48.944  14.590  22.092  0.00  0.00     0.007 A 
ATOM     22 BR   UNL d   1     -49.560  15.743  22.678  0.00  0.00    -0.049 Br
ATOM     23  C   UNL d   1     -48.553  13.866  22.176  0.00  0.00     0.002 A 
ENDBRANCH   4  17
TORSDOF 4
ENDMDL
MODEL 3
REMARK VINA RESULT:      -5.9      7.956      9.860
REMARK  4 active torsions:
REMARK  status: ('A' for Active; 'I' for Inactive)
REMARK    1  A    between atoms: C_5  and  N_1 
REMARK    2  A    between atoms: C_7  and  C_3 
REMARK    3  A    between atoms: C_8  and  C_4 
REMARK    4  A    between atoms: N_10  and  C_5 
ROOT
ATOM      1  N   UNL d   1     -40.089  14.585  19.992  0.00  0.00    -0.203 N 
ATOM      2  N   UNL d   1     -40.038  14.520  19.168  0.00  0.00    -0.163 NA
ATOM      3  C   UNL d   1     -39.301  14.271  18.956  0.00  0.00     0.103 A 
ATOM      4  C   UNL d   1     -39.351  14.367  20.315  0.00  0.00     0.087 A 
ATOM      5  C   UNL d   1     -38.858  14.172  19.680  0.00  0.00     0.040 A 
ENDROOT
BRANCH   3   6
ATOM      6  C   UNL d   1     -39.045  14.143  18.173  0.00  0.00     0.019 A 
ATOM      7  C   UNL d   1     -38.877  13.384  17.904  0.00  0.00     0.002 A 
ATOM      8  C   UNL d   1     -38.621  13.275  17.115  0.00  0.00     0.000 A 
ATOM      9  C   UNL d   1     -38.540  13.918  16.618  0.00  0.00     0.000 A 
ATOM     10  C   UNL d   1     -38.713  14.672  16.906  0.00  0.00     0.000 A 
ATOM     11  C   UNL d   1     -38.234  13.738  15.692  0.00  0.00     0.000 C 
ATOM     12  C   UNL d   1     -38.961  14.785  17.669  0.00  0.00     0.002 A 
ENDBRANCH   3   6
BRANCH   1  13
ATOM     13  C   UNL d   1     -40.763  14.827  20.435  0.00  0.00     0.222 C 
ATOM     14  S   UNL d   1     -41.316  14.240  20.695  0.00  0.00    -0.037 SA
BRANCH  13  15
ATOM     15  N   UNL d   1     -40.899  15.640  20.625  0.00  0.00    -0.214 NA
ATOM     16  C   UNL d   1     -41.677  15.922  20.717  0.00  0.00     0.122 C 
ENDBRANCH  13  15
ENDBRANCH   1  13
BRANCH   4  17
ATOM     17  C   UNL d   1     -39.121  14.340  21.109  0.00  0.00     0.018 A 
ATOM     18  C   UNL d   1     -38.758  14.984  21.466  0.00  0.00     0.002 A 
ATOM     19  C   UNL d   1     -38.530  14.956  22.257  0.00  0.00     0.007 A 
ATOM     20  C   UNL d   1     -38.668  14.274  22.694  0.00  0.00     0.035 A 
ATOM     21  C   UNL d   1     -39.022  13.638  22.357  0.00  0.00     0.007 A 
ATOM     22 BR   UNL d   1     -38.428  14.267  23.498  0.00  0.00    -0.049 Br
ATOM     23  C   UNL d   1     -39.252  13.664  21.563  0.00  0.00     0.002 A 
ENDBRANCH   4  17
TORSDOF 4
ENDMDL
MODEL 4
REMARK VINA RESULT:      -5.8      1.937      2.743
REMARK  4 active torsions:
REMARK  status: ('A' for Active; 'I' for Inactive)
REMARK    1  A    between atoms: C_5  and  N_1 
REMARK    2  A    between atoms: C_7  and  C_3 
REMARK    3  A    between atoms: C_8  and  C_4 
REMARK    4  A    between atoms: N_10  and  C_5 
ROOT
ATOM      1  N   UNL d   1     -47.142  12.780  22.746  0.00  0.00    -0.203 N 
ATOM      2  N   UNL d   1     -46.360  12.517  22.820  0.00  0.00    -0.163 NA
ATOM      3  C   UNL d   1     -46.351  11.752  23.073  0.00  0.00     0.103 A 
ATOM      4  C   UNL d   1     -47.649  12.154  22.962  0.00  0.00     0.087 A 
ATOM      5  C   UNL d   1     -47.165  11.513  23.166  0.00  0.00     0.040 A 
ENDROOT
BRANCH   3   6
ATOM      6  C   UNL d   1     -45.662  11.301  23.211  0.00  0.00     0.019 A 
ATOM      7  C   UNL d   1     -45.708  10.560  23.568  0.00  0.00     0.002 A 
ATOM      8  C   UNL d   1     -45.008  10.123  23.698  0.00  0.00     0.000 A 
ATOM      9  C   UNL d   1     -44.285  10.431  23.472  0.00  0.00     0.000 A 
ATOM     10  C   UNL d   1     -44.259  11.174  23.115  0.00  0.00     0.000 A 
ATOM     11  C   UNL d   1     -43.483   9.874  23.647  0.00  0.00     0.000 C 
ATOM     12  C   UNL d   1     -44.934  11.603  22.986  0.00  0.00     0.002 A 
ENDBRANCH   3   6
BRANCH   1  13
ATOM     13  C   UNL d   1     -47.391  13.546  22.496  0.00  0.00     0.222 C 
ATOM     14  S   UNL d   1     -47.586  13.668  21.681  0.00  0.00    -0.037 SA
BRANCH  13  15
ATOM     15  N   UNL d   1     -47.450  14.191  23.040  0.00  0.00    -0.214 NA
ATOM     16  C   UNL d   1     -47.551  14.967  22.756  0.00  0.00     0.122 C 
ENDBRANCH  13  15
ENDBRANCH   1  13
BRANCH   4  17
ATOM     17  C   UNL d   1     -48.475  12.139  22.981  0.00  0.00     0.018 A 
ATOM     18  C   UNL d   1     -48.884  12.272  23.680  0.00  0.00     0.002 A 
ATOM     19  C   UNL d   1     -49.707  12.258  23.697  0.00  0.00     0.007 A 
ATOM     20  C   UNL d   1     -50.124  12.108  23.005  0.00  0.00     0.035 A 
ATOM     21  C   UNL d   1     -49.736  11.976  22.314  0.00  0.00     0.007 A 
ATOM     22 BR   UNL d   1     -50.963  12.097  23.044  0.00  0.00    -0.049 Br
ATOM     23  C   UNL d   1     -48.910  11.991  22.296  0.00  0.00     0.002 A 
ENDBRANCH   4  17
TORSDOF 4
ENDMDL
MODEL 5
REMARK VINA RESULT:      -5.2      1.507      2.330
REMARK  4 active torsions:
REMARK  status: ('A' for Active; 'I' for Inactive)
REMARK    1  A    between atoms: C_5  and  N_1 
REMARK    2  A    between atoms: C_7  and  C_3 
REMARK    3  A    between atoms: C_8  and  C_4 
REMARK    4  A    between atoms: N_10  and  C_5 
ROOT
ATOM      1  N   UNL d   1     -47.862  13.779  22.542  0.00  0.00    -0.203 N 
ATOM      2  N   UNL d   1     -47.045  13.817  22.416  0.00  0.00    -0.163 NA
ATOM      3  C   UNL d   1     -46.728  13.076  22.438  0.00  0.00     0.103 A 
ATOM      4  C   UNL d   1     -48.072  12.979  22.649  0.00  0.00     0.087 A 
ATOM      5  C   UNL d   1     -47.374  12.537  22.586  0.00  0.00     0.040 A 
ENDROOT
BRANCH   3   6
ATOM      6  C   UNL d   1     -45.921  12.896  22.333  0.00  0.00     0.019 A 
ATOM      7  C   UNL d   1     -45.458  13.326  21.805  0.00  0.00     0.002 A 
ATOM      8  C   UNL d   1     -44.650  13.131  21.713  0.00  0.00     0.000 A 
ATOM      9  C   UNL d   1     -44.325  12.519  22.146  0.00  0.00     0.000 A 
ATOM     10  C   UNL d   1     -44.804  12.099  22.670  0.00  0.00     0.000 A 
ATOM     11  C   UNL d   1     -43.363  12.326  22.002  0.00  0.00     0.000 C 
ATOM     12  C   UNL d   1     -45.587  12.283  22.764  0.00  0.00     0.002 A 
ENDBRANCH   3   6
BRANCH   1  13
ATOM     13  C   UNL d   1     -48.397  14.431  22.562  0.00  0.00     0.222 C 
ATOM     14  S   UNL d   1     -48.756  14.688  21.839  0.00  0.00    -0.037 SA
BRANCH  13  15
ATOM     15  N   UNL d   1     -48.582  14.830  23.284  0.00  0.00    -0.214 NA
ATOM     16  C   UNL d   1     -48.953  15.575  23.265  0.00  0.00     0.122 C 
ENDBRANCH  13  15
ENDBRANCH   1  13
BRANCH   4  17
ATOM     17  C   UNL d   1     -48.818  12.654  22.793  0.00  0.00     0.018 A 
ATOM     18  C   UNL d   1     -49.059  12.467  23.555  0.00  0.00     0.002 A 
ATOM     19  C   UNL d   1     -49.803  12.144  23.696  0.00  0.00     0.007 A 
ATOM     20  C   UNL d   1     -50.311  12.006  23.065  0.00  0.00     0.035 A 
ATOM     21  C   UNL d   1     -50.088  12.184  22.314  0.00  0.00     0.007 A 
ATOM     22 BR   UNL d   1     -51.064  11.676  23.231  0.00  0.00    -0.049 Br
ATOM     23  C   UNL d   1     -49.341  12.509  22.171  0.00  0.00     0.002 A 
ENDBRANCH   4  17
TORSDOF 4
ENDMDL
MODEL 6
REMARK VINA RESULT:      -4.4      8.136     10.056
REMARK  4 active torsions:
REMARK  status: ('A' for Active; 'I' for Inactive)
REMARK    1  A    between atoms: C_5  and  N_1 
REMARK    2  A    between atoms: C_7  and  C_3 
REMARK    3  A    between atoms: C_8  and  C_4 
REMARK    4  A    between atoms: N_10  and  C_5 
ROOT
ATOM      1  N   UNL d   1     -38.841  14.796  19.463  0.00  0.00    -0.203 N 
ATOM      2  N   UNL d   1     -38.421  14.609  18.774  0.00  0.00    -0.163 NA
ATOM      3  C   UNL d   1     -38.931  14.515  18.157  0.00  0.00     0.103 A 
ATOM      4  C   UNL d   1     -39.654  14.821  19.272  0.00  0.00     0.087 A 
ATOM      5  C   UNL d   1     -39.716  14.648  18.465  0.00  0.00     0.040 A 
ENDROOT
BRANCH   3   6
ATOM      6  C   UNL d   1     -38.709  14.325  17.376  0.00  0.00     0.019 A 
ATOM      7  C   UNL d   1     -38.505  13.553  17.172  0.00  0.00     0.002 A 
ATOM      8  C   UNL d   1     -38.285  13.381  16.384  0.00  0.00     0.000 A 
ATOM      9  C   UNL d   1     -38.273  13.975  15.824  0.00  0.00     0.000 A 
ATOM     10  C   UNL d   1     -38.480  14.742  16.046  0.00  0.00     0.000 A 
ATOM     11  C   UNL d   1     -38.005  13.721  14.903  0.00  0.00     0.000 C 
ATOM     12  C   UNL d   1     -38.694  14.916  16.808  0.00  0.00     0.002 A 
ENDBRANCH   3   6
BRANCH   1  13
ATOM     13  C   UNL d   1     -38.515  14.937  20.227  0.00  0.00     0.222 C 
ATOM     14  S   UNL d   1     -38.233  15.713  20.415  0.00  0.00    -0.037 SA
BRANCH  13  15
ATOM     15  N   UNL d   1     -38.463  14.323  20.806  0.00  0.00    -0.214 NA
ATOM     16  C   UNL d   1     -37.940  14.401  21.450  0.00  0.00     0.122 C 
ENDBRANCH  13  15
ENDBRANCH   1  13
BRANCH   4  17
ATOM     17  C   UNL d   1     -40.296  14.983  19.766  0.00  0.00     0.018 A 
ATOM     18  C   UNL d   1     -40.757  14.377  20.072  0.00  0.00     0.002 A 
ATOM     19  C   UNL d   1     -41.397  14.540  20.564  0.00  0.00     0.007 A 
ATOM     20  C   UNL d   1     -41.576  15.320  20.751  0.00  0.00     0.035 A 
ATOM     21  C   UNL d   1     -41.133  15.922  20.458  0.00  0.00     0.007 A 
ATOM     22 BR   UNL d   1     -42.233  15.464  21.254  0.00  0.00    -0.049 Br
ATOM     23  C   UNL d   1     -40.491  15.760  19.964  0.00  0.00     0.002 A 
ENDBRANCH   4  17
TORSDOF 4
ENDMDL
MODEL 7
REMARK VINA RESULT:      -3.6      1.961      4.309
REMARK  4 active torsions:
REMARK  status: ('A' for Active; 'I' for Inactive)
REMARK    1  A    between atoms: C_5  and  N_1 
REMARK    2  A    between atoms: C_7  and  C_3 
REMARK    3  A    between atoms: C_8  and  C_4 
REMARK    4  A    between atoms: N_10  and  C_5 
ROOT
ATOM      1  N   UNL d   1     -47.549  12.615  22.850  0.00  0.00    -0.203 N 
ATOM      2  N   UNL d   1     -48.294  12.929  23.030  0.00  0.00    -0.163 NA
ATOM      3  C   UNL d   1     -48.316  13.712  22.838  0.00  0.00     0.103 A 
ATOM      4  C   UNL d   1     -47.079  13.227  22.531  0.00  0.00     0.087 A 
ATOM      5  C   UNL d   1     -47.548  13.909  22.520  0.00  0.00     0.040 A 
ENDROOT
BRANCH   3   6
ATOM      6  C   UNL d   1     -48.975  14.212  22.941  0.00  0.00     0.019 A 
ATOM      7  C   UNL d   1     -49.728  13.971  22.710  0.00  0.00     0.002 A 
ATOM      8  C   UNL d   1     -50.376  14.486  22.821  0.00  0.00     0.000 A 
ATOM      9  C   UNL d   1     -50.262  15.223  23.155  0.00  0.00     0.000 A 
ATOM     10  C   UNL d   1     -49.501  15.448  23.380  0.00  0.00     0.000 A 
ATOM     11  C   UNL d   1     -51.063  15.798  23.265  0.00  0.00     0.000 C 
ATOM     12  C   UNL d   1     -48.868  14.954  23.275  0.00  0.00     0.002 A 
ENDBRANCH   3   6
BRANCH   1  13
ATOM     13  C   UNL d   1     -47.300  11.818  22.966  0.00  0.00     0.222 C 
ATOM     14  S   UNL d   1     -47.615  11.213  22.465  0.00  0.00    -0.037 SA
BRANCH  13  15
ATOM     15  N   UNL d   1     -46.744  11.612  23.570  0.00  0.00    -0.214 NA
ATOM     16  C   UNL d   1     -46.522  10.817  23.678  0.00  0.00     0.122 C 
ENDBRANCH  13  15
ENDBRANCH   1  13
BRANCH   4  17
ATOM     17  C   UNL d   1     -46.296  13.194  22.266  0.00  0.00     0.018 A 
ATOM     18  C   UNL d   1     -46.100  12.791  21.578  0.00  0.00     0.002 A 
ATOM     19  C   UNL d   1     -45.320  12.759  21.316  0.00  0.00     0.007 A 
ATOM     20  C   UNL d   1     -44.731  13.135  21.749  0.00  0.00     0.035 A 
ATOM     21  C   UNL d   1     -44.910  13.533  22.423  0.00  0.00     0.007 A 
ATOM     22 BR   UNL d   1     -43.943  13.091  21.464  0.00  0.00    -0.049 Br
ATOM     23  C   UNL d   1     -45.693  13.566  22.688  0.00  0.00     0.002 A 
ENDBRANCH   4  17
TORSDOF 4
ENDMDL
