MODEL 1
REMARK VINA RESULT:      52.3      0.000      0.000
REMARK  6 active torsions:
REMARK  status: ('A' for Active; 'I' for Inactive)
REMARK    1  A    between atoms: N_2  and  S_1 
REMARK    2  A    between atoms: C_6  and  S_1 
REMARK    3  A    between atoms: S_9  and  C_3 
REMARK    4  A    between atoms: N_4  and  C_10 
REMARK    5  A    between atoms: C_19  and  S_9 
REMARK    6  A    between atoms: C_21  and  C_19 
ROOT
ATOM      1  N   UNL d   1     -50.530  26.312  33.543  0.00  0.00    -0.208 N 
ATOM      2  C   UNL d   1     -49.854  26.625  33.913  0.00  0.00     0.189 A 
ATOM      3  N   UNL d   1     -49.263  26.045  33.905  0.00  0.00    -0.219 NA
ATOM      4  C   UNL d   1     -50.353  25.534  33.306  0.00  0.00     0.114 A 
ATOM      5  C   UNL d   1     -49.575  25.374  33.530  0.00  0.00     0.121 A 
ENDROOT
BRANCH   1   6
ATOM      6  S   UNL d   1     -51.249  26.709  33.432  0.00  0.00     0.273 S 
ATOM      7  O   UNL d   1     -50.817  27.401  33.372  0.00  0.00    -0.200 OA
ATOM      8  O   UNL d   1     -51.811  27.304  33.307  0.00  0.00    -0.200 OA
BRANCH   6   9
ATOM      9  C   UNL d   1     -51.703  26.020  33.490  0.00  0.00     0.104 A 
ATOM     10  C   UNL d   1     -51.353  25.293  33.336  0.00  0.00     0.015 A 
ATOM     11  C   UNL d   1     -51.803  24.601  33.393  0.00  0.00     0.024 A 
ATOM     12  C   UNL d   1     -52.599  24.656  33.603  0.00  0.00     0.127 A 
ATOM     13  C   UNL d   1     -52.943  25.388  33.756  0.00  0.00     0.024 A 
ATOM     14  C   UNL d   1     -52.496  26.077  33.700  0.00  0.00     0.015 A 
BRANCH  12  15
ATOM     15  N   UNL d   1     -53.055  23.958  33.661  0.00  0.00    -0.114 N 
ATOM     16  O   UNL d   1     -52.755  23.308  34.078  0.00  0.00    -0.532 OA
ATOM     17  O   UNL d   1     -53.797  23.918  33.306  0.00  0.00    -0.532 OA
ENDBRANCH  12  15
ENDBRANCH   6   9
ENDBRANCH   1   6
BRANCH   2  18
ATOM     18  S   UNL d   1     -49.785  27.390  34.236  0.00  0.00    -0.049 SA
BRANCH  18  19
ATOM     19  C   UNL d   1     -49.353  27.504  34.930  0.00  0.00     0.038 C 
BRANCH  19  20
ATOM     20  C   UNL d   1     -48.873  28.169  35.008  0.00  0.00     0.007 A 
ATOM     21  C   UNL d   1     -48.823  28.723  34.401  0.00  0.00     0.003 A 
ATOM     22  C   UNL d   1     -48.333  29.391  34.494  0.00  0.00     0.030 A 
ATOM     23  C   UNL d   1     -47.902  29.495  35.191  0.00  0.00     0.140 A 
ATOM     24  C   UNL d   1     -47.950  28.945  35.798  0.00  0.00     0.030 A 
ATOM     25  F   UNL d   1     -47.419  30.159  35.276  0.00  0.00    -0.204 F 
ATOM     26  C   UNL d   1     -48.430  28.286  35.712  0.00  0.00     0.003 A 
ENDBRANCH  19  20
ENDBRANCH  18  19
ENDBRANCH   2  18
TORSDOF 6
ENDMDL
