MODEL 1
REMARK VINA RESULT:       0.2      0.000      0.000
REMARK  5 active torsions:
REMARK  status: ('A' for Active; 'I' for Inactive)
REMARK    1  A    between atoms: N_2  and  C_14 
REMARK    2  A    between atoms: C_17  and  N_4 
REMARK    3  A    between atoms: C_15  and  C_9 
REMARK    4  A    between atoms: C_14  and  O_16 
REMARK    5  A    between atoms: O_16  and  C_15 
ROOT
ATOM      1  C   UNL d   1      32.843  18.418 -23.484  0.00  0.00     0.114 A 
ATOM      2  C   UNL d   1      33.056  19.164 -23.764  0.00  0.00     0.044 A 
ATOM      3  N   UNL d   1      32.689  17.941 -24.134  0.00  0.00    -0.224 N 
ATOM      4  N   UNL d   1      32.805  18.384 -24.813  0.00  0.00    -0.165 NA
ATOM      5  S   UNL d   1      32.866  18.441 -22.675  0.00  0.00    -0.062 SA
ATOM      6  C   UNL d   1      33.093  19.194 -22.437  0.00  0.00     0.094 A 
ATOM      7  C   UNL d   1      33.209  19.640 -23.126  0.00  0.00     0.015 A 
ATOM      8  C   UNL d   1      33.031  19.138 -24.594  0.00  0.00     0.103 A 
ATOM      9  C   UNL d   1      33.204  19.761 -25.097  0.00  0.00     0.022 C 
ENDROOT
BRANCH   6  10
ATOM     10  C   UNL d   1      33.186  19.456 -21.664  0.00  0.00     0.307 C 
ATOM     11  O   UNL d   1      33.239  18.907 -21.046  0.00  0.00    -0.258 OA
BRANCH  10  12
ATOM     12  O   UNL d   1      33.226  20.266 -21.501  0.00  0.00    -0.252 OA
BRANCH  12  13
ATOM     13  C   UNL d   1      32.577  20.651 -21.161  0.00  0.00     0.216 C 
BRANCH  13  14
ATOM     14  N   UNL d   1      32.697  21.303 -20.666  0.00  0.00    -0.218 N 
ATOM     15  C   UNL d   1      32.858  21.272 -19.863  0.00  0.00     0.269 A 
ATOM     16  C   UNL d   1      32.938  22.047 -19.585  0.00  0.00     0.061 A 
ATOM     17  O   UNL d   1      32.930  20.586 -19.404  0.00  0.00    -0.267 OA
ATOM     18  C   UNL d   1      33.098  22.358 -18.840  0.00  0.00     0.005 A 
ATOM     19  C   UNL d   1      32.824  22.556 -20.227  0.00  0.00     0.061 A 
ATOM     20  C   UNL d   1      33.145  23.169 -18.732  0.00  0.00     0.000 A 
ATOM     21  C   UNL d   1      33.031  23.678 -19.374  0.00  0.00     0.000 A 
ATOM     22  C   UNL d   1      32.871  23.376 -20.123  0.00  0.00     0.005 A 
ATOM     23  C   UNL d   1      32.674  22.097 -20.903  0.00  0.00     0.269 A 
ATOM     24  O   UNL d   1      32.529  22.377 -21.662  0.00  0.00    -0.267 OA
ENDBRANCH  13  14
ENDBRANCH  12  13
ENDBRANCH  10  12
ENDBRANCH   6  10
BRANCH   3  25
ATOM     25  C   UNL d   1      32.457  17.150 -24.108  0.00  0.00     0.083 A 
ATOM     26  C   UNL d   1      33.025  16.560 -24.167  0.00  0.00     0.019 A 
ATOM     27  C   UNL d   1      32.793  15.769 -24.141  0.00  0.00     0.002 A 
ATOM     28  C   UNL d   1      31.994  15.568 -24.056  0.00  0.00     0.000 A 
ATOM     29  C   UNL d   1      31.424  16.171 -23.998  0.00  0.00     0.002 A 
ATOM     30  C   UNL d   1      31.652  16.960 -24.023  0.00  0.00     0.019 A 
ENDBRANCH   3  25
TORSDOF 5
ENDMDL
MODEL 2
REMARK VINA RESULT:       0.8      1.567      2.505
REMARK  5 active torsions:
REMARK  status: ('A' for Active; 'I' for Inactive)
REMARK    1  A    between atoms: N_2  and  C_14 
REMARK    2  A    between atoms: C_17  and  N_4 
REMARK    3  A    between atoms: C_15  and  C_9 
REMARK    4  A    between atoms: C_14  and  O_16 
REMARK    5  A    between atoms: O_16  and  C_15 
ROOT
ATOM      1  C   UNL d   1      31.556  17.134 -23.836  0.00  0.00     0.114 A 
ATOM      2  C   UNL d   1      32.294  16.811 -23.656  0.00  0.00     0.044 A 
ATOM      3  N   UNL d   1      31.017  16.517 -23.881  0.00  0.00    -0.224 N 
ATOM      4  N   UNL d   1      31.414  15.816 -23.731  0.00  0.00    -0.165 NA
ATOM      5  S   UNL d   1      31.646  17.937 -23.899  0.00  0.00    -0.062 SA
ATOM      6  C   UNL d   1      32.433  18.128 -23.761  0.00  0.00     0.094 A 
ATOM      7  C   UNL d   1      32.831  17.418 -23.609  0.00  0.00     0.015 A 
ATOM      8  C   UNL d   1      32.199  15.989 -23.591  0.00  0.00     0.103 A 
ATOM      9  C   UNL d   1      32.794  15.452 -23.418  0.00  0.00     0.022 C 
ENDROOT
BRANCH   6  10
ATOM     10  C   UNL d   1      32.763  18.880 -23.771  0.00  0.00     0.307 C 
ATOM     11  O   UNL d   1      33.118  19.166 -24.463  0.00  0.00    -0.258 OA
BRANCH  10  12
ATOM     12  O   UNL d   1      32.741  19.353 -23.093  0.00  0.00    -0.252 OA
BRANCH  12  13
ATOM     13  C   UNL d   1      33.240  20.011 -23.032  0.00  0.00     0.216 C 
BRANCH  13  14
ATOM     14  N   UNL d   1      33.136  20.551 -22.414  0.00  0.00    -0.218 N 
ATOM     15  C   UNL d   1      33.128  20.371 -21.615  0.00  0.00     0.269 A 
ATOM     16  C   UNL d   1      33.010  21.072 -21.192  0.00  0.00     0.061 A 
ATOM     17  O   UNL d   1      33.221  19.617 -21.282  0.00  0.00    -0.267 OA
ATOM     18  C   UNL d   1      32.952  21.234 -20.387  0.00  0.00     0.005 A 
ATOM     19  C   UNL d   1      32.945  21.687 -21.741  0.00  0.00     0.061 A 
ATOM     20  C   UNL d   1      32.831  22.002 -20.129  0.00  0.00     0.000 A 
ATOM     21  C   UNL d   1      32.767  22.618 -20.677  0.00  0.00     0.000 A 
ATOM     22  C   UNL d   1      32.823  22.465 -21.485  0.00  0.00     0.005 A 
ATOM     23  C   UNL d   1      33.024  21.368 -22.505  0.00  0.00     0.269 A 
ATOM     24  O   UNL d   1      32.995  21.782 -23.213  0.00  0.00    -0.267 OA
ENDBRANCH  13  14
ENDBRANCH  12  13
ENDBRANCH  10  12
ENDBRANCH   6  10
BRANCH   3  25
ATOM     25  C   UNL d   1      30.213  16.590 -24.050  0.00  0.00     0.083 A 
ATOM     26  C   UNL d   1      29.666  16.541 -23.440  0.00  0.00     0.019 A 
ATOM     27  C   UNL d   1      28.862  16.614 -23.608  0.00  0.00     0.002 A 
ATOM     28  C   UNL d   1      28.605  16.736 -24.386  0.00  0.00     0.000 A 
ATOM     29  C   UNL d   1      29.165  16.785 -24.999  0.00  0.00     0.002 A 
ATOM     30  C   UNL d   1      29.966  16.713 -24.834  0.00  0.00     0.019 A 
ENDBRANCH   3  25
TORSDOF 5
ENDMDL
MODEL 3
REMARK VINA RESULT:       2.7      1.622      5.709
REMARK  5 active torsions:
REMARK  status: ('A' for Active; 'I' for Inactive)
REMARK    1  A    between atoms: N_2  and  C_14 
REMARK    2  A    between atoms: C_17  and  N_4 
REMARK    3  A    between atoms: C_15  and  C_9 
REMARK    4  A    between atoms: C_14  and  O_16 
REMARK    5  A    between atoms: O_16  and  C_15 
ROOT
ATOM      1  C   UNL d   1      32.977  21.612 -22.232  0.00  0.00     0.114 A 
ATOM      2  C   UNL d   1      32.868  22.091 -22.895  0.00  0.00     0.044 A 
ATOM      3  N   UNL d   1      32.966  22.096 -21.570  0.00  0.00    -0.224 N 
ATOM      4  N   UNL d   1      32.851  22.869 -21.815  0.00  0.00    -0.165 NA
ATOM      5  S   UNL d   1      33.054  20.848 -22.488  0.00  0.00    -0.062 SA
ATOM      6  C   UNL d   1      32.994  20.835 -23.308  0.00  0.00     0.094 A 
ATOM      7  C   UNL d   1      32.878  21.617 -23.554  0.00  0.00     0.015 A 
ATOM      8  C   UNL d   1      32.790  22.874 -22.630  0.00  0.00     0.103 A 
ATOM      9  C   UNL d   1      32.672  23.530 -23.106  0.00  0.00     0.022 C 
ENDROOT
BRANCH   6  10
ATOM     10  C   UNL d   1      33.040  20.173 -23.792  0.00  0.00     0.307 C 
ATOM     11  O   UNL d   1      33.240  20.259 -24.591  0.00  0.00    -0.258 OA
BRANCH  10  12
ATOM     12  O   UNL d   1      32.888  19.421 -23.483  0.00  0.00    -0.252 OA
BRANCH  12  13
ATOM     13  C   UNL d   1      32.237  18.987 -23.754  0.00  0.00     0.216 C 
BRANCH  13  14
ATOM     14  N   UNL d   1      32.281  18.163 -23.800  0.00  0.00    -0.218 N 
ATOM     15  C   UNL d   1      31.958  17.697 -24.392  0.00  0.00     0.269 A 
ATOM     16  C   UNL d   1      32.132  16.906 -24.224  0.00  0.00     0.061 A 
ATOM     17  O   UNL d   1      31.531  17.967 -25.049  0.00  0.00    -0.267 OA
ATOM     18  C   UNL d   1      31.955  16.202 -24.612  0.00  0.00     0.005 A 
ATOM     19  C   UNL d   1      32.565  16.889 -23.520  0.00  0.00     0.061 A 
ATOM     20  C   UNL d   1      32.208  15.486 -24.303  0.00  0.00     0.000 A 
ATOM     21  C   UNL d   1      32.641  15.470 -23.599  0.00  0.00     0.000 A 
ATOM     22  C   UNL d   1      32.823  16.169 -23.204  0.00  0.00     0.005 A 
ATOM     23  C   UNL d   1      32.661  17.671 -23.252  0.00  0.00     0.269 A 
ATOM     24  O   UNL d   1      33.057  17.910 -22.573  0.00  0.00    -0.267 OA
ENDBRANCH  13  14
ENDBRANCH  12  13
ENDBRANCH  10  12
ENDBRANCH   6  10
BRANCH   3  25
ATOM     25  C   UNL d   1      33.056  21.847 -20.788  0.00  0.00     0.083 A 
ATOM     26  C   UNL d   1      33.057  22.402 -20.184  0.00  0.00     0.019 A 
ATOM     27  C   UNL d   1      33.146  22.153 -19.402  0.00  0.00     0.002 A 
ATOM     28  C   UNL d   1      33.236  21.349 -19.226  0.00  0.00     0.000 A 
ATOM     29  C   UNL d   1      33.234  20.791 -19.844  0.00  0.00     0.002 A 
ATOM     30  C   UNL d   1      33.145  21.037 -20.623  0.00  0.00     0.019 A 
ENDBRANCH   3  25
TORSDOF 5
ENDMDL
