MODEL 1
REMARK VINA RESULT:      37.0      0.000      0.000
REMARK  3 active torsions:
REMARK  status: ('A' for Active; 'I' for Inactive)
REMARK    1  A    between atoms: N_9  and  C_4 
REMARK       I    between atoms: C_7  and  N_10 
REMARK    2  A    between atoms: C_8  and  C_7 
REMARK    3  A    between atoms: N_10  and  N_9 
ROOT
ATOM      1  C   UNL d   1      13.821  12.689  -1.563  0.00  0.00     0.297 C 
ATOM      2  N   UNL d   1      13.780  12.348  -2.312  0.00  0.00    -0.104 NA
ATOM      3  O   UNL d   1      13.177  13.111  -1.266  0.00  0.00    -0.264 OA
ENDROOT
BRANCH   1   4
ATOM      4  C   UNL d   1      14.504  12.608  -1.112  0.00  0.00     0.059 A 
ATOM      5  C   UNL d   1      14.858  13.286  -0.791  0.00  0.00     0.005 A 
ATOM      6  C   UNL d   1      15.547  13.194  -0.338  0.00  0.00     0.000 A 
ATOM      7  C   UNL d   1      14.539  14.022  -0.918  0.00  0.00     0.000 A 
ATOM      8  C   UNL d   1      15.903  13.858  -0.018  0.00  0.00     0.000 A 
ATOM      9  C   UNL d   1      15.871  12.446  -0.210  0.00  0.00     0.000 A 
ATOM     10  C   UNL d   1      15.587  14.597  -0.141  0.00  0.00     0.000 A 
ATOM     11  C   UNL d   1      14.896  14.684  -0.596  0.00  0.00     0.000 A 
ATOM     12  C   UNL d   1      15.513  11.779  -0.532  0.00  0.00     0.000 A 
ATOM     13  C   UNL d   1      14.825  11.859  -0.986  0.00  0.00     0.005 A 
ENDBRANCH   1   4
BRANCH   2  14
ATOM     14  N   UNL d   1      13.097  12.428  -2.763  0.00  0.00    -0.127 NA
BRANCH  14  15
ATOM     15  C   UNL d   1      13.148  12.661  -3.555  0.00  0.00     0.178 A 
ATOM     16  N   UNL d   1      12.987  13.437  -3.770  0.00  0.00    -0.240 N 
ATOM     17  C   UNL d   1      13.038  13.666  -4.553  0.00  0.00     0.343 A 
ATOM     18  C   UNL d   1      12.773  13.987  -3.194  0.00  0.00     0.105 C 
ATOM     19  N   UNL d   1      13.252  13.117  -5.130  0.00  0.00    -0.224 N 
ATOM     20  O   UNL d   1      12.876  14.447  -4.768  0.00  0.00    -0.245 OA
ATOM     21  C   UNL d   1      13.417  12.333  -4.930  0.00  0.00     0.271 A 
ATOM     22  C   UNL d   1      13.304  13.348  -5.922  0.00  0.00     0.107 C 
ATOM     23  C   UNL d   1      13.362  12.111  -4.132  0.00  0.00     0.101 A 
ATOM     24  O   UNL d   1      13.629  11.788  -5.501  0.00  0.00    -0.266 OA
ENDBRANCH  14  15
ENDBRANCH   2  14
TORSDOF 3
ENDMDL
MODEL 2
REMARK VINA RESULT:      38.4      1.504      2.340
REMARK  3 active torsions:
REMARK  status: ('A' for Active; 'I' for Inactive)
REMARK    1  A    between atoms: N_9  and  C_4 
REMARK       I    between atoms: C_7  and  N_10 
REMARK    2  A    between atoms: C_8  and  C_7 
REMARK    3  A    between atoms: N_10  and  N_9 
ROOT
ATOM      1  C   UNL d   1      13.563  12.376  -2.482  0.00  0.00     0.297 C 
ATOM      2  N   UNL d   1      13.583  13.167  -2.708  0.00  0.00    -0.104 NA
ATOM      3  O   UNL d   1      13.558  11.782  -3.055  0.00  0.00    -0.264 OA
ENDROOT
BRANCH   1   4
ATOM      4  C   UNL d   1      13.549  12.177  -1.684  0.00  0.00     0.059 A 
ATOM      5  C   UNL d   1      14.265  12.121  -1.268  0.00  0.00     0.005 A 
ATOM      6  C   UNL d   1      14.239  11.920  -0.464  0.00  0.00     0.000 A 
ATOM      7  C   UNL d   1      14.974  12.259  -1.640  0.00  0.00     0.000 A 
ATOM      8  C   UNL d   1      14.942  11.863  -0.046  0.00  0.00     0.000 A 
ATOM      9  C   UNL d   1      13.519  11.780  -0.086  0.00  0.00     0.000 A 
ATOM     10  C   UNL d   1      15.654  12.000  -0.415  0.00  0.00     0.000 A 
ATOM     11  C   UNL d   1      15.673  12.201  -1.221  0.00  0.00     0.000 A 
ATOM     12  C   UNL d   1      12.814  11.838  -0.506  0.00  0.00     0.000 A 
ATOM     13  C   UNL d   1      12.827  12.037  -1.309  0.00  0.00     0.005 A 
ENDBRANCH   1   4
BRANCH   2  14
ATOM     14  N   UNL d   1      13.598  13.366  -3.506  0.00  0.00    -0.127 NA
BRANCH  14  15
ATOM     15  C   UNL d   1      13.666  14.157  -3.735  0.00  0.00     0.178 A 
ATOM     16  N   UNL d   1      13.255  14.437  -4.389  0.00  0.00    -0.240 N 
ATOM     17  C   UNL d   1      13.323  15.220  -4.614  0.00  0.00     0.343 A 
ATOM     18  C   UNL d   1      12.772  13.925  -4.819  0.00  0.00     0.105 C 
ATOM     19  N   UNL d   1      13.805  15.732  -4.184  0.00  0.00    -0.224 N 
ATOM     20  O   UNL d   1      12.908  15.499  -5.272  0.00  0.00    -0.245 OA
ATOM     21  C   UNL d   1      14.225  15.467  -3.524  0.00  0.00     0.271 A 
ATOM     22  C   UNL d   1      13.874  16.524  -4.412  0.00  0.00     0.107 C 
ATOM     23  C   UNL d   1      14.148  14.670  -3.305  0.00  0.00     0.101 A 
ATOM     24  O   UNL d   1      14.703  15.974  -3.098  0.00  0.00    -0.266 OA
ENDBRANCH  14  15
ENDBRANCH   2  14
TORSDOF 3
ENDMDL
