MODEL 1
REMARK VINA RESULT:      -5.4      0.000      0.000
REMARK  4 active torsions:
REMARK  status: ('A' for Active; 'I' for Inactive)
REMARK    1  A    between atoms: N_7  and  C_1 
REMARK    2  A    between atoms: S_2  and  C_8 
REMARK    3  A    between atoms: C_10  and  S_2 
REMARK       I    between atoms: C_9  and  N_7 
REMARK    4  A    between atoms: C_8  and  C_9 
ROOT
ATOM      1  N   UNL d   1      58.076  -0.238  29.754  0.00  0.00    -0.182 NA
ATOM      2  C   UNL d   1      58.190   0.190  30.447  0.00  0.00     0.293 C 
ATOM      3  O   UNL d   1      58.903   0.138  30.863  0.00  0.00    -0.264 OA
ENDROOT
BRANCH   2   4
ATOM      4  C   UNL d   1      57.604   0.677  30.742  0.00  0.00     0.161 C 
BRANCH   4   5
ATOM      5  S   UNL d   1      57.123   0.401  31.374  0.00  0.00     0.215 S 
ATOM      6  O   UNL d   1      57.771   0.464  31.897  0.00  0.00    -0.217 OA
ATOM      7  O   UNL d   1      56.483   0.340  30.852  0.00  0.00    -0.217 OA
BRANCH   5   8
ATOM      8  C   UNL d   1      56.648   0.128  32.000  0.00  0.00     0.088 A 
ATOM      9  C   UNL d   1      56.483  -0.676  32.070  0.00  0.00     0.012 A 
ATOM     10  C   UNL d   1      56.016  -0.944  32.687  0.00  0.00     0.012 A 
ATOM     11  C   UNL d   1      55.713  -0.408  33.235  0.00  0.00     0.058 A 
ATOM     12  C   UNL d   1      55.873   0.390  33.170  0.00  0.00     0.012 A 
ATOM     13 CL   UNL d   1      55.241  -0.681  33.857  0.00  0.00    -0.082 Cl
ATOM     14  C   UNL d   1      56.345   0.658  32.547  0.00  0.00     0.012 A 
ENDBRANCH   5   8
ENDBRANCH   4   5
ENDBRANCH   2   4
BRANCH   1  15
ATOM     15  C   UNL d   1      58.651  -0.706  29.479  0.00  0.00     0.197 A 
ATOM     16  N   UNL d   1      58.614  -1.546  29.431  0.00  0.00    -0.221 NA
ATOM     17  C   UNL d   1      59.335  -1.817  29.110  0.00  0.00     0.090 A 
ATOM     18  C   UNL d   1      59.612  -2.577  28.936  0.00  0.00     0.018 A 
ATOM     19  C   UNL d   1      59.814  -1.147  28.960  0.00  0.00     0.060 A 
ATOM     20  C   UNL d   1      60.374  -2.675  28.611  0.00  0.00     0.002 A 
ATOM     21  C   UNL d   1      59.156  -3.207  29.079  0.00  0.00     0.002 C 
ATOM     22  C   UNL d   1      60.867  -2.006  28.455  0.00  0.00     0.012 A 
ATOM     23  C   UNL d   1      60.578  -1.243  28.634  0.00  0.00     0.065 A 
ATOM     24 CL   UNL d   1      61.045  -0.584  28.488  0.00  0.00    -0.082 Cl
ATOM     25  S   UNL d   1      59.382  -0.463  29.192  0.00  0.00    -0.046 SA
ENDBRANCH   1  15
TORSDOF 4
ENDMDL
MODEL 2
REMARK VINA RESULT:      -4.3      1.390      5.129
REMARK  4 active torsions:
REMARK  status: ('A' for Active; 'I' for Inactive)
REMARK    1  A    between atoms: N_7  and  C_1 
REMARK    2  A    between atoms: S_2  and  C_8 
REMARK    3  A    between atoms: C_10  and  S_2 
REMARK       I    between atoms: C_9  and  N_7 
REMARK    4  A    between atoms: C_8  and  C_9 
ROOT
ATOM      1  N   UNL d   1      57.734   0.646  30.978  0.00  0.00    -0.182 NA
ATOM      2  C   UNL d   1      57.807  -0.064  30.569  0.00  0.00     0.293 C 
ATOM      3  O   UNL d   1      57.559  -0.775  30.909  0.00  0.00    -0.264 OA
ENDROOT
BRANCH   2   4
ATOM      4  C   UNL d   1      58.127  -0.085  29.817  0.00  0.00     0.161 C 
BRANCH   4   5
ATOM      5  S   UNL d   1      58.598  -0.745  29.592  0.00  0.00     0.215 S 
ATOM      6  O   UNL d   1      59.275  -0.373  29.911  0.00  0.00    -0.217 OA
ATOM      7  O   UNL d   1      57.925  -1.109  29.276  0.00  0.00    -0.217 OA
BRANCH   5   8
ATOM      8  C   UNL d   1      59.064  -1.397  29.369  0.00  0.00     0.088 A 
ATOM      9  C   UNL d   1      59.874  -1.302  29.256  0.00  0.00     0.012 A 
ATOM     10  C   UNL d   1      60.333  -1.945  29.037  0.00  0.00     0.012 A 
ATOM     11  C   UNL d   1      59.982  -2.683  28.932  0.00  0.00     0.058 A 
ATOM     12  C   UNL d   1      59.179  -2.782  29.043  0.00  0.00     0.012 A 
ATOM     13 CL   UNL d   1      60.447  -3.330  28.711  0.00  0.00    -0.082 Cl
ATOM     14  C   UNL d   1      58.719  -2.133  29.264  0.00  0.00     0.012 A 
ENDBRANCH   5   8
ENDBRANCH   4   5
ENDBRANCH   2   4
BRANCH   1  15
ATOM     15  C   UNL d   1      57.422   0.654  31.705  0.00  0.00     0.197 A 
ATOM     16  N   UNL d   1      57.862   0.661  32.423  0.00  0.00    -0.221 NA
ATOM     17  C   UNL d   1      57.320   0.668  33.056  0.00  0.00     0.090 A 
ATOM     18  C   UNL d   1      57.427   0.676  33.876  0.00  0.00     0.018 A 
ATOM     19  C   UNL d   1      56.548   0.665  32.731  0.00  0.00     0.060 A 
ATOM     20  C   UNL d   1      56.763   0.682  34.381  0.00  0.00     0.002 A 
ATOM     21  C   UNL d   1      58.157   0.679  34.180  0.00  0.00     0.002 C 
ATOM     22  C   UNL d   1      55.979   0.679  34.063  0.00  0.00     0.012 A 
ATOM     23  C   UNL d   1      55.881   0.671  33.234  0.00  0.00     0.065 A 
ATOM     24 CL   UNL d   1      55.126   0.668  32.911  0.00  0.00    -0.082 Cl
ATOM     25  S   UNL d   1      56.622   0.656  31.892  0.00  0.00    -0.046 SA
ENDBRANCH   1  15
TORSDOF 4
ENDMDL
