MODEL 1
REMARK VINA RESULT:      83.6      0.000      0.000
REMARK  5 active torsions:
REMARK  status: ('A' for Active; 'I' for Inactive)
REMARK    1  A    between atoms: C_11  and  N_5 
REMARK    2  A    between atoms: C_15  and  C_8 
REMARK    3  A    between atoms: C_12  and  C_11 
REMARK    4  A    between atoms: O_20  and  C_15 
REMARK    5  A    between atoms: C_23  and  O_20 
ROOT
ATOM      1  C   UNL d   1      59.016  49.692  53.278  0.00  0.00     0.130 A 
ATOM      2  C   UNL d   1      58.204  49.687  53.155  0.00  0.00     0.157 A 
ATOM      3  C   UNL d   1      59.532  49.697  52.631  0.00  0.00     0.272 A 
ATOM      4  N   UNL d   1      57.905  49.687  52.390  0.00  0.00    -0.208 NA
ATOM      5  N   UNL d   1      59.233  49.698  51.866  0.00  0.00    -0.254 N 
ATOM      6  C   UNL d   1      59.321  49.691  54.048  0.00  0.00     0.204 A 
ATOM      7  N   UNL d   1      57.684  49.682  53.805  0.00  0.00    -0.289 N 
ATOM      8  C   UNL d   1      58.421  49.693  51.743  0.00  0.00     0.177 A 
ATOM      9  C   UNL d   1      58.802  49.686  54.698  0.00  0.00     0.055 A 
ATOM     10  C   UNL d   1      57.983  49.681  54.570  0.00  0.00     0.069 A 
ATOM     11  O   UNL d   1      60.362  49.702  52.751  0.00  0.00    -0.266 OA
ATOM     12  O   UNL d   1      60.139  49.696  54.169  0.00  0.00    -0.286 OA
ATOM     13  C   UNL d   1      56.867  49.677  53.683  0.00  0.00     0.101 C 
ATOM     14  C   UNL d   1      59.104  49.685  55.465  0.00  0.00     0.005 A 
ATOM     15  C   UNL d   1      57.470  49.676  55.213  0.00  0.00     0.018 A 
ATOM     16  C   UNL d   1      58.590  49.680  56.108  0.00  0.00     0.000 A 
ATOM     17  C   UNL d   1      57.768  49.675  55.979  0.00  0.00     0.002 A 
ENDROOT
BRANCH   8  18
ATOM     18  C   UNL d   1      58.118  49.693  50.964  0.00  0.00     0.160 C 
BRANCH  18  19
ATOM     19  O   UNL d   1      57.303  49.698  50.840  0.00  0.00    -0.302 OA
BRANCH  19  20
ATOM     20  C   UNL d   1      56.986  49.301  50.191  0.00  0.00     0.100 A 
ATOM     21  C   UNL d   1      56.800  48.503  50.255  0.00  0.00     0.025 A 
ATOM     22  C   UNL d   1      56.481  48.097  49.607  0.00  0.00     0.002 A 
ATOM     23  C   UNL d   1      56.355  48.502  48.901  0.00  0.00     0.000 A 
ATOM     24  C   UNL d   1      56.543  49.303  48.839  0.00  0.00     0.002 A 
ATOM     25  C   UNL d   1      56.859  49.702  49.484  0.00  0.00     0.025 A 
ENDBRANCH  19  20
ENDBRANCH  18  19
ENDBRANCH   8  18
BRANCH   5  26
ATOM     26  C   UNL d   1      59.747  49.703  51.223  0.00  0.00     0.109 C 
BRANCH  26  27
ATOM     27  C   UNL d   1      60.304  49.105  51.136  0.00  0.00     0.118 A 
ATOM     28  O   UNL d   1      61.097  49.050  51.356  0.00  0.00    -0.304 OA
ATOM     29  C   UNL d   1      61.371  48.311  51.121  0.00  0.00     0.123 A 
ATOM     30  C   UNL d   1      60.766  47.903  50.758  0.00  0.00     0.029 A 
ATOM     31  C   UNL d   1      60.097  48.394  50.765  0.00  0.00     0.028 A 
ENDBRANCH  26  27
ENDBRANCH   5  26
TORSDOF 5
ENDMDL
