MODEL 1
REMARK VINA RESULT:     152.8      0.000      0.000
REMARK  5 active torsions:
REMARK  status: ('A' for Active; 'I' for Inactive)
REMARK       I    between atoms: C_2  and  N_6 
REMARK    1  A    between atoms: C_7  and  C_2 
REMARK    2  A    between atoms: N_3  and  C_4 
REMARK    3  A    between atoms: C_12  and  N_5 
REMARK    4  A    between atoms: N_6  and  C_18 
REMARK    5  A    between atoms: O_33  and  C_30 
ROOT
ATOM      1  C   UNL d   1      61.544  44.084  50.559  0.00  0.00     0.086 A 
ATOM      2  C   UNL d   1      61.888  43.780  49.877  0.00  0.00     0.074 A 
ATOM      3  C   UNL d   1      61.379  43.592  51.195  0.00  0.00     0.102 C 
ATOM      4  N   UNL d   1      61.215  43.096  51.830  0.00  0.00    -0.191 NA
ATOM      5  C   UNL d   1      62.053  44.272  49.240  0.00  0.00     0.020 A 
ATOM      6  C   UNL d   1      61.362  44.893  50.607  0.00  0.00     0.031 A 
ATOM      7  C   UNL d   1      61.524  45.391  49.974  0.00  0.00     0.085 A 
ATOM      8  C   UNL d   1      61.874  45.082  49.279  0.00  0.00     0.021 A 
ENDROOT
BRANCH   2   9
ATOM      9  N   UNL d   1      62.072  42.976  49.822  0.00  0.00    -0.301 N 
ATOM     10  C   UNL d   1      61.793  42.545  49.181  0.00  0.00     0.100 A 
ATOM     11  C   UNL d   1      61.975  41.737  49.119  0.00  0.00     0.100 A 
ATOM     12  N   UNL d   1      62.433  41.376  49.704  0.00  0.00    -0.301 N 
ATOM     13  C   UNL d   1      62.710  41.816  50.346  0.00  0.00     0.100 A 
ATOM     14  C   UNL d   1      62.531  42.615  50.407  0.00  0.00     0.100 A 
BRANCH  12  15
ATOM     15  C   UNL d   1      62.615  40.567  49.642  0.00  0.00     0.064 A 
ATOM     16  C   UNL d   1      62.634  40.098  50.317  0.00  0.00     0.020 A 
ATOM     17  C   UNL d   1      62.814  39.294  50.257  0.00  0.00     0.026 A 
ATOM     18  C   UNL d   1      62.977  38.953  49.515  0.00  0.00     0.094 A 
ATOM     19  C   UNL d   1      62.958  39.425  48.828  0.00  0.00     0.026 A 
ATOM     20  C   UNL d   1      62.777  40.231  48.894  0.00  0.00     0.020 A 
BRANCH  18  21
ATOM     21  O   UNL d   1      63.158  38.149  49.446  0.00  0.00    -0.328 OA
ATOM     22  C   UNL d   1      62.894  37.629  50.025  0.00  0.00     0.181 C 
ENDBRANCH  18  21
ENDBRANCH  12  15
ENDBRANCH   2   9
BRANCH   7  23
ATOM     23  N   UNL d   1      61.344  46.194  50.017  0.00  0.00    -0.208 NA
ATOM     24  C   UNL d   1      61.253  46.554  50.750  0.00  0.00     0.279 C 
ATOM     25  O   UNL d   1      61.340  46.118  51.440  0.00  0.00    -0.265 OA
BRANCH  24  26
ATOM     26  C   UNL d   1      61.073  47.361  50.792  0.00  0.00     0.060 A 
ATOM     27  C   UNL d   1      60.448  47.615  51.245  0.00  0.00     0.031 A 
ATOM     28  C   UNL d   1      60.271  48.420  51.285  0.00  0.00     0.119 A 
ATOM     29  O   UNL d   1      59.692  48.835  51.685  0.00  0.00    -0.300 OA
ATOM     30  C   UNL d   1      60.726  48.954  50.867  0.00  0.00     0.119 A 
ATOM     31  C   UNL d   1      59.786  49.633  51.515  0.00  0.00     0.304 A 
ATOM     32  O   UNL d   1      60.426  49.708  51.009  0.00  0.00    -0.300 OA
ATOM     33  C   UNL d   1      61.358  48.701  50.407  0.00  0.00     0.026 A 
ATOM     34  C   UNL d   1      61.533  47.902  50.369  0.00  0.00     0.007 A 
ENDBRANCH  24  26
ENDBRANCH   7  23
TORSDOF 5
ENDMDL
