MODEL 1
REMARK VINA RESULT:     -12.1      0.000      0.000
REMARK  3 active torsions:
REMARK  status: ('A' for Active; 'I' for Inactive)
REMARK    1  A    between atoms: C_16  and  N_3 
REMARK    2  A    between atoms: C_10  and  C_5 
REMARK    3  A    between atoms: C_26  and  C_16 
ROOT
ATOM      1  C   UNL d   1      52.812  33.283  53.557  0.00  0.00     0.083 A 
ATOM      2  C   UNL d   1      53.503  33.276  54.005  0.00  0.00     0.161 A 
ATOM      3  N   UNL d   1      53.066  34.540  53.957  0.00  0.00    -0.268 N 
ATOM      4  C   UNL d   1      53.664  34.052  54.255  0.00  0.00     0.288 A 
ATOM      5  C   UNL d   1      52.538  34.064  53.525  0.00  0.00     0.072 A 
ATOM      6  C   UNL d   1      52.516  32.585  53.235  0.00  0.00     0.201 A 
ATOM      7  O   UNL d   1      53.905  32.560  54.131  0.00  0.00    -0.302 OA
ATOM      8  C   UNL d   1      52.917  31.876  53.362  0.00  0.00     0.062 A 
ATOM      9  C   UNL d   1      53.609  31.865  53.809  0.00  0.00     0.103 A 
ATOM     10  O   UNL d   1      54.299  34.293  54.712  0.00  0.00    -0.264 OA
ATOM     11  O   UNL d   1      51.826  32.591  52.787  0.00  0.00    -0.286 OA
ATOM     12  C   UNL d   1      52.622  31.173  53.039  0.00  0.00     0.012 A 
ATOM     13  C   UNL d   1      54.007  31.143  53.933  0.00  0.00     0.025 A 
ATOM     14  C   UNL d   1      53.016  30.463  53.162  0.00  0.00     0.035 A 
ATOM     15  C   UNL d   1      53.711  30.448  53.611  0.00  0.00     0.009 A 
ATOM     16 BR   UNL d   1      52.724  29.769  52.842  0.00  0.00    -0.049 Br
ENDROOT
BRANCH   5  17
ATOM     17  C   UNL d   1      51.847  34.075  53.078  0.00  0.00     0.019 A 
ATOM     18  C   UNL d   1      51.872  34.237  52.268  0.00  0.00     0.031 A 
ATOM     19  C   UNL d   1      51.180  34.247  51.825  0.00  0.00     0.140 A 
ATOM     20  F   UNL d   1      51.213  34.409  51.019  0.00  0.00    -0.204 F 
ATOM     21  C   UNL d   1      50.448  34.094  52.189  0.00  0.00     0.030 A 
ATOM     22  C   UNL d   1      50.421  33.932  53.000  0.00  0.00     0.002 A 
ATOM     23  C   UNL d   1      51.124  33.923  53.444  0.00  0.00     0.002 A 
ENDBRANCH   5  17
BRANCH   3  24
ATOM     24  C   UNL d   1      53.002  35.353  54.068  0.00  0.00     0.129 C 
BRANCH  24  25
ATOM     25  C   UNL d   1      53.022  35.665  54.829  0.00  0.00     0.253 C 
ATOM     26  O   UNL d   1      52.905  36.470  54.948  0.00  0.00    -0.281 OA
ENDBRANCH  24  25
ENDBRANCH   3  24
TORSDOF 3
ENDMDL
MODEL 2
REMARK VINA RESULT:     -11.1      1.685      2.825
REMARK  3 active torsions:
REMARK  status: ('A' for Active; 'I' for Inactive)
REMARK    1  A    between atoms: C_16  and  N_3 
REMARK    2  A    between atoms: C_10  and  C_5 
REMARK    3  A    between atoms: C_26  and  C_16 
ROOT
ATOM      1  C   UNL d   1      53.139  32.417  53.598  0.00  0.00     0.083 A 
ATOM      2  C   UNL d   1      52.577  32.319  53.005  0.00  0.00     0.161 A 
ATOM      3  N   UNL d   1      52.740  33.634  53.194  0.00  0.00    -0.268 N 
ATOM      4  C   UNL d   1      52.326  33.070  52.752  0.00  0.00     0.288 A 
ATOM      5  C   UNL d   1      53.243  33.230  53.718  0.00  0.00     0.072 A 
ATOM      6  C   UNL d   1      53.487  31.761  53.956  0.00  0.00     0.201 A 
ATOM      7  O   UNL d   1      52.359  31.553  52.766  0.00  0.00    -0.302 OA
ATOM      8  C   UNL d   1      53.269  31.002  53.716  0.00  0.00     0.062 A 
ATOM      9  C   UNL d   1      52.707  30.901  53.123  0.00  0.00     0.103 A 
ATOM     10  O   UNL d   1      51.772  33.226  52.170  0.00  0.00    -0.264 OA
ATOM     11  O   UNL d   1      54.050  31.858  54.549  0.00  0.00    -0.286 OA
ATOM     12  C   UNL d   1      53.618  30.342  54.074  0.00  0.00     0.012 A 
ATOM     13  C   UNL d   1      52.492  30.131  52.887  0.00  0.00     0.025 A 
ATOM     14  C   UNL d   1      53.405  29.584  53.839  0.00  0.00     0.035 A 
ATOM     15  C   UNL d   1      52.840  29.478  53.244  0.00  0.00     0.009 A 
ATOM     16 BR   UNL d   1      53.750  28.932  54.194  0.00  0.00    -0.049 Br
ENDROOT
BRANCH   5  17
ATOM     17  C   UNL d   1      53.806  33.331  54.311  0.00  0.00     0.019 A 
ATOM     18  C   UNL d   1      54.596  33.483  54.120  0.00  0.00     0.031 A 
ATOM     19  C   UNL d   1      55.154  33.584  54.714  0.00  0.00     0.140 A 
ATOM     20  F   UNL d   1      55.939  33.735  54.517  0.00  0.00    -0.204 F 
ATOM     21  C   UNL d   1      54.929  33.534  55.514  0.00  0.00     0.030 A 
ATOM     22  C   UNL d   1      54.138  33.382  55.706  0.00  0.00     0.002 A 
ATOM     23  C   UNL d   1      53.577  33.280  55.101  0.00  0.00     0.002 A 
ENDBRANCH   5  17
BRANCH   3  24
ATOM     24  C   UNL d   1      52.667  34.451  53.129  0.00  0.00     0.129 C 
BRANCH  24  25
ATOM     25  C   UNL d   1      51.935  34.808  53.247  0.00  0.00     0.253 C 
ATOM     26  O   UNL d   1      51.892  35.565  53.563  0.00  0.00    -0.281 OA
ENDBRANCH  24  25
ENDBRANCH   3  24
TORSDOF 3
ENDMDL
MODEL 3
REMARK VINA RESULT:      -9.5      2.144      4.174
REMARK  3 active torsions:
REMARK  status: ('A' for Active; 'I' for Inactive)
REMARK    1  A    between atoms: C_16  and  N_3 
REMARK    2  A    between atoms: C_10  and  C_5 
REMARK    3  A    between atoms: C_26  and  C_16 
ROOT
ATOM      1  C   UNL d   1      52.780  32.293  53.501  0.00  0.00     0.083 A 
ATOM      2  C   UNL d   1      52.241  31.773  53.160  0.00  0.00     0.161 A 
ATOM      3  N   UNL d   1      53.312  31.060  53.529  0.00  0.00    -0.268 N 
ATOM      4  C   UNL d   1      52.566  31.008  53.175  0.00  0.00     0.288 A 
ATOM      5  C   UNL d   1      53.445  31.856  53.731  0.00  0.00     0.072 A 
ATOM      6  C   UNL d   1      52.605  33.096  53.562  0.00  0.00     0.201 A 
ATOM      7  O   UNL d   1      51.515  32.060  52.875  0.00  0.00    -0.302 OA
ATOM      8  C   UNL d   1      51.883  33.378  53.278  0.00  0.00     0.062 A 
ATOM      9  C   UNL d   1      51.342  32.861  52.936  0.00  0.00     0.103 A 
ATOM     10  O   UNL d   1      52.214  30.326  52.892  0.00  0.00    -0.264 OA
ATOM     11  O   UNL d   1      53.143  33.617  53.902  0.00  0.00    -0.286 OA
ATOM     12  C   UNL d   1      51.705  34.184  53.338  0.00  0.00     0.012 A 
ATOM     13  C   UNL d   1      50.615  33.154  52.652  0.00  0.00     0.025 A 
ATOM     14  C   UNL d   1      50.988  34.471  53.057  0.00  0.00     0.035 A 
ATOM     15  C   UNL d   1      50.442  33.954  52.713  0.00  0.00     0.009 A 
ATOM     16 BR   UNL d   1      50.813  35.268  53.117  0.00  0.00    -0.049 Br
ENDROOT
BRANCH   5  17
ATOM     17  C   UNL d   1      53.987  32.373  54.073  0.00  0.00     0.019 A 
ATOM     18  C   UNL d   1      53.983  32.508  54.889  0.00  0.00     0.031 A 
ATOM     19  C   UNL d   1      54.525  33.025  55.226  0.00  0.00     0.140 A 
ATOM     20  F   UNL d   1      54.516  33.155  56.039  0.00  0.00    -0.204 F 
ATOM     21  C   UNL d   1      55.082  33.418  54.749  0.00  0.00     0.030 A 
ATOM     22  C   UNL d   1      55.087  33.284  53.932  0.00  0.00     0.002 A 
ATOM     23  C   UNL d   1      54.536  32.760  53.595  0.00  0.00     0.002 A 
ENDBRANCH   5  17
BRANCH   3  24
ATOM     24  C   UNL d   1      53.832  30.436  53.660  0.00  0.00     0.129 C 
BRANCH  24  25
ATOM     25  C   UNL d   1      53.542  29.704  53.898  0.00  0.00     0.253 C 
ATOM     26  O   UNL d   1      54.058  29.122  54.163  0.00  0.00    -0.281 OA
ENDBRANCH  24  25
ENDBRANCH   3  24
TORSDOF 3
ENDMDL
