MODEL 1
REMARK VINA RESULT:      -5.0      0.000      0.000
REMARK  4 active torsions:
REMARK  status: ('A' for Active; 'I' for Inactive)
REMARK    1  A    between atoms: N_2  and  C_1 
REMARK       I    between atoms: C_3  and  N_2 
REMARK    2  A    between atoms: C_6  and  C_3 
REMARK    3  A    between atoms: C_14  and  C_7 
REMARK    4  A    between atoms: C_15  and  C_14 
ROOT
ATOM      1  C   UNL d   1      57.739   0.444  30.702  0.00  0.00     0.197 A 
ATOM      2  N   UNL d   1      57.416   0.591  30.017  0.00  0.00    -0.219 NA
ATOM      3  S   UNL d   1      58.554   0.434  30.604  0.00  0.00    -0.047 SA
ATOM      4  C   UNL d   1      58.715   0.581  29.822  0.00  0.00     0.051 A 
ATOM      5  C   UNL d   1      57.994   0.682  29.448  0.00  0.00     0.108 A 
ENDROOT
BRANCH   1   6
ATOM      6  N   UNL d   1      57.268   0.323  31.407  0.00  0.00    -0.182 NA
ATOM      7  C   UNL d   1      56.957  -0.424  31.554  0.00  0.00     0.287 C 
ATOM      8  O   UNL d   1      57.100  -1.046  31.027  0.00  0.00    -0.265 OA
BRANCH   7   9
ATOM      9  C   UNL d   1      56.515  -0.536  32.217  0.00  0.00     0.087 A 
ATOM     10  S   UNL d   1      56.227   0.035  32.746  0.00  0.00    -0.082 SA
ATOM     11  C   UNL d   1      55.824  -0.331  33.311  0.00  0.00     0.036 A 
ATOM     12  C   UNL d   1      55.850  -1.171  33.142  0.00  0.00     0.008 A 
ATOM     13  C   UNL d   1      56.284  -1.245  32.465  0.00  0.00     0.012 A 
ENDBRANCH   7   9
ENDBRANCH   1   6
BRANCH   4  14
ATOM     14  C   UNL d   1      59.401   0.640  29.396  0.00  0.00     0.008 C 
BRANCH  14  15
ATOM     15  C   UNL d   1      59.853  -0.044  29.230  0.00  0.00     0.001 A 
ATOM     16  C   UNL d   1      60.553  -0.194  29.661  0.00  0.00     0.002 A 
ATOM     17  C   UNL d   1      61.010  -0.874  29.502  0.00  0.00     0.030 A 
ATOM     18  C   UNL d   1      60.772  -1.397  28.919  0.00  0.00     0.140 A 
ATOM     19  C   UNL d   1      60.059  -1.255  28.473  0.00  0.00     0.030 A 
ATOM     20  F   UNL d   1      61.131  -2.042  28.711  0.00  0.00    -0.204 F 
ATOM     21  C   UNL d   1      59.614  -0.574  28.642  0.00  0.00     0.002 A 
ENDBRANCH  14  15
ENDBRANCH   4  14
TORSDOF 4
ENDMDL
MODEL 2
REMARK VINA RESULT:      -4.0      2.420      4.702
REMARK  4 active torsions:
REMARK  status: ('A' for Active; 'I' for Inactive)
REMARK    1  A    between atoms: N_2  and  C_1 
REMARK       I    between atoms: C_3  and  N_2 
REMARK    2  A    between atoms: C_6  and  C_3 
REMARK    3  A    between atoms: C_14  and  C_7 
REMARK    4  A    between atoms: C_15  and  C_14 
ROOT
ATOM      1  C   UNL d   1      57.973  -0.798  30.252  0.00  0.00     0.197 A 
ATOM      2  N   UNL d   1      57.918  -0.098  29.933  0.00  0.00    -0.219 NA
ATOM      3  S   UNL d   1      57.817  -0.726  31.055  0.00  0.00    -0.047 SA
ATOM      4  C   UNL d   1      57.664   0.056  31.212  0.00  0.00     0.051 A 
ATOM      5  C   UNL d   1      57.728   0.456  30.501  0.00  0.00     0.108 A 
ENDROOT
BRANCH   1   6
ATOM      6  N   UNL d   1      58.167  -1.492  29.790  0.00  0.00    -0.182 NA
ATOM      7  C   UNL d   1      58.956  -1.653  29.625  0.00  0.00     0.287 C 
ATOM      8  O   UNL d   1      59.551  -1.148  29.903  0.00  0.00    -0.265 OA
BRANCH   7   9
ATOM      9  C   UNL d   1      59.136  -2.305  29.191  0.00  0.00     0.087 A 
ATOM     10  S   UNL d   1      59.852  -2.490  28.813  0.00  0.00    -0.082 SA
ATOM     11  C   UNL d   1      59.772  -3.184  28.455  0.00  0.00     0.036 A 
ATOM     12  C   UNL d   1      58.975  -3.460  28.606  0.00  0.00     0.008 A 
ATOM     13  C   UNL d   1      58.627  -2.889  29.059  0.00  0.00     0.012 A 
ENDBRANCH   7   9
ENDBRANCH   1   6
BRANCH   4  14
ATOM     14  C   UNL d   1      57.479   0.463  31.887  0.00  0.00     0.008 C 
BRANCH  14  15
ATOM     15  C   UNL d   1      56.807   0.247  32.337  0.00  0.00     0.001 A 
ATOM     16  C   UNL d   1      56.844  -0.412  32.849  0.00  0.00     0.002 A 
ATOM     17  C   UNL d   1      56.179  -0.633  33.302  0.00  0.00     0.030 A 
ATOM     18  C   UNL d   1      55.485  -0.202  33.245  0.00  0.00     0.140 A 
ATOM     19  C   UNL d   1      55.436   0.473  32.725  0.00  0.00     0.030 A 
ATOM     20  F   UNL d   1      54.832  -0.337  33.623  0.00  0.00    -0.204 F 
ATOM     21  C   UNL d   1      56.105   0.682  32.281  0.00  0.00     0.002 A 
ENDBRANCH  14  15
ENDBRANCH   4  14
TORSDOF 4
ENDMDL
MODEL 3
REMARK VINA RESULT:      -3.9      2.013      4.673
REMARK  4 active torsions:
REMARK  status: ('A' for Active; 'I' for Inactive)
REMARK    1  A    between atoms: N_2  and  C_1 
REMARK       I    between atoms: C_3  and  N_2 
REMARK    2  A    between atoms: C_6  and  C_3 
REMARK    3  A    between atoms: C_14  and  C_7 
REMARK    4  A    between atoms: C_15  and  C_14 
ROOT
ATOM      1  C   UNL d   1      58.200   0.133  30.409  0.00  0.00     0.197 A 
ATOM      2  N   UNL d   1      57.547   0.409  30.105  0.00  0.00    -0.219 NA
ATOM      3  S   UNL d   1      58.141   0.181  31.227  0.00  0.00    -0.047 SA
ATOM      4  C   UNL d   1      57.417   0.501  31.409  0.00  0.00     0.051 A 
ATOM      5  C   UNL d   1      57.039   0.647  30.698  0.00  0.00     0.108 A 
ENDROOT
BRANCH   1   6
ATOM      6  N   UNL d   1      58.839  -0.160  29.920  0.00  0.00    -0.182 NA
ATOM      7  C   UNL d   1      58.803  -0.932  29.638  0.00  0.00     0.287 C 
ATOM      8  O   UNL d   1      58.158  -1.415  29.827  0.00  0.00    -0.265 OA
BRANCH   7   9
ATOM      9  C   UNL d   1      59.404  -1.204  29.179  0.00  0.00     0.087 A 
ATOM     10  S   UNL d   1      60.083  -0.799  28.925  0.00  0.00    -0.082 SA
ATOM     11  C   UNL d   1      60.514  -1.286  28.487  0.00  0.00     0.036 A 
ATOM     12  C   UNL d   1      60.101  -2.036  28.455  0.00  0.00     0.008 A 
ATOM     13  C   UNL d   1      59.430  -1.936  28.892  0.00  0.00     0.012 A 
ENDBRANCH   7   9
ENDBRANCH   1   6
BRANCH   4  14
ATOM     14  C   UNL d   1      57.048   0.682  32.106  0.00  0.00     0.008 C 
BRANCH  14  15
ATOM     15  C   UNL d   1      56.523   0.134  32.459  0.00  0.00     0.001 A 
ATOM     16  C   UNL d   1      55.806   0.401  32.793  0.00  0.00     0.002 A 
ATOM     17  C   UNL d   1      55.277  -0.139  33.147  0.00  0.00     0.030 A 
ATOM     18  C   UNL d   1      55.462  -0.936  33.168  0.00  0.00     0.140 A 
ATOM     19  C   UNL d   1      56.192  -1.221  32.829  0.00  0.00     0.030 A 
ATOM     20  F   UNL d   1      55.036  -1.496  33.471  0.00  0.00    -0.204 F 
ATOM     21  C   UNL d   1      56.708  -0.672  32.480  0.00  0.00     0.002 A 
ENDBRANCH  14  15
ENDBRANCH   4  14
TORSDOF 4
ENDMDL
