MODEL 1
REMARK VINA RESULT:      -2.4      0.000      0.000
REMARK  6 active torsions:
REMARK  status: ('A' for Active; 'I' for Inactive)
REMARK    1  A    between atoms: C_10  and  N_3 
REMARK    2  A    between atoms: C_12  and  C_6 
REMARK    3  A    between atoms: C_20  and  C_10 
REMARK    4  A    between atoms: C_11  and  C_17 
REMARK    5  A    between atoms: O_27  and  C_11 
REMARK    6  A    between atoms: N_13  and  C_20 
ROOT
ATOM      1  C   UNL d   1     -40.289  14.538  19.516  0.00  0.00     0.083 A 
ATOM      2  C   UNL d   1     -40.844  14.279  18.947  0.00  0.00     0.161 A 
ATOM      3  N   UNL d   1     -41.305  13.961  20.164  0.00  0.00    -0.270 N 
ATOM      4  C   UNL d   1     -41.468  13.925  19.351  0.00  0.00     0.288 A 
ATOM      5  C   UNL d   1     -39.594  14.920  19.267  0.00  0.00     0.201 A 
ATOM      6  C   UNL d   1     -40.580  14.338  20.261  0.00  0.00     0.072 A 
ATOM      7  O   UNL d   1     -40.700  14.404  18.146  0.00  0.00    -0.302 OA
ATOM      8  C   UNL d   1     -39.460  15.040  18.460  0.00  0.00     0.063 A 
ATOM      9  C   UNL d   1     -40.012  14.783  17.895  0.00  0.00     0.103 A 
ATOM     10  O   UNL d   1     -42.142  13.589  19.008  0.00  0.00    -0.264 OA
ATOM     11  O   UNL d   1     -39.045  15.176  19.824  0.00  0.00    -0.286 OA
ATOM     12  C   UNL d   1     -38.769  15.420  18.218  0.00  0.00     0.017 A 
ATOM     13  C   UNL d   1     -39.862  14.911  17.098  0.00  0.00     0.026 A 
ATOM     14  C   UNL d   1     -38.628  15.544  17.419  0.00  0.00     0.058 A 
ATOM     15  C   UNL d   1     -39.174  15.289  16.859  0.00  0.00     0.013 A 
ATOM     16 CL   UNL d   1     -37.940  15.922  17.180  0.00  0.00    -0.082 Cl
ENDROOT
BRANCH   6  17
ATOM     17  C   UNL d   1     -40.174  14.510  20.959  0.00  0.00     0.016 A 
ATOM     18  C   UNL d   1     -39.627  13.971  21.268  0.00  0.00     0.002 A 
ATOM     19  C   UNL d   1     -39.221  14.143  21.966  0.00  0.00     0.005 A 
ATOM     20  C   UNL d   1     -39.359  14.858  22.362  0.00  0.00     0.063 A 
ATOM     21  C   UNL d   1     -39.909  15.398  22.048  0.00  0.00     0.005 A 
ATOM     22  C   UNL d   1     -40.312  15.224  21.352  0.00  0.00     0.002 A 
BRANCH  20  23
ATOM     23  C   UNL d   1     -38.953  15.029  23.059  0.00  0.00     0.296 C 
ATOM     24  O   UNL d   1     -38.905  14.465  23.654  0.00  0.00    -0.259 OA
BRANCH  23  25
ATOM     25  O   UNL d   1     -38.600  15.763  23.150  0.00  0.00    -0.296 OA
ATOM     26  C   UNL d   1     -37.987  15.874  23.691  0.00  0.00     0.185 C 
ENDBRANCH  23  25
ENDBRANCH  20  23
ENDBRANCH   6  17
BRANCH   3  27
ATOM     27  C   UNL d   1     -41.785  13.670  20.766  0.00  0.00     0.102 C 
BRANCH  27  28
ATOM     28  C   UNL d   1     -42.427  13.182  20.590  0.00  0.00     0.100 C 
BRANCH  28  29
ATOM     29  N   UNL d   1     -42.895  12.873  21.193  0.00  0.00    -0.298 N 
ATOM     30  C   UNL d   1     -43.623  13.209  21.350  0.00  0.00     0.107 A 
ATOM     31  C   UNL d   1     -44.090  12.901  21.952  0.00  0.00     0.142 A 
ATOM     32  O   UNL d   1     -43.825  12.259  22.392  0.00  0.00    -0.300 OA
ATOM     33  C   UNL d   1     -43.092  11.928  22.228  0.00  0.00     0.142 A 
ATOM     34  C   UNL d   1     -42.625  12.236  21.626  0.00  0.00     0.107 A 
ENDBRANCH  28  29
ENDBRANCH  27  28
ENDBRANCH   3  27
TORSDOF 6
ENDMDL
MODEL 2
REMARK VINA RESULT:       0.2      4.645      7.352
REMARK  6 active torsions:
REMARK  status: ('A' for Active; 'I' for Inactive)
REMARK    1  A    between atoms: C_10  and  N_3 
REMARK    2  A    between atoms: C_12  and  C_6 
REMARK    3  A    between atoms: C_20  and  C_10 
REMARK    4  A    between atoms: C_11  and  C_17 
REMARK    5  A    between atoms: O_27  and  C_11 
REMARK    6  A    between atoms: N_13  and  C_20 
ROOT
ATOM      1  C   UNL d   1     -45.762  12.722  22.608  0.00  0.00     0.083 A 
ATOM      2  C   UNL d   1     -45.512  11.980  22.899  0.00  0.00     0.161 A 
ATOM      3  N   UNL d   1     -46.781  12.180  23.282  0.00  0.00    -0.270 N 
ATOM      4  C   UNL d   1     -46.143  11.650  23.314  0.00  0.00     0.288 A 
ATOM      5  C   UNL d   1     -45.236  13.187  22.163  0.00  0.00     0.201 A 
ATOM      6  C   UNL d   1     -46.543  12.837  22.848  0.00  0.00     0.072 A 
ATOM      7  O   UNL d   1     -44.748  11.714  22.744  0.00  0.00    -0.302 OA
ATOM      8  C   UNL d   1     -44.472  12.910  22.014  0.00  0.00     0.063 A 
ATOM      9  C   UNL d   1     -44.223  12.172  22.303  0.00  0.00     0.103 A 
ATOM     10  O   UNL d   1     -46.143  10.916  23.696  0.00  0.00    -0.264 OA
ATOM     11  O   UNL d   1     -45.479  13.919  21.875  0.00  0.00    -0.286 OA
ATOM     12  C   UNL d   1     -43.953  13.374  21.572  0.00  0.00     0.017 A 
ATOM     13  C   UNL d   1     -43.461  11.913  22.145  0.00  0.00     0.026 A 
ATOM     14  C   UNL d   1     -43.192  13.107  21.419  0.00  0.00     0.058 A 
ATOM     15  C   UNL d   1     -42.946  12.376  21.706  0.00  0.00     0.013 A 
ATOM     16 CL   UNL d   1     -42.678  13.571  20.979  0.00  0.00    -0.082 Cl
ENDROOT
BRANCH   6  17
ATOM     17  C   UNL d   1     -46.972  13.517  22.658  0.00  0.00     0.016 A 
ATOM     18  C   UNL d   1     -47.440  13.538  21.976  0.00  0.00     0.002 A 
ATOM     19  C   UNL d   1     -47.869  14.218  21.786  0.00  0.00     0.005 A 
ATOM     20  C   UNL d   1     -47.834  14.883  22.279  0.00  0.00     0.063 A 
ATOM     21  C   UNL d   1     -47.362  14.858  22.965  0.00  0.00     0.005 A 
ATOM     22  C   UNL d   1     -46.935  14.178  23.152  0.00  0.00     0.002 A 
BRANCH  20  23
ATOM     23  C   UNL d   1     -48.263  15.561  22.090  0.00  0.00     0.296 C 
ATOM     24  O   UNL d   1     -48.156  15.922  21.360  0.00  0.00    -0.259 OA
BRANCH  23  25
ATOM     25  O   UNL d   1     -48.792  15.869  22.635  0.00  0.00    -0.296 OA
ATOM     26  C   UNL d   1     -49.605  15.854  22.490  0.00  0.00     0.185 C 
ENDBRANCH  23  25
ENDBRANCH  20  23
ENDBRANCH   6  17
BRANCH   3  27
ATOM     27  C   UNL d   1     -47.520  12.066  23.626  0.00  0.00     0.102 C 
BRANCH  27  28
ATOM     28  C   UNL d   1     -47.936  11.365  23.500  0.00  0.00     0.100 C 
BRANCH  28  29
ATOM     29  N   UNL d   1     -48.756  11.348  23.566  0.00  0.00    -0.298 N 
ATOM     30  C   UNL d   1     -49.170  12.051  23.621  0.00  0.00     0.107 A 
ATOM     31  C   UNL d   1     -49.990  12.035  23.687  0.00  0.00     0.142 A 
ATOM     32  O   UNL d   1     -50.388  11.316  23.698  0.00  0.00    -0.300 OA
ATOM     33  C   UNL d   1     -49.965  10.614  23.643  0.00  0.00     0.142 A 
ATOM     34  C   UNL d   1     -49.146  10.631  23.577  0.00  0.00     0.107 A 
ENDBRANCH  28  29
ENDBRANCH  27  28
ENDBRANCH   3  27
TORSDOF 6
ENDMDL
