MODEL 1
REMARK VINA RESULT:      72.5      0.000      0.000
REMARK  3 active torsions:
REMARK  status: ('A' for Active; 'I' for Inactive)
REMARK    1  A    between atoms: N_5  and  C_1 
REMARK    2  A    between atoms: C_9  and  C_2 
REMARK       I    between atoms: C_8  and  N_5 
REMARK    3  A    between atoms: C_10  and  C_8 
ROOT
ATOM      1  C   UNL d   1     -58.098 -98.825 -45.058  0.00  0.00     0.155 A 
ATOM      2  C   UNL d   1     -57.333 -98.842 -44.750  0.00  0.00     0.080 A 
ATOM      3  N   UNL d   1     -58.750 -98.800 -44.544  0.00  0.00    -0.289 N 
ATOM      4  C   UNL d   1     -57.220 -98.835 -43.927  0.00  0.00     0.200 A 
ATOM      5  C   UNL d   1     -57.869 -98.810 -43.420  0.00  0.00     0.055 A 
ATOM      6  C   UNL d   1     -58.634 -98.793 -43.728  0.00  0.00     0.069 A 
ATOM      7  O   UNL d   1     -56.451 -98.852 -43.617  0.00  0.00    -0.286 OA
ATOM      8  C   UNL d   1     -59.515 -98.783 -44.852  0.00  0.00     0.101 C 
ATOM      9  C   UNL d   1     -57.752 -98.803 -42.605  0.00  0.00     0.005 A 
ATOM     10  C   UNL d   1     -59.279 -98.769 -43.229  0.00  0.00     0.018 A 
ATOM     11  C   UNL d   1     -58.401 -98.779 -42.098  0.00  0.00     0.000 A 
ATOM     12  C   UNL d   1     -59.166 -98.761 -42.407  0.00  0.00     0.002 A 
ENDROOT
BRANCH   1  13
ATOM     13  N   UNL d   1     -58.218 -98.832 -45.887  0.00  0.00    -0.190 NA
ATOM     14  C   UNL d   1     -58.978 -98.899 -46.212  0.00  0.00     0.286 C 
ATOM     15  O   UNL d   1     -59.620 -98.960 -45.704  0.00  0.00    -0.265 OA
BRANCH  14  16
ATOM     16  C   UNL d   1     -59.094 -98.906 -47.028  0.00  0.00     0.087 A 
ATOM     17  S   UNL d   1     -59.855 -98.832 -47.337  0.00  0.00    -0.082 SA
ATOM     18  C   UNL d   1     -59.794 -98.858 -48.160  0.00  0.00     0.036 A 
ATOM     19  C   UNL d   1     -58.999 -98.948 -48.363  0.00  0.00     0.008 A 
ATOM     20  C   UNL d   1     -58.561 -98.978 -47.659  0.00  0.00     0.012 A 
ENDBRANCH  14  16
ENDBRANCH   1  13
BRANCH   2  21
ATOM     21  C   UNL d   1     -56.685 -98.866 -45.256  0.00  0.00     0.035 A 
ATOM     22  S   UNL d   1     -55.895 -98.770 -45.033  0.00  0.00    -0.086 SA
ATOM     23  C   UNL d   1     -55.433 -98.835 -45.715  0.00  0.00     0.035 A 
ATOM     24  C   UNL d   1     -55.936 -98.973 -46.362  0.00  0.00     0.007 A 
ATOM     25  C   UNL d   1     -56.706 -98.990 -46.067  0.00  0.00     0.007 A 
ENDBRANCH   2  21
TORSDOF 3
ENDMDL
