MODEL 1
REMARK VINA RESULT:      17.6      0.000      0.000
REMARK  4 active torsions:
REMARK  status: ('A' for Active; 'I' for Inactive)
REMARK    1  A    between atoms: C_4  and  C_10 
REMARK    2  A    between atoms: C_18  and  C_7 
REMARK       I    between atoms: C_10  and  N_17 
REMARK    3  A    between atoms: N_17  and  C_20 
REMARK    4  A    between atoms: C_20  and  C_18 
ROOT
ATOM      1  C   UNL d   1      24.764  12.812  -2.654  0.00  0.00     0.042 C 
ENDROOT
BRANCH   1   2
ATOM      2  C   UNL d   1      24.740  12.745  -3.482  0.00  0.00     0.102 A 
ATOM      3  N   UNL d   1      24.729  13.369  -4.012  0.00  0.00    -0.227 NA
ATOM      4  C   UNL d   1      24.707  13.067  -4.770  0.00  0.00     0.148 A 
ATOM      5  N   UNL d   1      24.703  12.243  -4.719  0.00  0.00    -0.288 N 
ATOM      6  C   UNL d   1      24.688  13.423  -5.515  0.00  0.00     0.035 A 
ATOM      7  C   UNL d   1      24.725  12.044  -3.914  0.00  0.00     0.101 A 
ATOM      8  C   UNL d   1      24.682  11.780  -5.399  0.00  0.00     0.082 A 
ATOM      9  C   UNL d   1      24.664  12.139  -6.134  0.00  0.00     0.019 A 
ATOM     10  C   UNL d   1      24.667  12.969  -6.198  0.00  0.00     0.004 A 
ATOM     11  C   UNL d   1      24.691  14.256  -5.579  0.00  0.00     0.003 C 
ENDBRANCH   1   2
BRANCH   1  12
ATOM     12  C   UNL d   1      24.345  12.275  -2.183  0.00  0.00     0.104 C 
BRANCH  12  13
ATOM     13  N   UNL d   1      24.697  11.954  -1.515  0.00  0.00    -0.205 NA
ATOM     14  C   UNL d   1      24.399  12.132  -0.764  0.00  0.00     0.302 C 
ATOM     15  O   UNL d   1      24.751  11.812  -0.105  0.00  0.00    -0.263 OA
BRANCH  14  16
ATOM     16  C   UNL d   1      23.746  12.634  -0.693  0.00  0.00     0.158 A 
ATOM     17  O   UNL d   1      22.988  12.606  -1.005  0.00  0.00    -0.296 OA
ATOM     18  C   UNL d   1      22.570  13.268  -0.740  0.00  0.00     0.134 A 
ATOM     19 BR   UNL d   1      21.789  13.477  -0.907  0.00  0.00    -0.022 Br
ATOM     20  C   UNL d   1      23.084  13.691  -0.267  0.00  0.00     0.034 A 
ATOM     21  C   UNL d   1      23.807  13.314  -0.230  0.00  0.00     0.032 A 
ENDBRANCH  14  16
ENDBRANCH  12  13
ENDBRANCH   1  12
TORSDOF 4
ENDMDL
