MODEL 1
REMARK VINA RESULT:     -10.1      0.000      0.000
REMARK  3 active torsions:
REMARK  status: ('A' for Active; 'I' for Inactive)
REMARK    1  A    between atoms: S_9  and  C_3 
REMARK    2  A    between atoms: C_12  and  S_9 
REMARK    3  A    between atoms: C_14  and  C_12 
ROOT
ATOM      1  C   UNL d   1      53.626  32.433  54.172  0.00  0.00     0.155 A 
ATOM      2  C   UNL d   1      52.997  32.265  53.659  0.00  0.00     0.107 A 
ATOM      3  C   UNL d   1      52.549  33.616  53.773  0.00  0.00     0.182 A 
ATOM      4  N   UNL d   1      53.170  33.786  54.280  0.00  0.00    -0.250 N 
ATOM      5  N   UNL d   1      52.454  32.861  53.458  0.00  0.00    -0.220 NA
ATOM      6  C   UNL d   1      53.713  33.190  54.481  0.00  0.00     0.285 A 
ATOM      7  N   UNL d   1      54.070  31.744  54.271  0.00  0.00    -0.239 NA
ATOM      8  C   UNL d   1      53.046  31.473  53.438  0.00  0.00     0.037 A 
ATOM      9  C   UNL d   1      53.715  31.145  53.817  0.00  0.00     0.083 A 
ATOM     10  O   UNL d   1      54.342  33.367  54.997  0.00  0.00    -0.265 OA
ATOM     11  C   UNL d   1      53.257  34.551  54.592  0.00  0.00     0.104 C 
ATOM     12  C   UNL d   1      52.582  31.001  52.947  0.00  0.00     0.003 A 
ATOM     13  C   UNL d   1      53.910  30.348  53.700  0.00  0.00     0.019 A 
ATOM     14  C   UNL d   1      52.778  30.205  52.830  0.00  0.00     0.000 A 
ATOM     15  C   UNL d   1      53.438  29.882  53.206  0.00  0.00     0.002 A 
ENDROOT
BRANCH   3  16
ATOM     16  S   UNL d   1      52.009  34.212  53.575  0.00  0.00    -0.050 SA
BRANCH  16  17
ATOM     17  C   UNL d   1      51.805  34.345  52.785  0.00  0.00     0.032 C 
ATOM     18  C   UNL d   1      52.393  34.402  52.210  0.00  0.00     0.007 C 
BRANCH  17  19
ATOM     19  C   UNL d   1      51.008  34.417  52.588  0.00  0.00     0.006 A 
ATOM     20  C   UNL d   1      50.751  34.180  51.845  0.00  0.00     0.001 A 
ATOM     21  C   UNL d   1      49.949  34.247  51.632  0.00  0.00     0.000 A 
ATOM     22  C   UNL d   1      49.413  34.554  52.172  0.00  0.00     0.000 A 
ATOM     23  C   UNL d   1      49.661  34.795  52.918  0.00  0.00     0.000 A 
ATOM     24  C   UNL d   1      50.463  34.725  53.124  0.00  0.00     0.001 A 
ENDBRANCH  17  19
ENDBRANCH  16  17
ENDBRANCH   3  16
TORSDOF 3
ENDMDL
MODEL 2
REMARK VINA RESULT:      -9.7      1.037      3.931
REMARK  3 active torsions:
REMARK  status: ('A' for Active; 'I' for Inactive)
REMARK    1  A    between atoms: S_9  and  C_3 
REMARK    2  A    between atoms: C_12  and  S_9 
REMARK    3  A    between atoms: C_14  and  C_12 
ROOT
ATOM      1  C   UNL d   1      52.751  34.201  54.082  0.00  0.00     0.155 A 
ATOM      2  C   UNL d   1      52.373  33.545  53.743  0.00  0.00     0.107 A 
ATOM      3  C   UNL d   1      53.406  32.697  54.246  0.00  0.00     0.182 A 
ATOM      4  N   UNL d   1      53.782  33.344  54.583  0.00  0.00    -0.250 N 
ATOM      5  N   UNL d   1      52.704  32.787  53.826  0.00  0.00    -0.220 NA
ATOM      6  C   UNL d   1      53.451  34.101  54.500  0.00  0.00     0.285 A 
ATOM      7  N   UNL d   1      52.302  34.873  53.912  0.00  0.00    -0.239 NA
ATOM      8  C   UNL d   1      51.691  33.806  53.362  0.00  0.00     0.037 A 
ATOM      9  C   UNL d   1      51.644  34.633  53.465  0.00  0.00     0.083 A 
ATOM     10  O   UNL d   1      53.837  34.755  54.843  0.00  0.00    -0.265 OA
ATOM     11  C   UNL d   1      54.490  33.242  55.005  0.00  0.00     0.104 C 
ATOM     12  C   UNL d   1      51.105  33.412  52.936  0.00  0.00     0.003 A 
ATOM     13  C   UNL d   1      51.009  35.058  53.141  0.00  0.00     0.019 A 
ATOM     14  C   UNL d   1      50.472  33.836  52.612  0.00  0.00     0.000 A 
ATOM     15  C   UNL d   1      50.426  34.654  52.715  0.00  0.00     0.002 A 
ENDROOT
BRANCH   3  16
ATOM     16  S   UNL d   1      53.737  31.943  54.331  0.00  0.00    -0.050 SA
BRANCH  16  17
ATOM     17  C   UNL d   1      53.820  31.447  53.674  0.00  0.00     0.032 C 
ATOM     18  C   UNL d   1      54.189  31.723  52.991  0.00  0.00     0.007 C 
BRANCH  17  19
ATOM     19  C   UNL d   1      53.526  30.677  53.720  0.00  0.00     0.006 A 
ATOM     20  C   UNL d   1      53.092  30.373  53.093  0.00  0.00     0.001 A 
ATOM     21  C   UNL d   1      52.789  29.598  53.124  0.00  0.00     0.000 A 
ATOM     22  C   UNL d   1      52.928  29.137  53.789  0.00  0.00     0.000 A 
ATOM     23  C   UNL d   1      53.362  29.434  54.421  0.00  0.00     0.000 A 
ATOM     24  C   UNL d   1      53.661  30.208  54.384  0.00  0.00     0.001 A 
ENDBRANCH  17  19
ENDBRANCH  16  17
ENDBRANCH   3  16
TORSDOF 3
ENDMDL
MODEL 3
REMARK VINA RESULT:      -8.8      1.078      2.351
REMARK  3 active torsions:
REMARK  status: ('A' for Active; 'I' for Inactive)
REMARK    1  A    between atoms: S_9  and  C_3 
REMARK    2  A    between atoms: C_12  and  S_9 
REMARK    3  A    between atoms: C_14  and  C_12 
ROOT
ATOM      1  C   UNL d   1      53.611  32.489  53.890  0.00  0.00     0.155 A 
ATOM      2  C   UNL d   1      53.313  33.247  54.046  0.00  0.00     0.107 A 
ATOM      3  C   UNL d   1      52.155  32.947  53.265  0.00  0.00     0.182 A 
ATOM      4  N   UNL d   1      52.447  32.196  53.109  0.00  0.00    -0.250 N 
ATOM      5  N   UNL d   1      52.579  33.477  53.731  0.00  0.00    -0.220 NA
ATOM      6  C   UNL d   1      53.180  31.966  53.424  0.00  0.00     0.285 A 
ATOM      7  N   UNL d   1      54.340  32.415  54.270  0.00  0.00    -0.239 NA
ATOM      8  C   UNL d   1      53.854  33.646  54.522  0.00  0.00     0.037 A 
ATOM      9  C   UNL d   1      54.495  33.131  54.663  0.00  0.00     0.083 A 
ATOM     10  O   UNL d   1      53.472  31.203  53.263  0.00  0.00    -0.265 OA
ATOM     11  C   UNL d   1      52.011  31.669  52.638  0.00  0.00     0.104 C 
ATOM     12  C   UNL d   1      53.857  34.403  54.847  0.00  0.00     0.003 A 
ATOM     13  C   UNL d   1      55.134  33.380  55.130  0.00  0.00     0.019 A 
ATOM     14  C   UNL d   1      54.496  34.652  55.313  0.00  0.00     0.000 A 
ATOM     15  C   UNL d   1      55.129  34.142  55.452  0.00  0.00     0.002 A 
ENDROOT
BRANCH   3  16
ATOM     16  S   UNL d   1      51.424  33.174  52.950  0.00  0.00    -0.050 SA
BRANCH  16  17
ATOM     17  C   UNL d   1      51.345  33.897  52.557  0.00  0.00     0.032 C 
ATOM     18  C   UNL d   1      52.005  34.262  52.226  0.00  0.00     0.007 C 
BRANCH  17  19
ATOM     19  C   UNL d   1      50.597  34.241  52.506  0.00  0.00     0.006 A 
ATOM     20  C   UNL d   1      50.179  34.197  51.801  0.00  0.00     0.001 A 
ATOM     21  C   UNL d   1      49.423  34.539  51.734  0.00  0.00     0.000 A 
ATOM     22  C   UNL d   1      49.095  34.922  52.382  0.00  0.00     0.000 A 
ATOM     23  C   UNL d   1      49.506  34.971  53.092  0.00  0.00     0.000 A 
ATOM     24  C   UNL d   1      50.261  34.628  53.152  0.00  0.00     0.001 A 
ENDBRANCH  17  19
ENDBRANCH  16  17
ENDBRANCH   3  16
TORSDOF 3
ENDMDL
MODEL 4
REMARK VINA RESULT:      -7.8      1.568      4.084
REMARK  3 active torsions:
REMARK  status: ('A' for Active; 'I' for Inactive)
REMARK    1  A    between atoms: S_9  and  C_3 
REMARK    2  A    between atoms: C_12  and  S_9 
REMARK    3  A    between atoms: C_14  and  C_12 
ROOT
ATOM      1  C   UNL d   1      52.819  33.850  53.900  0.00  0.00     0.155 A 
ATOM      2  C   UNL d   1      53.351  33.250  54.114  0.00  0.00     0.107 A 
ATOM      3  C   UNL d   1      52.569  32.305  53.383  0.00  0.00     0.182 A 
ATOM      4  N   UNL d   1      52.042  32.895  53.170  0.00  0.00    -0.250 N 
ATOM      5  N   UNL d   1      53.225  32.472  53.853  0.00  0.00    -0.220 NA
ATOM      6  C   UNL d   1      52.168  33.674  53.431  0.00  0.00     0.285 A 
ATOM      7  N   UNL d   1      53.082  34.558  54.234  0.00  0.00    -0.239 NA
ATOM      8  C   UNL d   1      53.944  33.582  54.580  0.00  0.00     0.037 A 
ATOM      9  C   UNL d   1      53.779  34.397  54.657  0.00  0.00     0.083 A 
ATOM     10  O   UNL d   1      51.630  34.270  53.212  0.00  0.00    -0.265 OA
ATOM     11  C   UNL d   1      51.384  32.717  52.696  0.00  0.00     0.104 C 
ATOM     12  C   UNL d   1      54.609  33.262  54.946  0.00  0.00     0.003 A 
ATOM     13  C   UNL d   1      54.284  34.884  55.100  0.00  0.00     0.019 A 
ATOM     14  C   UNL d   1      55.113  33.748  55.389  0.00  0.00     0.000 A 
ATOM     15  C   UNL d   1      54.950  34.554  55.464  0.00  0.00     0.002 A 
ENDROOT
BRANCH   3  16
ATOM     16  S   UNL d   1      52.441  31.529  53.122  0.00  0.00    -0.050 SA
BRANCH  16  17
ATOM     17  C   UNL d   1      53.075  31.006  53.039  0.00  0.00     0.032 C 
ATOM     18  C   UNL d   1      53.744  31.231  52.613  0.00  0.00     0.007 C 
BRANCH  17  19
ATOM     19  C   UNL d   1      53.023  30.261  53.390  0.00  0.00     0.006 A 
ATOM     20  C   UNL d   1      53.606  30.020  53.916  0.00  0.00     0.001 A 
ATOM     21  C   UNL d   1      53.567  29.272  54.278  0.00  0.00     0.000 A 
ATOM     22  C   UNL d   1      52.939  28.773  54.104  0.00  0.00     0.000 A 
ATOM     23  C   UNL d   1      52.352  29.005  53.579  0.00  0.00     0.000 A 
ATOM     24  C   UNL d   1      52.396  29.754  53.221  0.00  0.00     0.001 A 
ENDBRANCH  17  19
ENDBRANCH  16  17
ENDBRANCH   3  16
TORSDOF 3
ENDMDL
