MODEL 1
REMARK VINA RESULT:      -8.2      0.000      0.000
REMARK  6 active torsions:
REMARK  status: ('A' for Active; 'I' for Inactive)
REMARK    1  A    between atoms: C_9  and  N_1 
REMARK    2  A    between atoms: N_6  and  C_2 
REMARK    3  A    between atoms: C_7  and  C_5 
REMARK    4  A    between atoms: C_13  and  N_6 
REMARK    5  A    between atoms: C_8  and  C_7 
REMARK       I    between atoms: N_10  and  C_8 
REMARK    6  A    between atoms: C_14  and  N_10 
ROOT
ATOM      1  N   UNL d   1      53.003  31.581  53.473  0.00  0.00    -0.254 N 
ATOM      2  C   UNL d   1      53.536  32.173  53.689  0.00  0.00     0.182 A 
ATOM      3  C   UNL d   1      52.372  31.916  53.125  0.00  0.00     0.272 A 
ATOM      4  S   UNL d   1      53.195  32.905  53.453  0.00  0.00    -0.045 SA
ATOM      5  C   UNL d   1      52.471  32.739  53.102  0.00  0.00     0.093 A 
ATOM      6  O   UNL d   1      51.717  31.517  52.829  0.00  0.00    -0.266 OA
ENDROOT
BRANCH   5   7
ATOM      7  C   UNL d   1      51.953  33.283  52.792  0.00  0.00     0.074 C 
BRANCH   7   8
ATOM      8  C   UNL d   1      52.237  33.859  52.276  0.00  0.00     0.280 C 
ATOM      9  N   UNL d   1      51.715  34.477  52.042  0.00  0.00    -0.208 NA
ATOM     10  O   UNL d   1      52.988  33.831  52.006  0.00  0.00    -0.265 OA
BRANCH   9  11
ATOM     11  C   UNL d   1      50.952  34.490  52.328  0.00  0.00     0.085 A 
ATOM     12  C   UNL d   1      50.326  34.228  51.847  0.00  0.00     0.019 A 
ATOM     13  C   UNL d   1      49.542  34.237  52.129  0.00  0.00     0.002 A 
ATOM     14  C   UNL d   1      49.401  34.511  52.895  0.00  0.00     0.000 A 
ATOM     15  C   UNL d   1      50.025  34.774  53.378  0.00  0.00     0.002 A 
ATOM     16  C   UNL d   1      50.798  34.764  53.096  0.00  0.00     0.019 A 
ENDBRANCH   9  11
ENDBRANCH   7   8
ENDBRANCH   5   7
BRANCH   1  17
ATOM     17  C   UNL d   1      53.106  30.785  53.595  0.00  0.00     0.069 A 
ATOM     18  C   UNL d   1      53.406  30.316  52.978  0.00  0.00     0.018 A 
ATOM     19  C   UNL d   1      53.516  29.500  53.091  0.00  0.00     0.002 A 
ATOM     20  C   UNL d   1      53.325  29.162  53.821  0.00  0.00     0.000 A 
ATOM     21  C   UNL d   1      53.026  29.632  54.438  0.00  0.00     0.002 A 
ATOM     22  C   UNL d   1      52.920  30.439  54.317  0.00  0.00     0.018 A 
ENDBRANCH   1  17
BRANCH   2  23
ATOM     23  N   UNL d   1      54.261  32.130  54.059  0.00  0.00    -0.222 NA
BRANCH  23  24
ATOM     24  C   UNL d   1      54.548  32.761  54.492  0.00  0.00     0.084 A 
ATOM     25  C   UNL d   1      54.248  32.917  55.244  0.00  0.00     0.019 A 
ATOM     26  C   UNL d   1      54.546  33.564  55.679  0.00  0.00     0.002 A 
ATOM     27  C   UNL d   1      55.124  34.031  55.366  0.00  0.00     0.000 A 
ATOM     28  C   UNL d   1      55.428  33.874  54.608  0.00  0.00     0.002 A 
ATOM     29  C   UNL d   1      55.139  33.237  54.171  0.00  0.00     0.019 A 
ENDBRANCH  23  24
ENDBRANCH   2  23
TORSDOF 6
ENDMDL
MODEL 2
REMARK VINA RESULT:      -7.7      1.039      4.035
REMARK  6 active torsions:
REMARK  status: ('A' for Active; 'I' for Inactive)
REMARK    1  A    between atoms: C_9  and  N_1 
REMARK    2  A    between atoms: N_6  and  C_2 
REMARK    3  A    between atoms: C_7  and  C_5 
REMARK    4  A    between atoms: C_13  and  N_6 
REMARK    5  A    between atoms: C_8  and  C_7 
REMARK       I    between atoms: N_10  and  C_8 
REMARK    6  A    between atoms: C_14  and  N_10 
ROOT
ATOM      1  N   UNL d   1      52.030  32.900  53.166  0.00  0.00    -0.254 N 
ATOM      2  C   UNL d   1      52.808  33.012  53.417  0.00  0.00     0.182 A 
ATOM      3  C   UNL d   1      51.884  32.121  53.114  0.00  0.00     0.272 A 
ATOM      4  S   UNL d   1      53.142  32.247  53.519  0.00  0.00    -0.045 SA
ATOM      5  C   UNL d   1      52.563  31.696  53.329  0.00  0.00     0.093 A 
ATOM      6  O   UNL d   1      51.174  31.778  52.883  0.00  0.00    -0.266 OA
ENDROOT
BRANCH   5   7
ATOM      7  C   UNL d   1      52.646  30.888  53.349  0.00  0.00     0.074 C 
BRANCH   7   8
ATOM      8  C   UNL d   1      53.065  30.512  52.749  0.00  0.00     0.280 C 
ATOM      9  N   UNL d   1      53.404  29.758  52.910  0.00  0.00    -0.208 NA
ATOM     10  O   UNL d   1      53.147  30.854  52.031  0.00  0.00    -0.265 OA
BRANCH   9  11
ATOM     11  C   UNL d   1      53.310  29.423  53.647  0.00  0.00     0.085 A 
ATOM     12  C   UNL d   1      53.916  29.493  54.212  0.00  0.00     0.019 A 
ATOM     13  C   UNL d   1      53.830  29.155  54.970  0.00  0.00     0.002 A 
ATOM     14  C   UNL d   1      53.133  28.750  55.145  0.00  0.00     0.000 A 
ATOM     15  C   UNL d   1      52.525  28.679  54.581  0.00  0.00     0.002 A 
ATOM     16  C   UNL d   1      52.613  29.014  53.834  0.00  0.00     0.019 A 
ENDBRANCH   9  11
ENDBRANCH   7   8
ENDBRANCH   5   7
BRANCH   1  17
ATOM     17  C   UNL d   1      51.498  33.491  53.000  0.00  0.00     0.069 A 
ATOM     18  C   UNL d   1      51.525  33.861  52.257  0.00  0.00     0.018 A 
ATOM     19  C   UNL d   1      50.985  34.467  52.074  0.00  0.00     0.002 A 
ATOM     20  C   UNL d   1      50.426  34.695  52.637  0.00  0.00     0.000 A 
ATOM     21  C   UNL d   1      50.400  34.324  53.381  0.00  0.00     0.002 A 
ATOM     22  C   UNL d   1      50.937  33.725  53.553  0.00  0.00     0.018 A 
ENDBRANCH   1  17
BRANCH   2  23
ATOM     23  N   UNL d   1      53.231  33.695  53.558  0.00  0.00    -0.222 NA
BRANCH  23  24
ATOM     24  C   UNL d   1      53.860  33.697  54.079  0.00  0.00     0.084 A 
ATOM     25  C   UNL d   1      53.728  33.805  54.886  0.00  0.00     0.019 A 
ATOM     26  C   UNL d   1      54.377  33.806  55.412  0.00  0.00     0.002 A 
ATOM     27  C   UNL d   1      55.126  33.701  55.131  0.00  0.00     0.000 A 
ATOM     28  C   UNL d   1      55.260  33.592  54.318  0.00  0.00     0.002 A 
ATOM     29  C   UNL d   1      54.625  33.590  53.792  0.00  0.00     0.019 A 
ENDBRANCH  23  24
ENDBRANCH   2  23
TORSDOF 6
ENDMDL
MODEL 3
REMARK VINA RESULT:      -6.7      1.042      4.422
REMARK  6 active torsions:
REMARK  status: ('A' for Active; 'I' for Inactive)
REMARK    1  A    between atoms: C_9  and  N_1 
REMARK    2  A    between atoms: N_6  and  C_2 
REMARK    3  A    between atoms: C_7  and  C_5 
REMARK    4  A    between atoms: C_13  and  N_6 
REMARK    5  A    between atoms: C_8  and  C_7 
REMARK       I    between atoms: N_10  and  C_8 
REMARK    6  A    between atoms: C_14  and  N_10 
ROOT
ATOM      1  N   UNL d   1      53.773  33.002  54.097  0.00  0.00    -0.254 N 
ATOM      2  C   UNL d   1      53.186  33.202  53.553  0.00  0.00     0.182 A 
ATOM      3  C   UNL d   1      53.775  32.213  54.197  0.00  0.00     0.272 A 
ATOM      4  S   UNL d   1      52.818  32.484  53.317  0.00  0.00    -0.045 SA
ATOM      5  C   UNL d   1      53.188  31.872  53.721  0.00  0.00     0.093 A 
ATOM      6  O   UNL d   1      54.276  31.792  54.693  0.00  0.00    -0.266 OA
ENDROOT
BRANCH   5   7
ATOM      7  C   UNL d   1      53.008  31.081  53.662  0.00  0.00     0.074 C 
BRANCH   7   8
ATOM      8  C   UNL d   1      52.958  30.736  52.917  0.00  0.00     0.280 C 
ATOM      9  N   UNL d   1      52.968  29.895  52.864  0.00  0.00    -0.208 NA
ATOM     10  O   UNL d   1      52.900  31.187  52.260  0.00  0.00    -0.265 OA
BRANCH   9  11
ATOM     11  C   UNL d   1      53.027  29.450  53.544  0.00  0.00     0.085 A 
ATOM     12  C   UNL d   1      53.757  29.113  53.755  0.00  0.00     0.019 A 
ATOM     13  C   UNL d   1      53.829  28.656  54.449  0.00  0.00     0.002 A 
ATOM     14  C   UNL d   1      53.161  28.546  54.920  0.00  0.00     0.000 A 
ATOM     15  C   UNL d   1      52.429  28.882  54.711  0.00  0.00     0.002 A 
ATOM     16  C   UNL d   1      52.362  29.332  54.026  0.00  0.00     0.019 A 
ENDBRANCH   9  11
ENDBRANCH   7   8
ENDBRANCH   5   7
BRANCH   1  17
ATOM     17  C   UNL d   1      54.270  33.525  54.470  0.00  0.00     0.069 A 
ATOM     18  C   UNL d   1      55.029  33.654  54.158  0.00  0.00     0.018 A 
ATOM     19  C   UNL d   1      55.547  34.187  54.530  0.00  0.00     0.002 A 
ATOM     20  C   UNL d   1      55.299  34.585  55.211  0.00  0.00     0.000 A 
ATOM     21  C   UNL d   1      54.539  34.454  55.522  0.00  0.00     0.002 A 
ATOM     22  C   UNL d   1      54.034  33.925  55.147  0.00  0.00     0.018 A 
ENDBRANCH   1  17
BRANCH   2  23
ATOM     23  N   UNL d   1      52.956  33.927  53.258  0.00  0.00    -0.222 NA
BRANCH  23  24
ATOM     24  C   UNL d   1      52.192  34.047  52.993  0.00  0.00     0.084 A 
ATOM     25  C   UNL d   1      51.571  34.099  53.532  0.00  0.00     0.019 A 
ATOM     26  C   UNL d   1      50.794  34.222  53.253  0.00  0.00     0.002 A 
ATOM     27  C   UNL d   1      50.654  34.288  52.461  0.00  0.00     0.000 A 
ATOM     28  C   UNL d   1      51.279  34.236  51.917  0.00  0.00     0.002 A 
ATOM     29  C   UNL d   1      52.050  34.115  52.184  0.00  0.00     0.019 A 
ENDBRANCH  23  24
ENDBRANCH   2  23
TORSDOF 6
ENDMDL
MODEL 4
REMARK VINA RESULT:      -6.4      0.804      2.863
REMARK  6 active torsions:
REMARK  status: ('A' for Active; 'I' for Inactive)
REMARK    1  A    between atoms: C_9  and  N_1 
REMARK    2  A    between atoms: N_6  and  C_2 
REMARK    3  A    between atoms: C_7  and  C_5 
REMARK    4  A    between atoms: C_13  and  N_6 
REMARK    5  A    between atoms: C_8  and  C_7 
REMARK       I    between atoms: N_10  and  C_8 
REMARK    6  A    between atoms: C_14  and  N_10 
ROOT
ATOM      1  N   UNL d   1      53.523  33.257  53.990  0.00  0.00    -0.254 N 
ATOM      2  C   UNL d   1      53.409  32.556  53.570  0.00  0.00     0.182 A 
ATOM      3  C   UNL d   1      52.954  33.775  53.790  0.00  0.00     0.272 A 
ATOM      4  S   UNL d   1      52.727  32.669  53.091  0.00  0.00    -0.045 SA
ATOM      5  C   UNL d   1      52.448  33.429  53.232  0.00  0.00     0.093 A 
ATOM      6  O   UNL d   1      52.871  34.537  54.085  0.00  0.00    -0.266 OA
ENDROOT
BRANCH   5   7
ATOM      7  C   UNL d   1      51.797  33.772  52.886  0.00  0.00     0.074 C 
BRANCH   7   8
ATOM      8  C   UNL d   1      51.847  34.032  52.107  0.00  0.00     0.280 C 
ATOM      9  N   UNL d   1      51.163  34.376  51.756  0.00  0.00    -0.208 NA
ATOM     10  O   UNL d   1      52.527  33.959  51.694  0.00  0.00    -0.265 OA
BRANCH   9  11
ATOM     11  C   UNL d   1      50.478  34.443  52.192  0.00  0.00     0.085 A 
ATOM     12  C   UNL d   1      50.393  35.067  52.736  0.00  0.00     0.019 A 
ATOM     13  C   UNL d   1      49.696  35.145  53.187  0.00  0.00     0.002 A 
ATOM     14  C   UNL d   1      49.094  34.591  53.081  0.00  0.00     0.000 A 
ATOM     15  C   UNL d   1      49.176  33.966  52.538  0.00  0.00     0.002 A 
ATOM     16  C   UNL d   1      49.865  33.892  52.095  0.00  0.00     0.019 A 
ENDBRANCH   9  11
ENDBRANCH   7   8
ENDBRANCH   5   7
BRANCH   1  17
ATOM     17  C   UNL d   1      54.121  33.397  54.522  0.00  0.00     0.069 A 
ATOM     18  C   UNL d   1      54.864  33.641  54.241  0.00  0.00     0.018 A 
ATOM     19  C   UNL d   1      55.484  33.787  54.775  0.00  0.00     0.002 A 
ATOM     20  C   UNL d   1      55.353  33.687  55.585  0.00  0.00     0.000 A 
ATOM     21  C   UNL d   1      54.609  33.444  55.865  0.00  0.00     0.002 A 
ATOM     22  C   UNL d   1      54.002  33.301  55.329  0.00  0.00     0.018 A 
ENDBRANCH   1  17
BRANCH   2  23
ATOM     23  N   UNL d   1      53.831  31.859  53.570  0.00  0.00    -0.222 NA
BRANCH  23  24
ATOM     24  C   UNL d   1      53.452  31.140  53.481  0.00  0.00     0.084 A 
ATOM     25  C   UNL d   1      53.242  30.873  52.730  0.00  0.00     0.019 A 
ATOM     26  C   UNL d   1      52.855  30.139  52.648  0.00  0.00     0.002 A 
ATOM     27  C   UNL d   1      52.687  29.694  53.301  0.00  0.00     0.000 A 
ATOM     28  C   UNL d   1      52.898  29.963  54.058  0.00  0.00     0.002 A 
ATOM     29  C   UNL d   1      53.281  30.688  54.148  0.00  0.00     0.019 A 
ENDBRANCH  23  24
ENDBRANCH   2  23
TORSDOF 6
ENDMDL
