MODEL 1
REMARK VINA RESULT:      58.1      0.000      0.000
REMARK  3 active torsions:
REMARK  status: ('A' for Active; 'I' for Inactive)
REMARK    1  A    between atoms: C_6  and  C_1 
REMARK    2  A    between atoms: C_8  and  C_3 
REMARK    3  A    between atoms: C_9  and  C_4 
ROOT
ATOM      1  C   UNL d   1     -58.681 -99.152 -42.926  0.00  0.00     0.306 A 
ATOM      2  N   UNL d   1     -59.345 -99.046 -43.393  0.00  0.00    -0.152 NA
ATOM      3  C   UNL d   1     -57.928 -99.107 -43.260  0.00  0.00     0.114 A 
ATOM      4  C   UNL d   1     -57.835 -98.955 -44.064  0.00  0.00     0.094 A 
ATOM      5  C   UNL d   1     -59.260 -98.894 -44.194  0.00  0.00     0.371 A 
ATOM      6  N   UNL d   1     -58.507 -98.848 -44.528  0.00  0.00    -0.191 NA
ATOM      7  O   UNL d   1     -59.928 -98.785 -44.669  0.00  0.00    -0.242 OA
ATOM      8  O   UNL d   1     -58.011 -99.260 -42.456  0.00  0.00    -0.266 OA
ENDROOT
BRANCH   4   9
ATOM      9  C   UNL d   1     -57.086 -98.910 -44.397  0.00  0.00     0.018 A 
ATOM     10  C   UNL d   1     -56.416 -98.947 -43.917  0.00  0.00     0.004 A 
ATOM     11  C   UNL d   1     -55.658 -98.901 -44.254  0.00  0.00     0.030 A 
ATOM     12  C   UNL d   1     -55.574 -98.819 -45.064  0.00  0.00     0.140 A 
ATOM     13  C   UNL d   1     -56.252 -98.782 -45.551  0.00  0.00     0.030 A 
ATOM     14  F   UNL d   1     -54.825 -98.774 -45.397  0.00  0.00    -0.204 F 
ATOM     15  C   UNL d   1     -56.997 -98.827 -45.210  0.00  0.00     0.004 A 
ENDBRANCH   4   9
BRANCH   3  16
ATOM     16  C   UNL d   1     -57.262 -99.215 -42.789  0.00  0.00     0.202 C 
ATOM     17  O   UNL d   1     -56.688 -99.778 -42.992  0.00  0.00    -0.286 OA
ATOM     18  C   UNL d   1     -57.159 -98.758 -42.105  0.00  0.00     0.045 C 
ENDBRANCH   3  16
BRANCH   1  19
ATOM     19  C   UNL d   1     -59.319 -99.235 -42.410  0.00  0.00     0.470 C 
ATOM     20  F   UNL d   1     -59.899 -99.327 -41.956  0.00  0.00    -0.162 F 
ATOM     21  F   UNL d   1     -59.934 -99.841 -42.415  0.00  0.00    -0.162 F 
ATOM     22  F   UNL d   1     -59.547 -98.756 -41.737  0.00  0.00    -0.162 F 
ENDBRANCH   1  19
TORSDOF 3
ENDMDL
MODEL 2
REMARK VINA RESULT:      60.3      3.569      4.926
REMARK  3 active torsions:
REMARK  status: ('A' for Active; 'I' for Inactive)
REMARK    1  A    between atoms: C_6  and  C_1 
REMARK    2  A    between atoms: C_8  and  C_3 
REMARK    3  A    between atoms: C_9  and  C_4 
ROOT
ATOM      1  C   UNL d   1     -55.159-100.996 -43.757  0.00  0.00     0.306 A 
ATOM      2  N   UNL d   1     -55.025-100.188 -43.731  0.00  0.00    -0.152 NA
ATOM      3  C   UNL d   1     -55.117-101.444 -43.066  0.00  0.00     0.114 A 
ATOM      4  C   UNL d   1     -54.940-101.088 -42.345  0.00  0.00     0.094 A 
ATOM      5  C   UNL d   1     -54.849 -99.826 -43.017  0.00  0.00     0.371 A 
ATOM      6  N   UNL d   1     -54.807-100.275 -42.325  0.00  0.00    -0.191 NA
ATOM      7  O   UNL d   1     -54.713 -99.011 -42.986  0.00  0.00    -0.242 OA
ATOM      8  O   UNL d   1     -55.294-101.809 -43.781  0.00  0.00    -0.266 OA
ENDROOT
BRANCH   4   9
ATOM      9  C   UNL d   1     -54.898-101.534 -41.657  0.00  0.00     0.018 A 
ATOM     10  C   UNL d   1     -54.797-101.163 -40.927  0.00  0.00     0.004 A 
ATOM     11  C   UNL d   1     -54.755-101.615 -40.232  0.00  0.00     0.030 A 
ATOM     12  C   UNL d   1     -54.813-102.431 -40.268  0.00  0.00     0.140 A 
ATOM     13  C   UNL d   1     -54.915-102.807 -41.007  0.00  0.00     0.030 A 
ATOM     14  F   UNL d   1     -54.771-102.877 -39.581  0.00  0.00    -0.204 F 
ATOM     15  C   UNL d   1     -54.956-102.353 -41.689  0.00  0.00     0.004 A 
ENDBRANCH   4   9
BRANCH   3  16
ATOM     16  C   UNL d   1     -55.252-102.256 -43.093  0.00  0.00     0.202 C 
ATOM     17  O   UNL d   1     -55.811-102.608 -42.593  0.00  0.00    -0.286 OA
ATOM     18  C   UNL d   1     -54.826-102.729 -43.626  0.00  0.00     0.045 C 
ENDBRANCH   3  16
BRANCH   1  19
ATOM     19  C   UNL d   1     -55.247-100.741 -44.536  0.00  0.00     0.470 C 
ATOM     20  F   UNL d   1     -55.337-100.495 -45.231  0.00  0.00    -0.162 F 
ATOM     21  F   UNL d   1     -55.662-100.041 -44.825  0.00  0.00    -0.162 F 
ATOM     22  F   UNL d   1     -54.959-101.090 -45.263  0.00  0.00    -0.162 F 
ENDBRANCH   1  19
TORSDOF 3
ENDMDL
