MODEL 1
REMARK VINA RESULT:      -2.5      0.000      0.000
REMARK  3 active torsions:
REMARK  status: ('A' for Active; 'I' for Inactive)
REMARK    1  A    between atoms: C_3  and  S_1 
REMARK    2  A    between atoms: N_4  and  S_1 
REMARK       I    between atoms: C_2  and  N_5 
REMARK       I    between atoms: N_6  and  C_2 
REMARK    3  A    between atoms: C_13  and  N_6 
ROOT
ATOM      1  C   UNL d   1     -41.651-123.217 -50.428  0.00  0.00     0.339 C 
ATOM      2  N   UNL d   1     -41.814-122.600 -52.827  0.00  0.00    -0.226 N 
ATOM      3  N   UNL d   1     -41.709-123.008 -51.224  0.00  0.00    -0.254 N 
ATOM      4  N   UNL d   1     -42.116-122.832 -49.860  0.00  0.00    -0.257 N 
ATOM      5  C   UNL d   1     -42.284-122.208 -52.275  0.00  0.00     0.111 A 
ATOM      6  C   UNL d   1     -41.288-123.199 -52.579  0.00  0.00     0.111 A 
ATOM      7  O   UNL d   1     -41.123-123.817 -50.188  0.00  0.00    -0.245 OA
ATOM      8  C   UNL d   1     -42.231-122.414 -51.464  0.00  0.00     0.104 A 
ATOM      9  C   UNL d   1     -41.236-123.402 -51.781  0.00  0.00     0.104 A 
ATOM     10  C   UNL d   1     -42.636-122.240 -50.101  0.00  0.00     0.104 C 
ENDROOT
BRANCH   2  11
ATOM     11  S   UNL d   1     -41.866-122.399 -53.618  0.00  0.00     0.271 S 
ATOM     12  O   UNL d   1     -42.607-122.759 -53.660  0.00  0.00    -0.200 OA
ATOM     13  O   UNL d   1     -41.125-122.039 -53.575  0.00  0.00    -0.200 OA
BRANCH  11  14
ATOM     14  C   UNL d   1     -41.919-122.196 -54.416  0.00  0.00     0.104 A 
ATOM     15  C   UNL d   1     -41.548-122.656 -54.983  0.00  0.00     0.012 A 
ATOM     16  C   UNL d   1     -41.600-122.456 -55.769  0.00  0.00     0.001 A 
ATOM     17  C   UNL d   1     -41.123-123.324 -54.751  0.00  0.00     0.001 C 
ATOM     18  C   UNL d   1     -42.025-121.790 -55.998  0.00  0.00     0.000 A 
ATOM     19  C   UNL d   1     -42.396-121.329 -55.430  0.00  0.00     0.001 A 
ATOM     20  C   UNL d   1     -42.077-121.587 -56.796  0.00  0.00     0.000 C 
ATOM     21  C   UNL d   1     -42.344-121.530 -54.640  0.00  0.00     0.012 A 
ATOM     22  C   UNL d   1     -42.716-121.069 -54.063  0.00  0.00     0.001 C 
ENDBRANCH  11  14
ENDBRANCH   2  11
BRANCH   4  23
ATOM     23  C   UNL d   1     -42.055-123.044 -49.060  0.00  0.00     0.068 A 
ATOM     24  C   UNL d   1     -41.409-122.807 -48.600  0.00  0.00     0.018 A 
ATOM     25  C   UNL d   1     -41.359-123.022 -47.813  0.00  0.00     0.002 A 
ATOM     26  C   UNL d   1     -41.961-123.482 -47.472  0.00  0.00     0.000 A 
ATOM     27  C   UNL d   1     -42.611-123.722 -47.929  0.00  0.00     0.002 A 
ATOM     28  C   UNL d   1     -41.904-123.695 -46.678  0.00  0.00     0.000 C 
ATOM     29  C   UNL d   1     -42.650-123.498 -48.722  0.00  0.00     0.018 A 
ENDBRANCH   4  23
TORSDOF 3
ENDMDL
MODEL 2
REMARK VINA RESULT:      -1.6      1.082      5.946
REMARK  3 active torsions:
REMARK  status: ('A' for Active; 'I' for Inactive)
REMARK    1  A    between atoms: C_3  and  S_1 
REMARK    2  A    between atoms: N_4  and  S_1 
REMARK       I    between atoms: C_2  and  N_5 
REMARK       I    between atoms: N_6  and  C_2 
REMARK    3  A    between atoms: C_13  and  N_6 
ROOT
ATOM      1  C   UNL d   1     -42.168-121.971 -53.044  0.00  0.00     0.339 C 
ATOM      2  N   UNL d   1     -42.277-122.672 -50.665  0.00  0.00    -0.226 N 
ATOM      3  N   UNL d   1     -42.203-122.209 -52.255  0.00  0.00    -0.254 N 
ATOM      4  N   UNL d   1     -42.007-122.524 -53.641  0.00  0.00    -0.257 N 
ATOM      5  C   UNL d   1     -42.115-123.234 -51.246  0.00  0.00     0.111 A 
ATOM      6  C   UNL d   1     -42.403-121.874 -50.877  0.00  0.00     0.111 A 
ATOM      7  O   UNL d   1     -42.295-121.172 -53.248  0.00  0.00    -0.245 OA
ATOM      8  C   UNL d   1     -42.078-123.000 -52.050  0.00  0.00     0.104 A 
ATOM      9  C   UNL d   1     -42.366-121.644 -51.669  0.00  0.00     0.104 A 
ATOM     10  C   UNL d   1     -41.882-123.311 -53.435  0.00  0.00     0.104 C 
ENDROOT
BRANCH   2  11
ATOM     11  S   UNL d   1     -42.314-122.900 -49.881  0.00  0.00     0.271 S 
ATOM     12  O   UNL d   1     -41.908-123.594 -50.065  0.00  0.00    -0.200 OA
ATOM     13  O   UNL d   1     -42.720-122.206 -49.698  0.00  0.00    -0.200 OA
BRANCH  11  14
ATOM     14  C   UNL d   1     -42.350-123.130 -49.090  0.00  0.00     0.104 A 
ATOM     15  C   UNL d   1     -42.975-123.588 -48.823  0.00  0.00     0.012 A 
ATOM     16  C   UNL d   1     -43.011-123.815 -48.043  0.00  0.00     0.001 A 
ATOM     17  C   UNL d   1     -43.567-123.817 -49.351  0.00  0.00     0.001 C 
ATOM     18  C   UNL d   1     -42.420-123.586 -47.519  0.00  0.00     0.000 A 
ATOM     19  C   UNL d   1     -41.794-123.127 -47.786  0.00  0.00     0.001 A 
ATOM     20  C   UNL d   1     -42.457-123.816 -46.728  0.00  0.00     0.000 C 
ATOM     21  C   UNL d   1     -41.758-122.899 -48.570  0.00  0.00     0.012 A 
ATOM     22  C   UNL d   1     -41.130-122.437 -48.845  0.00  0.00     0.001 C 
ENDBRANCH  11  14
ENDBRANCH   2  11
BRANCH   4  23
ATOM     23  C   UNL d   1     -41.972-122.281 -54.434  0.00  0.00     0.068 A 
ATOM     24  C   UNL d   1     -42.660-122.115 -54.864  0.00  0.00     0.018 A 
ATOM     25  C   UNL d   1     -42.614-121.877 -55.644  0.00  0.00     0.002 A 
ATOM     26  C   UNL d   1     -41.871-121.799 -56.009  0.00  0.00     0.000 A 
ATOM     27  C   UNL d   1     -41.180-121.964 -55.582  0.00  0.00     0.002 A 
ATOM     28  C   UNL d   1     -41.833-121.558 -56.796  0.00  0.00     0.000 C 
ATOM     29  C   UNL d   1     -41.239-122.204 -54.795  0.00  0.00     0.018 A 
ENDBRANCH   4  23
TORSDOF 3
ENDMDL
