MODEL 1
REMARK VINA RESULT:      89.3      0.000      0.000
REMARK  6 active torsions:
REMARK  status: ('A' for Active; 'I' for Inactive)
REMARK    1  A    between atoms: C_3  and  C_1 
REMARK    2  A    between atoms: S_2  and  C_3 
REMARK    3  A    between atoms: C_8  and  S_2 
REMARK    4  A    between atoms: C_9  and  C_3 
REMARK    5  A    between atoms: N_7  and  C_4 
REMARK    6  A    between atoms: C_25  and  N_16 
ROOT
ATOM      1  C   UNL d   1      44.533 -15.797  37.158  0.00  0.00     0.128 A 
ATOM      2  C   UNL d   1      43.984 -15.203  37.019  0.00  0.00     0.166 A 
ATOM      3  N   UNL d   1      45.333 -15.623  37.185  0.00  0.00    -0.240 NA
ATOM      4  N   UNL d   1      44.236 -14.433  36.907  0.00  0.00    -0.225 NA
ATOM      5  C   UNL d   1      45.581 -14.851  37.072  0.00  0.00     0.099 A 
ATOM      6  C   UNL d   1      45.035 -14.253  36.933  0.00  0.00     0.101 A 
ATOM      7  C   UNL d   1      45.293 -13.479  36.821  0.00  0.00     0.021 A 
ATOM      8  C   UNL d   1      46.388 -14.678  37.100  0.00  0.00     0.021 A 
ATOM      9  C   UNL d   1      46.645 -13.902  36.987  0.00  0.00     0.002 A 
ATOM     10  C   UNL d   1      46.096 -13.307  36.848  0.00  0.00     0.002 A 
ENDROOT
BRANCH   1  11
ATOM     11  C   UNL d   1      44.284 -16.570  37.270  0.00  0.00     0.129 C 
BRANCH  11  12
ATOM     12  S   UNL d   1      44.802 -17.117  37.759  0.00  0.00     0.213 S 
ATOM     13  O   UNL d   1      45.045 -17.226  36.965  0.00  0.00    -0.217 OA
ATOM     14  O   UNL d   1      45.405 -17.611  37.332  0.00  0.00    -0.217 OA
BRANCH  12  15
ATOM     15  C   UNL d   1      44.843 -17.275  38.576  0.00  0.00     0.088 A 
ATOM     16  C   UNL d   1      45.397 -17.819  38.864  0.00  0.00     0.011 A 
ATOM     17  C   UNL d   1      45.440 -17.976  39.671  0.00  0.00     0.001 A 
ATOM     18  C   UNL d   1      45.988 -18.516  39.960  0.00  0.00     0.000 C 
ATOM     19  C   UNL d   1      44.927 -17.586  40.196  0.00  0.00     0.000 A 
ATOM     20  C   UNL d   1      44.376 -17.043  39.905  0.00  0.00     0.001 A 
ATOM     21  C   UNL d   1      44.968 -17.742  41.007  0.00  0.00     0.000 C 
ATOM     22  C   UNL d   1      44.331 -16.884  39.095  0.00  0.00     0.011 A 
ENDBRANCH  12  15
ENDBRANCH  11  12
BRANCH  11  23
ATOM     23  C   UNL d   1      43.572 -16.981  36.989  0.00  0.00     0.135 C 
ATOM     24  N   UNL d   1      43.503 -17.569  36.332  0.00  0.00    -0.146 N 
ENDBRANCH  11  23
ENDBRANCH   1  11
BRANCH   2  25
ATOM     25  N   UNL d   1      43.172 -15.394  36.994  0.00  0.00    -0.285 N 
ATOM     26  C   UNL d   1      42.858 -15.804  36.351  0.00  0.00     0.101 A 
ATOM     27  C   UNL d   1      42.048 -15.990  36.336  0.00  0.00     0.100 A 
ATOM     28  N   UNL d   1      41.556 -15.763  36.970  0.00  0.00    -0.300 N 
ATOM     29  C   UNL d   1      41.875 -15.350  37.618  0.00  0.00     0.100 A 
ATOM     30  C   UNL d   1      42.680 -15.167  37.628  0.00  0.00     0.101 A 
BRANCH  28  31
ATOM     31  C   UNL d   1      40.738 -15.952  36.952  0.00  0.00     0.080 C 
ATOM     32  C   UNL d   1      40.234 -15.530  36.438  0.00  0.00     0.021 C 
ENDBRANCH  28  31
ENDBRANCH   2  25
TORSDOF 6
ENDMDL
MODEL 2
REMARK VINA RESULT:      90.4      0.851      3.226
REMARK  6 active torsions:
REMARK  status: ('A' for Active; 'I' for Inactive)
REMARK    1  A    between atoms: C_3  and  C_1 
REMARK    2  A    between atoms: S_2  and  C_3 
REMARK    3  A    between atoms: C_8  and  S_2 
REMARK    4  A    between atoms: C_9  and  C_3 
REMARK    5  A    between atoms: N_7  and  C_4 
REMARK    6  A    between atoms: C_25  and  N_16 
ROOT
ATOM      1  C   UNL d   1      43.787 -15.797  36.731  0.00  0.00     0.128 A 
ATOM      2  C   UNL d   1      43.728 -14.996  36.898  0.00  0.00     0.166 A 
ATOM      3  N   UNL d   1      43.116 -16.231  36.548  0.00  0.00    -0.240 NA
ATOM      4  N   UNL d   1      42.999 -14.628  36.882  0.00  0.00    -0.225 NA
ATOM      5  C   UNL d   1      42.387 -15.858  36.533  0.00  0.00     0.099 A 
ATOM      6  C   UNL d   1      42.325 -15.056  36.700  0.00  0.00     0.101 A 
ATOM      7  C   UNL d   1      41.587 -14.689  36.682  0.00  0.00     0.021 A 
ATOM      8  C   UNL d   1      41.712 -16.297  36.348  0.00  0.00     0.021 A 
ATOM      9  C   UNL d   1      40.975 -15.928  36.331  0.00  0.00     0.002 A 
ATOM     10  C   UNL d   1      40.917 -15.125  36.498  0.00  0.00     0.002 A 
ENDROOT
BRANCH   1  11
ATOM     11  C   UNL d   1      44.516 -16.170  36.746  0.00  0.00     0.129 C 
BRANCH  11  12
ATOM     12  S   UNL d   1      44.584 -16.957  37.173  0.00  0.00     0.213 S 
ATOM     13  O   UNL d   1      44.378 -17.146  36.384  0.00  0.00    -0.217 OA
ATOM     14  O   UNL d   1      44.432 -17.699  36.707  0.00  0.00    -0.217 OA
BRANCH  12  15
ATOM     15  C   UNL d   1      44.770 -17.158  37.961  0.00  0.00     0.088 A 
ATOM     16  C   UNL d   1      44.223 -17.012  38.564  0.00  0.00     0.011 A 
ATOM     17  C   UNL d   1      44.405 -17.210  39.343  0.00  0.00     0.001 A 
ATOM     18  C   UNL d   1      43.863 -17.066  39.944  0.00  0.00     0.000 C 
ATOM     19  C   UNL d   1      45.138 -17.557  39.520  0.00  0.00     0.000 A 
ATOM     20  C   UNL d   1      45.682 -17.701  38.915  0.00  0.00     0.001 A 
ATOM     21  C   UNL d   1      45.323 -17.756  40.301  0.00  0.00     0.000 C 
ATOM     22  C   UNL d   1      45.502 -17.503  38.133  0.00  0.00     0.011 A 
ENDBRANCH  12  15
ENDBRANCH  11  12
BRANCH  11  23
ATOM     23  C   UNL d   1      45.280 -15.932  36.407  0.00  0.00     0.135 C 
ATOM     24  N   UNL d   1      46.038 -16.387  36.389  0.00  0.00    -0.146 N 
ENDBRANCH  11  23
ENDBRANCH   1  11
BRANCH   2  25
ATOM     25  N   UNL d   1      44.420 -14.566  37.084  0.00  0.00    -0.285 N 
ATOM     26  C   UNL d   1      44.561 -14.312  37.855  0.00  0.00     0.101 A 
ATOM     27  C   UNL d   1      45.253 -13.885  38.029  0.00  0.00     0.100 A 
ATOM     28  N   UNL d   1      45.801 -13.716  37.424  0.00  0.00    -0.300 N 
ATOM     29  C   UNL d   1      45.657 -13.973  36.646  0.00  0.00     0.100 A 
ATOM     30  C   UNL d   1      44.969 -14.397  36.479  0.00  0.00     0.101 A 
BRANCH  28  31
ATOM     31  C   UNL d   1      46.499 -13.284  37.603  0.00  0.00     0.080 C 
ATOM     32  C   UNL d   1      46.644 -12.564  37.208  0.00  0.00     0.021 C 
ENDBRANCH  28  31
ENDBRANCH   2  25
TORSDOF 6
ENDMDL
MODEL 3
REMARK VINA RESULT:      92.1      1.498      3.931
REMARK  6 active torsions:
REMARK  status: ('A' for Active; 'I' for Inactive)
REMARK    1  A    between atoms: C_3  and  C_1 
REMARK    2  A    between atoms: S_2  and  C_3 
REMARK    3  A    between atoms: C_8  and  S_2 
REMARK    4  A    between atoms: C_9  and  C_3 
REMARK    5  A    between atoms: N_7  and  C_4 
REMARK    6  A    between atoms: C_25  and  N_16 
ROOT
ATOM      1  C   UNL d   1      44.299 -15.659  37.193  0.00  0.00     0.128 A 
ATOM      2  C   UNL d   1      43.989 -16.177  37.749  0.00  0.00     0.166 A 
ATOM      3  N   UNL d   1      43.800 -15.212  36.720  0.00  0.00    -0.240 NA
ATOM      4  N   UNL d   1      43.179 -16.248  37.832  0.00  0.00    -0.225 NA
ATOM      5  C   UNL d   1      42.990 -15.287  36.808  0.00  0.00     0.099 A 
ATOM      6  C   UNL d   1      42.675 -15.804  37.363  0.00  0.00     0.101 A 
ATOM      7  C   UNL d   1      41.858 -15.873  37.444  0.00  0.00     0.021 A 
ATOM      8  C   UNL d   1      42.489 -14.835  36.331  0.00  0.00     0.021 A 
ATOM      9  C   UNL d   1      41.671 -14.905  36.414  0.00  0.00     0.002 A 
ATOM     10  C   UNL d   1      41.360 -15.424  36.970  0.00  0.00     0.002 A 
ENDROOT
BRANCH   1  11
ATOM     11  C   UNL d   1      45.111 -15.585  37.105  0.00  0.00     0.129 C 
BRANCH  11  12
ATOM     12  S   UNL d   1      45.468 -14.762  37.122  0.00  0.00     0.213 S 
ATOM     13  O   UNL d   1      45.545 -15.024  36.332  0.00  0.00    -0.217 OA
ATOM     14  O   UNL d   1      45.796 -14.434  36.364  0.00  0.00    -0.217 OA
BRANCH  12  15
ATOM     15  C   UNL d   1      45.565 -14.201  37.731  0.00  0.00     0.088 A 
ATOM     16  C   UNL d   1      44.945 -13.686  37.921  0.00  0.00     0.011 A 
ATOM     17  C   UNL d   1      45.039 -13.131  38.522  0.00  0.00     0.001 A 
ATOM     18  C   UNL d   1      44.426 -12.618  38.713  0.00  0.00     0.000 C 
ATOM     19  C   UNL d   1      45.757 -13.089  38.938  0.00  0.00     0.000 A 
ATOM     20  C   UNL d   1      46.374 -13.605  38.745  0.00  0.00     0.001 A 
ATOM     21  C   UNL d   1      45.854 -12.533  39.542  0.00  0.00     0.000 C 
ATOM     22  C   UNL d   1      46.282 -14.163  38.142  0.00  0.00     0.011 A 
ENDBRANCH  12  15
ENDBRANCH  11  12
BRANCH  11  23
ATOM     23  C   UNL d   1      45.725 -16.190  36.993  0.00  0.00     0.135 C 
ATOM     24  N   UNL d   1      45.802 -16.776  36.336  0.00  0.00    -0.146 N 
ENDBRANCH  11  23
ENDBRANCH   1  11
BRANCH   2  25
ATOM     25  N   UNL d   1      44.509 -16.627  38.223  0.00  0.00    -0.285 N 
ATOM     26  C   UNL d   1      44.832 -17.330  37.939  0.00  0.00     0.101 A 
ATOM     27  C   UNL d   1      45.349 -17.770  38.419  0.00  0.00     0.100 A 
ATOM     28  N   UNL d   1      45.539 -17.499  39.185  0.00  0.00    -0.300 N 
ATOM     29  C   UNL d   1      45.211 -16.789  39.469  0.00  0.00     0.100 A 
ATOM     30  C   UNL d   1      44.699 -16.356  38.989  0.00  0.00     0.101 A 
BRANCH  28  31
ATOM     31  C   UNL d   1      46.061 -17.945  39.668  0.00  0.00     0.080 C 
ATOM     32  C   UNL d   1      45.754 -18.564  40.135  0.00  0.00     0.021 C 
ENDBRANCH  28  31
ENDBRANCH   2  25
TORSDOF 6
ENDMDL
