MODEL 1
REMARK VINA RESULT:      42.2      0.000      0.000
REMARK  3 active torsions:
REMARK  status: ('A' for Active; 'I' for Inactive)
REMARK    1  A    between atoms: C_2  and  C_1 
REMARK       I    between atoms: N_5  and  C_2 
REMARK    2  A    between atoms: C_10  and  N_5 
REMARK    3  A    between atoms: O_16  and  C_11 
ROOT
ATOM      1  C   UNL d   1      59.095  49.625  51.538  0.00  0.00     0.281 C 
ATOM      2  N   UNL d   1      59.785  49.583  51.093  0.00  0.00    -0.208 NA
ATOM      3  O   UNL d   1      59.136  49.699  52.358  0.00  0.00    -0.265 OA
ENDROOT
BRANCH   1   4
ATOM      4  C   UNL d   1      58.356  49.595  51.172  0.00  0.00     0.083 A 
ATOM      5  C   UNL d   1      58.296  49.475  50.354  0.00  0.00     0.009 A 
ATOM      6  C   UNL d   1      57.546  49.446  49.994  0.00  0.00     0.023 A 
ATOM      7  C   UNL d   1      57.485  49.327  49.182  0.00  0.00     0.002 A 
ATOM      8  C   UNL d   1      56.855  49.537  50.458  0.00  0.00     0.100 A 
ATOM      9  C   UNL d   1      56.736  49.299  48.832  0.00  0.00     0.000 A 
ATOM     10  C   UNL d   1      56.055  49.389  49.289  0.00  0.00     0.002 A 
ATOM     11  C   UNL d   1      56.117  49.508  50.100  0.00  0.00     0.025 A 
ATOM     12  O   UNL d   1      56.916  49.656  51.269  0.00  0.00    -0.305 OA
ATOM     13  C   UNL d   1      57.665  49.686  51.635  0.00  0.00     0.127 A 
ENDBRANCH   1   4
BRANCH   2  14
ATOM     14  C   UNL d   1      60.522  49.614  51.467  0.00  0.00     0.085 A 
ATOM     15  C   UNL d   1      61.211  49.634  51.014  0.00  0.00     0.021 A 
ATOM     16  C   UNL d   1      61.943  49.665  51.389  0.00  0.00     0.026 A 
ATOM     17  C   UNL d   1      61.985  49.677  52.204  0.00  0.00     0.094 A 
ATOM     18  C   UNL d   1      61.296  49.657  52.661  0.00  0.00     0.026 A 
ATOM     19  C   UNL d   1      60.564  49.626  52.278  0.00  0.00     0.021 A 
BRANCH  17  20
ATOM     20  O   UNL d   1      62.717  49.708  52.587  0.00  0.00    -0.328 OA
ATOM     21  C   UNL d   1      62.763  49.659  53.401  0.00  0.00     0.181 C 
ENDBRANCH  17  20
ENDBRANCH   2  14
TORSDOF 3
ENDMDL
