MODEL 1
REMARK VINA RESULT:       9.5      0.000      0.000
REMARK  4 active torsions:
REMARK  status: ('A' for Active; 'I' for Inactive)
REMARK    1  A    between atoms: C_2  and  C_1 
REMARK    2  A    between atoms: C_3  and  C_2 
REMARK    3  A    between atoms: C_5  and  C_3 
REMARK    4  A    between atoms: C_13  and  C_5 
ROOT
ATOM      1  C   UNL d   1      46.273 -17.573  44.126  0.00  0.00     0.042 C 
ENDROOT
BRANCH   1   2
ATOM      2  C   UNL d   1      46.367 -18.388  44.213  0.00  0.00     0.199 C 
ATOM      3  O   UNL d   1      46.417 -18.722  44.955  0.00  0.00    -0.286 OA
BRANCH   2   4
ATOM      4  C   UNL d   1      46.408 -18.858  43.545  0.00  0.00     0.078 A 
ATOM      5  C   UNL d   1      46.350 -19.668  43.576  0.00  0.00     0.199 A 
ATOM      6  C   UNL d   1      46.392 -20.122  42.913  0.00  0.00     0.042 A 
ATOM      7  O   UNL d   1      46.239 -20.049  44.364  0.00  0.00    -0.286 OA
ATOM      8  C   UNL d   1      46.494 -19.798  42.174  0.00  0.00     0.003 A 
ATOM      9  C   UNL d   1      46.555 -19.003  42.108  0.00  0.00     0.000 A 
ATOM     10  C   UNL d   1      46.513 -18.522  42.784  0.00  0.00     0.006 A 
ATOM     11  C   UNL d   1      46.646 -18.613  41.508  0.00  0.00     0.000 C 
ENDBRANCH   2   4
ENDBRANCH   1   2
BRANCH   1  12
ATOM     12  C   UNL d   1      46.008 -17.232  44.839  0.00  0.00     0.003 C 
BRANCH  12  13
ATOM     13  C   UNL d   1      45.742 -16.373  44.825  0.00  0.00     0.002 A 
ATOM     14  C   UNL d   1      46.243 -15.768  44.703  0.00  0.00     0.027 A 
ATOM     15  C   UNL d   1      45.979 -14.987  44.694  0.00  0.00     0.123 A 
ATOM     16  O   UNL d   1      46.517 -14.332  44.562  0.00  0.00    -0.301 OA
ATOM     17  C   UNL d   1      45.150 -14.785  44.817  0.00  0.00     0.123 A 
ATOM     18  C   UNL d   1      46.275 -13.551  44.550  0.00  0.00     0.149 A 
ATOM     19  C   UNL d   1      45.421 -13.353  44.677  0.00  0.00     0.149 A 
ATOM     20  O   UNL d   1      44.895 -13.968  44.805  0.00  0.00    -0.301 OA
ATOM     21  C   UNL d   1      44.609 -15.415  44.948  0.00  0.00     0.027 A 
ATOM     22  C   UNL d   1      44.881 -16.189  44.955  0.00  0.00     0.002 A 
ENDBRANCH  12  13
ENDBRANCH   1  12
TORSDOF 4
ENDMDL
