MODEL 1
REMARK VINA RESULT:      -4.9      0.000      0.000
REMARK  6 active torsions:
REMARK  status: ('A' for Active; 'I' for Inactive)
REMARK    1  A    between atoms: S_11  and  C_2 
REMARK    2  A    between atoms: C_5  and  N_8 
REMARK       I    between atoms: N_8  and  C_13 
REMARK    3  A    between atoms: C_17  and  C_10 
REMARK    4  A    between atoms: C_16  and  S_11 
REMARK    5  A    between atoms: C_13  and  C_16 
REMARK    6  A    between atoms: C_18  and  C_17 
ROOT
ATOM      1  C   UNL d   1     -41.488-122.285 -51.836  0.00  0.00     0.197 A 
ATOM      2  N   UNL d   1     -41.975-121.705 -52.167  0.00  0.00    -0.219 NA
ATOM      3  S   UNL d   1     -41.123-122.684 -52.463  0.00  0.00    -0.047 SA
ATOM      4  C   UNL d   1     -41.380-122.356 -53.167  0.00  0.00     0.051 A 
ATOM      5  C   UNL d   1     -41.908-121.749 -52.982  0.00  0.00     0.108 A 
ENDROOT
BRANCH   1   6
ATOM      6  N   UNL d   1     -41.385-122.439 -51.035  0.00  0.00    -0.182 NA
ATOM      7  C   UNL d   1     -41.516-123.198 -50.740  0.00  0.00     0.288 C 
ATOM      8  O   UNL d   1     -41.753-123.806 -51.252  0.00  0.00    -0.265 OA
BRANCH   7   9
ATOM      9  C   UNL d   1     -41.414-123.361 -49.938  0.00  0.00     0.101 C 
BRANCH   9  10
ATOM     10  S   UNL d   1     -42.037-123.647 -49.492  0.00  0.00    -0.041 SA
BRANCH  10  11
ATOM     11  C   UNL d   1     -41.974-123.686 -48.667  0.00  0.00     0.219 A 
ATOM     12  N   UNL d   1     -42.602-123.738 -48.138  0.00  0.00    -0.167 N 
ATOM     13  C   UNL d   1     -42.293-123.763 -47.381  0.00  0.00     0.189 A 
ATOM     14  N   UNL d   1     -43.402-123.761 -48.339  0.00  0.00    -0.038 N 
ATOM     15  N   UNL d   1     -41.467-123.726 -47.438  0.00  0.00    -0.126 NA
ATOM     16  C   UNL d   1     -42.725-123.816 -46.676  0.00  0.00     0.044 C 
ATOM     17  N   UNL d   1     -41.275-123.679 -48.233  0.00  0.00    -0.120 NA
ENDBRANCH  10  11
ENDBRANCH   9  10
ENDBRANCH   7   9
ENDBRANCH   1   6
BRANCH   4  18
ATOM     18  C   UNL d   1     -41.150-122.590 -53.923  0.00  0.00     0.008 C 
BRANCH  18  19
ATOM     19  C   UNL d   1     -41.664-122.483 -54.556  0.00  0.00     0.001 A 
ATOM     20  C   UNL d   1     -41.645-121.779 -54.990  0.00  0.00     0.002 A 
ATOM     21  C   UNL d   1     -42.159-121.671 -55.623  0.00  0.00     0.030 A 
ATOM     22  C   UNL d   1     -42.698-122.268 -55.827  0.00  0.00     0.140 A 
ATOM     23  C   UNL d   1     -42.719-122.968 -55.396  0.00  0.00     0.030 A 
ATOM     24  F   UNL d   1     -43.209-122.157 -56.459  0.00  0.00    -0.204 F 
ATOM     25  C   UNL d   1     -42.203-123.079 -54.759  0.00  0.00     0.002 A 
ENDBRANCH  18  19
ENDBRANCH   4  18
TORSDOF 6
ENDMDL
MODEL 2
REMARK VINA RESULT:      -3.9      2.505      6.146
REMARK  6 active torsions:
REMARK  status: ('A' for Active; 'I' for Inactive)
REMARK    1  A    between atoms: S_11  and  C_2 
REMARK    2  A    between atoms: C_5  and  N_8 
REMARK       I    between atoms: N_8  and  C_13 
REMARK    3  A    between atoms: C_17  and  C_10 
REMARK    4  A    between atoms: C_16  and  S_11 
REMARK    5  A    between atoms: C_13  and  C_16 
REMARK    6  A    between atoms: C_18  and  C_17 
ROOT
ATOM      1  C   UNL d   1     -41.615-122.198 -51.115  0.00  0.00     0.197 A 
ATOM      2  N   UNL d   1     -42.320-122.053 -50.709  0.00  0.00    -0.219 NA
ATOM      3  S   UNL d   1     -41.123-122.626 -50.603  0.00  0.00    -0.047 SA
ATOM      4  C   UNL d   1     -41.519-122.741 -49.896  0.00  0.00     0.051 A 
ATOM      5  C   UNL d   1     -42.261-122.385 -49.963  0.00  0.00     0.108 A 
ENDROOT
BRANCH   1   6
ATOM      6  N   UNL d   1     -41.433-121.965 -51.881  0.00  0.00    -0.182 NA
ATOM      7  C   UNL d   1     -41.489-122.504 -52.503  0.00  0.00     0.288 C 
ATOM      8  O   UNL d   1     -41.730-123.283 -52.353  0.00  0.00    -0.265 OA
BRANCH   7   9
ATOM      9  C   UNL d   1     -41.308-122.277 -53.274  0.00  0.00     0.101 C 
BRANCH   9  10
ATOM     10  S   UNL d   1     -41.630-122.678 -53.909  0.00  0.00    -0.041 SA
BRANCH  10  11
ATOM     11  C   UNL d   1     -41.788-122.278 -54.617  0.00  0.00     0.219 A 
ATOM     12  N   UNL d   1     -42.332-122.510 -55.190  0.00  0.00    -0.167 N 
ATOM     13  C   UNL d   1     -42.311-121.959 -55.795  0.00  0.00     0.189 A 
ATOM     14  N   UNL d   1     -42.812-123.181 -55.158  0.00  0.00    -0.038 N 
ATOM     15  N   UNL d   1     -41.752-121.381 -55.598  0.00  0.00    -0.126 NA
ATOM     16  C   UNL d   1     -42.768-121.972 -56.487  0.00  0.00     0.044 C 
ATOM     17  N   UNL d   1     -41.432-121.582 -54.871  0.00  0.00    -0.120 NA
ENDBRANCH  10  11
ENDBRANCH   9  10
ENDBRANCH   7   9
ENDBRANCH   1   6
BRANCH   4  18
ATOM     18  C   UNL d   1     -41.226-123.141 -49.237  0.00  0.00     0.008 C 
BRANCH  18  19
ATOM     19  C   UNL d   1     -41.723-123.290 -48.598  0.00  0.00     0.001 A 
ATOM     20  C   UNL d   1     -41.496-123.065 -47.836  0.00  0.00     0.002 A 
ATOM     21  C   UNL d   1     -41.993-123.215 -47.197  0.00  0.00     0.030 A 
ATOM     22  C   UNL d   1     -42.722-123.591 -47.317  0.00  0.00     0.140 A 
ATOM     23  C   UNL d   1     -42.950-123.815 -48.075  0.00  0.00     0.030 A 
ATOM     24  F   UNL d   1     -43.215-123.738 -46.678  0.00  0.00    -0.204 F 
ATOM     25  C   UNL d   1     -42.452-123.666 -48.718  0.00  0.00     0.002 A 
ENDBRANCH  18  19
ENDBRANCH   4  18
TORSDOF 6
ENDMDL
