MODEL 1
REMARK VINA RESULT:      -8.2      0.000      0.000
REMARK  5 active torsions:
REMARK  status: ('A' for Active; 'I' for Inactive)
REMARK    1  A    between atoms: C_7  and  N_1 
REMARK    2  A    between atoms: C_12  and  C_3 
REMARK    3  A    between atoms: C_8  and  S_15 
REMARK    4  A    between atoms: C_16  and  C_12 
REMARK    5  A    between atoms: S_15  and  C_16 
ROOT
ATOM      1  N   UNL d   1     -48.704  12.932  22.890  0.00  0.00    -0.304 N 
ATOM      2  C   UNL d   1     -48.047  13.366  22.649  0.00  0.00     0.067 A 
ATOM      3  C   UNL d   1     -47.369  12.963  22.897  0.00  0.00     0.057 A 
ATOM      4  C   UNL d   1     -48.440  12.267  23.283  0.00  0.00     0.064 A 
ATOM      5  C   UNL d   1     -47.617  12.276  23.294  0.00  0.00     0.022 A 
ATOM      6  C   UNL d   1     -48.070  14.077  22.233  0.00  0.00     0.019 C 
ATOM      7  C   UNL d   1     -48.504  11.557  23.697  0.00  0.00     0.019 C 
ENDROOT
BRANCH   3   8
ATOM      8  C   UNL d   1     -46.549  12.833  22.989  0.00  0.00     0.204 C 
ATOM      9  O   UNL d   1     -46.167  13.071  23.691  0.00  0.00    -0.286 OA
BRANCH   8  10
ATOM     10  C   UNL d   1     -45.836  12.546  22.688  0.00  0.00     0.080 C 
BRANCH  10  11
ATOM     11  S   UNL d   1     -45.272  13.075  22.392  0.00  0.00    -0.043 SA
BRANCH  11  12
ATOM     12  C   UNL d   1     -44.541  12.800  22.130  0.00  0.00     0.233 A 
ATOM     13  N   UNL d   1     -44.006  13.219  21.664  0.00  0.00    -0.029 NA
ATOM     14  C   UNL d   1     -43.354  12.735  21.535  0.00  0.00     0.788 A 
ATOM     15  N   UNL d   1     -42.682  12.931  21.096  0.00  0.00     0.064 N 
ATOM     16  N   UNL d   1     -43.489  12.021  21.922  0.00  0.00     0.050 NA
ATOM     17  N   UNL d   1     -44.230  12.055  22.296  0.00  0.00    -0.105 NA
ENDBRANCH  11  12
ENDBRANCH  10  11
ENDBRANCH   8  10
ENDBRANCH   3   8
BRANCH   1  18
ATOM     18  C   UNL d   1     -49.497  13.136  22.755  0.00  0.00     0.094 A 
ATOM     19  C   UNL d   1     -49.856  13.636  23.255  0.00  0.00     0.050 A 
ATOM     20  C   UNL d   1     -50.654  13.838  23.115  0.00  0.00     0.142 A 
ATOM     21  F   UNL d   1     -51.042  14.361  23.632  0.00  0.00    -0.204 F 
ATOM     22  C   UNL d   1     -51.054  13.522  22.470  0.00  0.00     0.032 A 
ATOM     23  C   UNL d   1     -50.677  13.008  21.960  0.00  0.00     0.034 A 
ATOM     24  C   UNL d   1     -49.887  12.810  22.101  0.00  0.00     0.156 A 
ATOM     25  F   UNL d   1     -49.887  12.317  21.421  0.00  0.00    -0.203 F 
ENDBRANCH   1  18
TORSDOF 5
ENDMDL
MODEL 2
REMARK VINA RESULT:      -7.8      1.058      1.402
REMARK  5 active torsions:
REMARK  status: ('A' for Active; 'I' for Inactive)
REMARK    1  A    between atoms: C_7  and  N_1 
REMARK    2  A    between atoms: C_12  and  C_3 
REMARK    3  A    between atoms: C_8  and  S_15 
REMARK    4  A    between atoms: C_16  and  C_12 
REMARK    5  A    between atoms: S_15  and  C_16 
ROOT
ATOM      1  N   UNL d   1     -48.865  13.454  22.801  0.00  0.00    -0.304 N 
ATOM      2  C   UNL d   1     -48.107  13.751  22.683  0.00  0.00     0.067 A 
ATOM      3  C   UNL d   1     -47.572  13.245  23.058  0.00  0.00     0.057 A 
ATOM      4  C   UNL d   1     -48.806  12.771  23.243  0.00  0.00     0.064 A 
ATOM      5  C   UNL d   1     -48.011  12.632  23.408  0.00  0.00     0.022 A 
ATOM      6  C   UNL d   1     -47.922  14.435  22.263  0.00  0.00     0.019 C 
ATOM      7  C   UNL d   1     -49.074  12.103  23.645  0.00  0.00     0.019 C 
ENDROOT
BRANCH   3   8
ATOM      8  C   UNL d   1     -46.822  12.973  23.304  0.00  0.00     0.204 C 
ATOM      9  O   UNL d   1     -46.301  13.492  23.698  0.00  0.00    -0.286 OA
BRANCH   8  10
ATOM     10  C   UNL d   1     -46.267  12.363  23.356  0.00  0.00     0.080 C 
BRANCH  10  11
ATOM     11  S   UNL d   1     -45.571  12.401  22.910  0.00  0.00    -0.043 SA
BRANCH  11  12
ATOM     12  C   UNL d   1     -44.998  11.813  22.983  0.00  0.00     0.233 A 
ATOM     13  N   UNL d   1     -45.069  11.123  23.428  0.00  0.00    -0.029 NA
ATOM     14  C   UNL d   1     -44.370  10.698  23.344  0.00  0.00     0.788 A 
ATOM     15  N   UNL d   1     -44.199   9.970  23.694  0.00  0.00     0.064 N 
ATOM     16  N   UNL d   1     -43.872  11.127  22.848  0.00  0.00     0.050 NA
ATOM     17  N   UNL d   1     -44.259  11.826  22.619  0.00  0.00    -0.105 NA
ENDBRANCH  11  12
ENDBRANCH  10  11
ENDBRANCH   8  10
ENDBRANCH   3   8
BRANCH   1  18
ATOM     18  C   UNL d   1     -49.569  13.791  22.517  0.00  0.00     0.094 A 
ATOM     19  C   UNL d   1     -49.928  14.351  22.949  0.00  0.00     0.050 A 
ATOM     20  C   UNL d   1     -50.636  14.687  22.659  0.00  0.00     0.142 A 
ATOM     21  F   UNL d   1     -51.023  15.274  23.102  0.00  0.00    -0.204 F 
ATOM     22  C   UNL d   1     -50.949  14.438  21.941  0.00  0.00     0.032 A 
ATOM     23  C   UNL d   1     -50.572  13.861  21.503  0.00  0.00     0.034 A 
ATOM     24  C   UNL d   1     -49.872  13.530  21.791  0.00  0.00     0.156 A 
ATOM     25  F   UNL d   1     -49.822  13.038  21.113  0.00  0.00    -0.203 F 
ENDBRANCH   1  18
TORSDOF 5
ENDMDL
MODEL 3
REMARK VINA RESULT:      -5.3      8.815     10.036
REMARK  5 active torsions:
REMARK  status: ('A' for Active; 'I' for Inactive)
REMARK    1  A    between atoms: C_7  and  N_1 
REMARK    2  A    between atoms: C_12  and  C_3 
REMARK    3  A    between atoms: C_8  and  S_15 
REMARK    4  A    between atoms: C_16  and  C_12 
REMARK    5  A    between atoms: S_15  and  C_16 
ROOT
ATOM      1  N   UNL d   1     -39.179  14.477  18.007  0.00  0.00    -0.304 N 
ATOM      2  C   UNL d   1     -38.752  14.687  18.679  0.00  0.00     0.067 A 
ATOM      3  C   UNL d   1     -39.279  14.732  19.314  0.00  0.00     0.057 A 
ATOM      4  C   UNL d   1     -39.963  14.393  18.219  0.00  0.00     0.064 A 
ATOM      5  C   UNL d   1     -40.036  14.548  19.024  0.00  0.00     0.022 A 
ATOM      6  C   UNL d   1     -37.940  14.825  18.704  0.00  0.00     0.019 C 
ATOM      7  C   UNL d   1     -40.765  14.238  18.109  0.00  0.00     0.019 C 
ENDROOT
BRANCH   3   8
ATOM      8  C   UNL d   1     -39.510  14.858  20.106  0.00  0.00     0.204 C 
ATOM      9  O   UNL d   1     -39.916  15.557  20.313  0.00  0.00    -0.286 OA
BRANCH   8  10
ATOM     10  C   UNL d   1     -39.540  14.599  20.889  0.00  0.00     0.080 C 
BRANCH  10  11
ATOM     11  S   UNL d   1     -39.199  15.058  21.488  0.00  0.00    -0.043 SA
BRANCH  11  12
ATOM     12  C   UNL d   1     -39.024  14.723  22.220  0.00  0.00     0.233 A 
ATOM     13  N   UNL d   1     -38.931  13.918  22.373  0.00  0.00    -0.029 NA
ATOM     14  C   UNL d   1     -38.762  13.833  23.173  0.00  0.00     0.788 A 
ATOM     15  N   UNL d   1     -38.626  13.120  23.568  0.00  0.00     0.064 N 
ATOM     16  N   UNL d   1     -38.752  14.584  23.510  0.00  0.00     0.050 NA
ATOM     17  N   UNL d   1     -38.915  15.145  22.919  0.00  0.00    -0.105 NA
ENDBRANCH  11  12
ENDBRANCH  10  11
ENDBRANCH   8  10
ENDBRANCH   3   8
BRANCH   1  18
ATOM     18  C   UNL d   1     -38.866  14.370  17.245  0.00  0.00     0.094 A 
ATOM     19  C   UNL d   1     -38.795  14.998  16.767  0.00  0.00     0.050 A 
ATOM     20  C   UNL d   1     -38.479  14.885  16.002  0.00  0.00     0.142 A 
ATOM     21  F   UNL d   1     -38.399  15.535  15.491  0.00  0.00    -0.204 F 
ATOM     22  C   UNL d   1     -38.249  14.136  15.756  0.00  0.00     0.032 A 
ATOM     23  C   UNL d   1     -38.326  13.494  16.255  0.00  0.00     0.034 A 
ATOM     24  C   UNL d   1     -38.638  13.609  17.011  0.00  0.00     0.156 A 
ATOM     25  F   UNL d   1     -38.553  12.789  17.173  0.00  0.00    -0.203 F 
ENDBRANCH   1  18
TORSDOF 5
ENDMDL
