MODEL 1
REMARK VINA RESULT:      74.7      0.000      0.000
REMARK  4 active torsions:
REMARK  status: ('A' for Active; 'I' for Inactive)
REMARK    1  A    between atoms: C_7  and  C_1 
REMARK    2  A    between atoms: C_8  and  C_4 
REMARK    3  A    between atoms: O_9  and  C_7 
REMARK    4  A    between atoms: C_16  and  O_9 
ROOT
ATOM      1  C   UNL d   1     -55.293-100.199 -44.232  0.00  0.00     0.098 A 
ATOM      2  C   UNL d   1     -55.387-100.513 -44.989  0.00  0.00     0.075 A 
ATOM      3  C   UNL d   1     -54.910-101.778 -44.524  0.00  0.00     0.354 A 
ATOM      4  C   UNL d   1     -55.009-100.683 -43.641  0.00  0.00     0.093 A 
ATOM      5  N   UNL d   1     -55.198-101.311 -45.156  0.00  0.00    -0.256 N 
ATOM      6  N   UNL d   1     -54.815-101.464 -43.767  0.00  0.00    -0.192 NA
ATOM      7  O   UNL d   1     -54.719-102.581 -44.689  0.00  0.00    -0.244 OA
ATOM      8  C   UNL d   1     -55.676-100.046 -45.621  0.00  0.00     0.019 C 
ATOM      9  C   UNL d   1     -55.293-101.625 -45.913  0.00  0.00     0.104 C 
ENDROOT
BRANCH   1  10
ATOM     10  C   UNL d   1     -55.487 -99.418 -44.106  0.00  0.00     0.303 C 
ATOM     11  O   UNL d   1     -54.985 -98.834 -44.403  0.00  0.00    -0.259 OA
BRANCH  10  12
ATOM     12  O   UNL d   1     -56.155 -99.190 -43.700  0.00  0.00    -0.273 OA
BRANCH  12  13
ATOM     13  C   UNL d   1     -56.872 -99.067 -44.066  0.00  0.00     0.103 A 
ATOM     14  C   UNL d   1     -56.892 -99.013 -44.889  0.00  0.00     0.025 A 
ATOM     15  C   UNL d   1     -57.554 -98.889 -45.398  0.00  0.00     0.002 A 
ATOM     16  C   UNL d   1     -58.329 -98.795 -45.170  0.00  0.00     0.000 A 
ATOM     17  C   UNL d   1     -58.675 -98.791 -44.439  0.00  0.00     0.000 A 
ATOM     18  C   UNL d   1     -58.292 -98.890 -43.688  0.00  0.00     0.002 A 
ATOM     19  C   UNL d   1     -57.508 -99.009 -43.550  0.00  0.00     0.025 A 
ENDBRANCH  12  13
ENDBRANCH  10  12
ENDBRANCH   1  10
BRANCH   4  20
ATOM     20  C   UNL d   1     -54.915-100.369 -42.884  0.00  0.00     0.023 A 
ATOM     21  C   UNL d   1     -54.821-100.865 -42.216  0.00  0.00     0.032 A 
ATOM     22  I   UNL d   1     -54.828-101.692 -42.347  0.00  0.00    -0.043 I 
ATOM     23  C   UNL d   1     -54.727-100.551 -41.459  0.00  0.00     0.006 A 
ATOM     24  C   UNL d   1     -54.725 -99.746 -41.368  0.00  0.00     0.000 A 
ATOM     25  C   UNL d   1     -54.815 -99.238 -42.007  0.00  0.00     0.000 A 
ATOM     26  C   UNL d   1     -54.909 -99.552 -42.764  0.00  0.00     0.002 A 
ENDBRANCH   4  20
TORSDOF 4
ENDMDL
