MODEL 1
REMARK VINA RESULT:      22.6      0.000      0.000
REMARK  0 active torsions:
REMARK  status: ('A' for Active; 'I' for Inactive)
ROOT
ATOM      1  C   UNL d   1      13.913  12.397  -2.283  0.00  0.00     0.150 A 
ATOM      2  N   UNL d   1      13.902  13.095  -2.735  0.00  0.00    -0.275 N 
ATOM      3  N   UNL d   1      13.562  11.799  -2.707  0.00  0.00    -0.227 NA
ATOM      4  C   UNL d   1      14.204  13.805  -2.492  0.00  0.00     0.149 A 
ATOM      5  N   UNL d   1      14.548  13.848  -1.746  0.00  0.00    -0.228 NA
ATOM      6  C   UNL d   1      14.263  12.458  -1.536  0.00  0.00     0.052 A 
ATOM      7  C   UNL d   1      13.524  12.876  -3.449  0.00  0.00     0.084 A 
ATOM      8  C   UNL d   1      14.583  13.192  -1.265  0.00  0.00     0.086 A 
ATOM      9  C   UNL d   1      13.323  12.119  -3.437  0.00  0.00     0.099 A 
ATOM     10  C   UNL d   1      14.183  14.486  -2.954  0.00  0.00     0.041 C 
ATOM     11  C   UNL d   1      14.294  11.779  -1.052  0.00  0.00     0.004 A 
ATOM     12  C   UNL d   1      13.348  13.342  -4.129  0.00  0.00     0.019 A 
ATOM     13  C   UNL d   1      14.924  13.226  -0.520  0.00  0.00     0.019 A 
ATOM     14  C   UNL d   1      12.940  11.779  -4.090  0.00  0.00     0.021 A 
ATOM     15  C   UNL d   1      14.642  11.839  -0.305  0.00  0.00     0.000 A 
ATOM     16  C   UNL d   1      12.959  12.979  -4.782  0.00  0.00     0.002 A 
ATOM     17  C   UNL d   1      12.770  12.238  -4.752  0.00  0.00     0.002 A 
ATOM     18  C   UNL d   1      14.953  12.552  -0.045  0.00  0.00     0.002 A 
ENDROOT
TORSDOF 0
ENDMDL
