MODEL 1
REMARK VINA RESULT:      -1.3      0.000      0.000
REMARK  6 active torsions:
REMARK  status: ('A' for Active; 'I' for Inactive)
REMARK    1  A    between atoms: C_5  and  N_1 
REMARK    2  A    between atoms: C_7  and  C_5 
REMARK    3  A    between atoms: O_14  and  C_10 
REMARK    4  A    between atoms: C_18  and  O_14 
REMARK    5  A    between atoms: C_19  and  C_18 
REMARK    6  A    between atoms: C_20  and  C_19 
ROOT
ATOM      1  C   UNL d   1     -42.374-122.123 -51.876  0.00  0.00     0.087 C 
ENDROOT
BRANCH   1   2
ATOM      2  N   UNL d   1     -42.112-121.943 -51.114  0.00  0.00    -0.251 N 
ATOM      3  C   UNL d   1     -41.547-121.385 -50.881  0.00  0.00     0.378 A 
ATOM      4  O   UNL d   1     -41.483-121.418 -50.057  0.00  0.00    -0.258 OA
ATOM      5  O   UNL d   1     -41.123-120.885 -51.378  0.00  0.00    -0.237 OA
ATOM      6  C   UNL d   1     -42.008-121.996 -49.782  0.00  0.00     0.121 A 
ATOM      7  C   UNL d   1     -42.397-122.321 -50.436  0.00  0.00     0.092 A 
ATOM      8  C   UNL d   1     -42.189-122.275 -49.024  0.00  0.00     0.026 A 
ATOM      9  C   UNL d   1     -42.957-122.913 -50.337  0.00  0.00     0.020 A 
ATOM     10  C   UNL d   1     -43.133-123.188 -49.584  0.00  0.00     0.002 A 
ATOM     11  C   UNL d   1     -42.749-122.867 -48.926  0.00  0.00     0.002 A 
ATOM     12  C   UNL d   1     -43.695-123.782 -49.483  0.00  0.00     0.000 C 
ENDBRANCH   1   2
BRANCH   1  13
ATOM     13  C   UNL d   1     -41.970-122.679 -52.336  0.00  0.00     0.041 A 
ATOM     14  C   UNL d   1     -42.011-122.647 -53.146  0.00  0.00     0.102 A 
ATOM     15  C   UNL d   1     -41.611-123.198 -53.599  0.00  0.00     0.025 A 
ATOM     16  C   UNL d   1     -41.164-123.786 -53.236  0.00  0.00     0.002 A 
ATOM     17  C   UNL d   1     -41.123-123.817 -52.412  0.00  0.00     0.000 A 
ATOM     18  C   UNL d   1     -41.528-123.259 -51.960  0.00  0.00     0.004 A 
BRANCH  14  19
ATOM     19  O   UNL d   1     -42.459-122.059 -53.517  0.00  0.00    -0.305 OA
BRANCH  19  20
ATOM     20  C   UNL d   1     -42.619-122.106 -54.325  0.00  0.00     0.123 C 
BRANCH  20  21
ATOM     21  C   UNL d   1     -42.519-121.450 -54.803  0.00  0.00     0.027 C 
BRANCH  21  22
ATOM     22  C   UNL d   1     -42.524-121.529 -55.624  0.00  0.00     0.002 C 
ATOM     23  C   UNL d   1     -41.814-121.627 -56.038  0.00  0.00     0.000 C 
ENDBRANCH  21  22
ENDBRANCH  20  21
ENDBRANCH  19  20
ENDBRANCH  14  19
ENDBRANCH   1  13
TORSDOF 6
ENDMDL
