MODEL 1
REMARK VINA RESULT:      36.4      0.000      0.000
REMARK  5 active torsions:
REMARK  status: ('A' for Active; 'I' for Inactive)
REMARK    1  A    between atoms: N_5  and  C_1 
REMARK    2  A    between atoms: C_8  and  C_2 
REMARK       I    between atoms: C_7  and  N_5 
REMARK    3  A    between atoms: C_9  and  C_7 
REMARK    4  A    between atoms: O_16  and  C_8 
REMARK    5  A    between atoms: C_20  and  O_16 
ROOT
ATOM      1  C   UNL d   1     -57.819 -98.765 -43.538  0.00  0.00     0.119 A 
ATOM      2  C   UNL d   1     -58.586 -98.766 -43.860  0.00  0.00     0.088 A 
ATOM      3  S   UNL d   1     -57.869 -98.771 -42.720  0.00  0.00    -0.068 SA
ATOM      4  C   UNL d   1     -59.134 -98.773 -43.210  0.00  0.00     0.013 A 
ATOM      5  C   UNL d   1     -58.672 -98.776 -42.515  0.00  0.00     0.031 A 
ATOM      6  C   UNL d   1     -59.924 -98.778 -42.980  0.00  0.00     0.001 A 
ATOM      7  C   UNL d   1     -59.204 -98.783 -41.850  0.00  0.00     0.006 A 
ATOM      8  C   UNL d   1     -59.959 -98.784 -42.159  0.00  0.00     0.001 A 
ENDROOT
BRANCH   1   9
ATOM      9  N   UNL d   1     -57.080 -98.758 -43.977  0.00  0.00    -0.201 NA
ATOM     10  C   UNL d   1     -56.613 -99.452 -44.014  0.00  0.00     0.286 C 
ATOM     11  O   UNL d   1     -56.828-100.149 -43.646  0.00  0.00    -0.265 OA
BRANCH  10  12
ATOM     12  C   UNL d   1     -55.888 -99.450 -44.444  0.00  0.00     0.087 A 
ATOM     13  S   UNL d   1     -55.471-100.143 -44.472  0.00  0.00    -0.082 SA
ATOM     14  C   UNL d   1     -54.774 -99.992 -44.932  0.00  0.00     0.036 A 
ATOM     15  C   UNL d   1     -54.795 -99.221 -45.163  0.00  0.00     0.008 A 
ATOM     16  C   UNL d   1     -55.480 -98.885 -44.864  0.00  0.00     0.012 A 
ENDBRANCH  10  12
ENDBRANCH   1   9
BRANCH   2  17
ATOM     17  C   UNL d   1     -58.794 -98.761 -44.659  0.00  0.00     0.302 C 
ATOM     18  O   UNL d   1     -59.597 -98.757 -44.895  0.00  0.00    -0.259 OA
BRANCH  17  19
ATOM     19  O   UNL d   1     -58.192 -98.759 -45.249  0.00  0.00    -0.271 OA
BRANCH  19  20
ATOM     20  C   UNL d   1     -58.340 -99.154 -45.961  0.00  0.00     0.126 C 
ATOM     21  C   UNL d   1     -59.094 -99.174 -46.269  0.00  0.00     0.029 C 
ENDBRANCH  19  20
ENDBRANCH  17  19
ENDBRANCH   2  17
TORSDOF 5
ENDMDL
MODEL 2
REMARK VINA RESULT:      39.2      1.416      3.201
REMARK  5 active torsions:
REMARK  status: ('A' for Active; 'I' for Inactive)
REMARK    1  A    between atoms: N_5  and  C_1 
REMARK    2  A    between atoms: C_8  and  C_2 
REMARK       I    between atoms: C_7  and  N_5 
REMARK    3  A    between atoms: C_9  and  C_7 
REMARK    4  A    between atoms: O_16  and  C_8 
REMARK    5  A    between atoms: C_20  and  O_16 
ROOT
ATOM      1  C   UNL d   1     -58.249 -98.862 -44.473  0.00  0.00     0.119 A 
ATOM      2  C   UNL d   1     -57.543 -98.984 -44.050  0.00  0.00     0.088 A 
ATOM      3  S   UNL d   1     -58.866 -98.755 -43.944  0.00  0.00    -0.068 SA
ATOM      4  C   UNL d   1     -57.735 -98.950 -43.222  0.00  0.00     0.013 A 
ATOM      5  C   UNL d   1     -58.555 -98.808 -43.178  0.00  0.00     0.031 A 
ATOM      6  C   UNL d   1     -57.451 -98.998 -42.451  0.00  0.00     0.001 A 
ATOM      7  C   UNL d   1     -58.769 -98.770 -42.354  0.00  0.00     0.006 A 
ATOM      8  C   UNL d   1     -58.080 -98.889 -41.933  0.00  0.00     0.001 A 
ENDROOT
BRANCH   1   9
ATOM      9  N   UNL d   1     -58.337 -98.848 -45.328  0.00  0.00    -0.201 NA
ATOM     10  C   UNL d   1     -59.100 -98.899 -45.668  0.00  0.00     0.286 C 
ATOM     11  O   UNL d   1     -59.780 -98.963 -45.220  0.00  0.00    -0.265 OA
BRANCH  10  12
ATOM     12  C   UNL d   1     -59.189 -98.885 -46.506  0.00  0.00     0.087 A 
ATOM     13  S   UNL d   1     -59.941 -98.816 -46.798  0.00  0.00    -0.082 SA
ATOM     14  C   UNL d   1     -59.878 -98.816 -47.644  0.00  0.00     0.036 A 
ATOM     15  C   UNL d   1     -59.098 -98.884 -47.831  0.00  0.00     0.008 A 
ATOM     16  C   UNL d   1     -58.672 -98.927 -47.132  0.00  0.00     0.012 A 
ENDBRANCH  10  12
ENDBRANCH   1   9
BRANCH   2  17
ATOM     17  C   UNL d   1     -56.789 -99.115 -44.360  0.00  0.00     0.302 C 
ATOM     18  O   UNL d   1     -56.559 -98.778 -45.090  0.00  0.00    -0.259 OA
BRANCH  17  19
ATOM     19  O   UNL d   1     -56.240 -99.595 -43.937  0.00  0.00    -0.271 OA
BRANCH  19  20
ATOM     20  C   UNL d   1     -55.524 -99.787 -44.303  0.00  0.00     0.126 C 
ATOM     21  C   UNL d   1     -55.054-100.379 -43.998  0.00  0.00     0.029 C 
ENDBRANCH  19  20
ENDBRANCH  17  19
ENDBRANCH   2  17
TORSDOF 5
ENDMDL
