MODEL 1
REMARK VINA RESULT:       3.2      0.000      0.000
REMARK  7 active torsions:
REMARK  status: ('A' for Active; 'I' for Inactive)
REMARK    1  A    between atoms: S_2  and  N_1 
REMARK    2  A    between atoms: C_3  and  N_1 
REMARK       I    between atoms: C_4  and  N_1 
REMARK    3  A    between atoms: C_10  and  S_2 
REMARK    4  A    between atoms: C_15  and  C_4 
REMARK    5  A    between atoms: C_6  and  O_8 
REMARK    6  A    between atoms: C_18  and  C_6 
REMARK    7  A    between atoms: O_8  and  C_7 
ROOT
ATOM      1  C   UNL d   1      32.209  18.964 -23.046  0.00  0.00     0.078 A 
ATOM      2  C   UNL d   1      32.533  19.565 -23.499  0.00  0.00     0.019 A 
ATOM      3  C   UNL d   1      32.666  20.406 -22.392  0.00  0.00     0.103 A 
ATOM      4  C   UNL d   1      32.758  20.272 -23.183  0.00  0.00     0.024 A 
ATOM      5  C   UNL d   1      32.113  19.092 -22.250  0.00  0.00     0.020 A 
ATOM      6  C   UNL d   1      32.340  19.806 -21.928  0.00  0.00     0.026 A 
ATOM      7  C   UNL d   1      32.625  19.423 -24.307  0.00  0.00     0.002 A 
ATOM      8  C   UNL d   1      33.085  20.878 -23.642  0.00  0.00     0.002 A 
ATOM      9  C   UNL d   1      32.949  20.024 -24.760  0.00  0.00     0.000 A 
ATOM     10  C   UNL d   1      33.174  20.732 -24.443  0.00  0.00     0.000 A 
ENDROOT
BRANCH   1  11
ATOM     11  N   UNL d   1      31.975  18.223 -23.390  0.00  0.00    -0.198 N 
ATOM     12  C   UNL d   1      32.511  17.572 -23.358  0.00  0.00     0.274 C 
ATOM     13  O   UNL d   1      33.241  17.661 -23.001  0.00  0.00    -0.266 OA
BRANCH  11  14
ATOM     14  S   UNL d   1      31.237  18.119 -23.754  0.00  0.00     0.274 S 
ATOM     15  O   UNL d   1      31.612  18.095 -24.531  0.00  0.00    -0.200 OA
ATOM     16  O   UNL d   1      30.883  18.144 -23.010  0.00  0.00    -0.200 OA
BRANCH  14  17
ATOM     17  C   UNL d   1      30.463  18.013 -24.107  0.00  0.00     0.104 A 
ATOM     18  C   UNL d   1      29.982  17.455 -23.840  0.00  0.00     0.013 A 
ATOM     19  C   UNL d   1      29.210  17.326 -24.169  0.00  0.00     0.001 A 
ATOM     20  C   UNL d   1      28.962  17.800 -24.784  0.00  0.00     0.000 A 
ATOM     21  C   UNL d   1      29.483  18.428 -25.096  0.00  0.00     0.001 A 
ATOM     22  C   UNL d   1      28.193  17.641 -25.081  0.00  0.00     0.000 C 
ATOM     23  C   UNL d   1      30.259  18.528 -24.737  0.00  0.00     0.013 A 
ENDBRANCH  14  17
ENDBRANCH  11  14
BRANCH  12  24
ATOM     24  C   UNL d   1      32.279  16.864 -23.690  0.00  0.00     0.060 A 
ATOM     25  C   UNL d   1      32.509  16.700 -24.486  0.00  0.00     0.025 A 
ATOM     26  C   UNL d   1      32.295  16.008 -24.842  0.00  0.00     0.099 A 
ATOM     27  N   UNL d   1      31.854  15.453 -24.442  0.00  0.00    -0.242 NA
ATOM     28  C   UNL d   1      31.621  15.603 -23.656  0.00  0.00     0.099 A 
ATOM     29  C   UNL d   1      31.826  16.281 -23.293  0.00  0.00     0.025 A 
ENDBRANCH  12  24
ENDBRANCH   1  11
BRANCH   3  30
ATOM     30  O   UNL d   1      32.899  21.147 -22.049  0.00  0.00    -0.273 OA
BRANCH  30  31
ATOM     31  C   UNL d   1      32.803  21.356 -21.244  0.00  0.00     0.300 C 
ATOM     32  O   UNL d   1      32.924  20.847 -20.641  0.00  0.00    -0.259 OA
BRANCH  31  33
ATOM     33  C   UNL d   1      32.571  22.125 -21.073  0.00  0.00     0.067 A 
ATOM     34  C   UNL d   1      32.930  22.788 -21.430  0.00  0.00     0.026 A 
ATOM     35  C   UNL d   1      32.661  23.573 -21.227  0.00  0.00     0.099 A 
ATOM     36  N   UNL d   1      32.077  23.675 -20.704  0.00  0.00    -0.242 NA
ATOM     37  C   UNL d   1      31.708  23.059 -20.339  0.00  0.00     0.099 A 
ATOM     38  C   UNL d   1      31.967  22.288 -20.536  0.00  0.00     0.026 A 
ENDBRANCH  31  33
ENDBRANCH  30  31
ENDBRANCH   3  30
TORSDOF 7
ENDMDL
