MODEL 1
REMARK VINA RESULT:      -8.1      0.000      0.000
REMARK  7 active torsions:
REMARK  status: ('A' for Active; 'I' for Inactive)
REMARK    1  A    between atoms: C_8  and  C_1 
REMARK    2  A    between atoms: N_7  and  C_2 
REMARK    3  A    between atoms: C_5  and  N_7 
REMARK    4  A    between atoms: N_9  and  C_5 
REMARK    5  A    between atoms: O_14  and  C_8 
REMARK    6  A    between atoms: C_10  and  N_9 
REMARK    7  A    between atoms: C_20  and  O_14 
ROOT
ATOM      1  C   UNL d   1      53.421  32.201  53.637  0.00  0.00     0.162 A 
ATOM      2  C   UNL d   1      53.012  32.884  53.819  0.00  0.00     0.108 A 
ATOM      3  N   UNL d   1      54.153  32.229  54.016  0.00  0.00    -0.239 NA
ATOM      4  C   UNL d   1      53.482  33.342  54.311  0.00  0.00     0.037 A 
ATOM      5  C   UNL d   1      54.189  32.941  54.436  0.00  0.00     0.083 A 
ATOM      6  C   UNL d   1      53.358  34.076  54.663  0.00  0.00     0.003 A 
ATOM      7  C   UNL d   1      54.776  33.271  54.914  0.00  0.00     0.019 A 
ATOM      8  C   UNL d   1      53.939  34.412  55.141  0.00  0.00     0.000 A 
ATOM      9  C   UNL d   1      54.650  34.002  55.264  0.00  0.00     0.002 A 
ENDROOT
BRANCH   2  10
ATOM     10  N   UNL d   1      52.247  33.086  53.553  0.00  0.00    -0.216 NA
BRANCH  10  11
ATOM     11  C   UNL d   1      52.143  33.762  53.089  0.00  0.00     0.221 C 
ATOM     12  S   UNL d   1      52.671  33.941  52.478  0.00  0.00    -0.037 SA
BRANCH  11  13
ATOM     13  N   UNL d   1      51.501  34.261  53.244  0.00  0.00    -0.217 NA
BRANCH  13  14
ATOM     14  C   UNL d   1      50.888  34.314  52.696  0.00  0.00     0.084 A 
ATOM     15  C   UNL d   1      50.144  34.602  52.921  0.00  0.00     0.018 A 
ATOM     16  C   UNL d   1      50.009  34.844  53.714  0.00  0.00     0.002 C 
ATOM     17  C   UNL d   1      49.529  34.657  52.379  0.00  0.00     0.002 A 
ATOM     18  C   UNL d   1      49.660  34.419  51.598  0.00  0.00     0.000 A 
ATOM     19  C   UNL d   1      50.397  34.130  51.360  0.00  0.00     0.002 A 
ATOM     20  C   UNL d   1      51.011  34.079  51.918  0.00  0.00     0.019 A 
ENDBRANCH  13  14
ENDBRANCH  11  13
ENDBRANCH  10  11
ENDBRANCH   2  10
BRANCH   1  21
ATOM     21  C   UNL d   1      53.151  31.586  53.156  0.00  0.00     0.320 C 
ATOM     22  O   UNL d   1      53.219  31.650  52.335  0.00  0.00    -0.257 OA
BRANCH  21  23
ATOM     23  O   UNL d   1      52.816  30.913  53.481  0.00  0.00    -0.270 OA
BRANCH  23  24
ATOM     24  C   UNL d   1      52.821  30.207  53.049  0.00  0.00     0.126 C 
ATOM     25  C   UNL d   1      52.593  29.508  53.411  0.00  0.00     0.029 C 
ENDBRANCH  23  24
ENDBRANCH  21  23
ENDBRANCH   1  21
TORSDOF 7
ENDMDL
MODEL 2
REMARK VINA RESULT:      -7.8      1.227      3.669
REMARK  7 active torsions:
REMARK  status: ('A' for Active; 'I' for Inactive)
REMARK    1  A    between atoms: C_8  and  C_1 
REMARK    2  A    between atoms: N_7  and  C_2 
REMARK    3  A    between atoms: C_5  and  N_7 
REMARK    4  A    between atoms: N_9  and  C_5 
REMARK    5  A    between atoms: O_14  and  C_8 
REMARK    6  A    between atoms: C_10  and  N_9 
REMARK    7  A    between atoms: C_20  and  O_14 
ROOT
ATOM      1  C   UNL d   1      52.878  33.870  53.699  0.00  0.00     0.162 A 
ATOM      2  C   UNL d   1      53.187  33.205  54.060  0.00  0.00     0.108 A 
ATOM      3  N   UNL d   1      53.265  34.532  54.004  0.00  0.00    -0.239 NA
ATOM      4  C   UNL d   1      53.765  33.445  54.590  0.00  0.00     0.037 A 
ATOM      5  C   UNL d   1      53.817  34.266  54.558  0.00  0.00     0.083 A 
ATOM      6  C   UNL d   1      54.254  33.022  55.100  0.00  0.00     0.003 A 
ATOM      7  C   UNL d   1      54.358  34.667  55.036  0.00  0.00     0.019 A 
ATOM      8  C   UNL d   1      54.796  33.415  55.579  0.00  0.00     0.000 A 
ATOM      9  C   UNL d   1      54.844  34.243  55.543  0.00  0.00     0.002 A 
ENDROOT
BRANCH   2  10
ATOM     10  N   UNL d   1      52.956  32.416  53.918  0.00  0.00    -0.216 NA
BRANCH  10  11
ATOM     11  C   UNL d   1      53.521  31.866  53.670  0.00  0.00     0.221 C 
ATOM     12  S   UNL d   1      54.032  32.039  53.042  0.00  0.00    -0.037 SA
BRANCH  11  13
ATOM     13  N   UNL d   1      53.570  31.136  54.057  0.00  0.00    -0.217 NA
BRANCH  13  14
ATOM     14  C   UNL d   1      53.250  30.466  53.700  0.00  0.00     0.084 A 
ATOM     15  C   UNL d   1      53.183  29.754  54.121  0.00  0.00     0.018 A 
ATOM     16  C   UNL d   1      53.443  29.712  54.918  0.00  0.00     0.002 C 
ATOM     17  C   UNL d   1      52.865  29.083  53.770  0.00  0.00     0.002 A 
ATOM     18  C   UNL d   1      52.609  29.123  52.984  0.00  0.00     0.000 A 
ATOM     19  C   UNL d   1      52.671  29.826  52.554  0.00  0.00     0.002 A 
ATOM     20  C   UNL d   1      52.994  30.498  52.920  0.00  0.00     0.019 A 
ENDBRANCH  13  14
ENDBRANCH  11  13
ENDBRANCH  10  11
ENDBRANCH   2  10
BRANCH   1  21
ATOM     21  C   UNL d   1      52.282  33.880  53.128  0.00  0.00     0.320 C 
ATOM     22  O   UNL d   1      52.482  33.838  52.328  0.00  0.00    -0.257 OA
BRANCH  21  23
ATOM     23  O   UNL d   1      51.492  33.930  53.343  0.00  0.00    -0.270 OA
BRANCH  23  24
ATOM     24  C   UNL d   1      50.932  34.167  52.783  0.00  0.00     0.126 C 
ATOM     25  C   UNL d   1      50.155  34.288  53.012  0.00  0.00     0.029 C 
ENDBRANCH  23  24
ENDBRANCH  21  23
ENDBRANCH   1  21
TORSDOF 7
ENDMDL
MODEL 3
REMARK VINA RESULT:      -7.2      1.141      2.690
REMARK  7 active torsions:
REMARK  status: ('A' for Active; 'I' for Inactive)
REMARK    1  A    between atoms: C_8  and  C_1 
REMARK    2  A    between atoms: N_7  and  C_2 
REMARK    3  A    between atoms: C_5  and  N_7 
REMARK    4  A    between atoms: N_9  and  C_5 
REMARK    5  A    between atoms: O_14  and  C_8 
REMARK    6  A    between atoms: C_10  and  N_9 
REMARK    7  A    between atoms: C_20  and  O_14 
ROOT
ATOM      1  C   UNL d   1      53.977  31.898  53.681  0.00  0.00     0.162 A 
ATOM      2  C   UNL d   1      53.327  31.779  53.202  0.00  0.00     0.108 A 
ATOM      3  N   UNL d   1      54.178  31.177  54.028  0.00  0.00    -0.239 NA
ATOM      4  C   UNL d   1      53.117  30.988  53.245  0.00  0.00     0.037 A 
ATOM      5  C   UNL d   1      53.641  30.611  53.755  0.00  0.00     0.083 A 
ATOM      6  C   UNL d   1      52.513  30.558  52.885  0.00  0.00     0.003 A 
ATOM      7  C   UNL d   1      53.565  29.803  53.908  0.00  0.00     0.019 A 
ATOM      8  C   UNL d   1      52.431  29.751  53.032  0.00  0.00     0.000 A 
ATOM      9  C   UNL d   1      52.963  29.377  53.548  0.00  0.00     0.002 A 
ENDROOT
BRANCH   2  10
ATOM     10  N   UNL d   1      52.938  32.359  52.745  0.00  0.00    -0.216 NA
BRANCH  10  11
ATOM     11  C   UNL d   1      52.233  32.691  53.021  0.00  0.00     0.221 C 
ATOM     12  S   UNL d   1      51.601  32.208  53.249  0.00  0.00    -0.037 SA
BRANCH  11  13
ATOM     13  N   UNL d   1      52.166  33.514  53.068  0.00  0.00    -0.217 NA
BRANCH  13  14
ATOM     14  C   UNL d   1      51.474  33.879  52.809  0.00  0.00     0.084 A 
ATOM     15  C   UNL d   1      51.170  34.539  53.209  0.00  0.00     0.018 A 
ATOM     16  C   UNL d   1      51.568  34.842  53.884  0.00  0.00     0.002 C 
ATOM     17  C   UNL d   1      50.481  34.907  52.955  0.00  0.00     0.002 A 
ATOM     18  C   UNL d   1      50.088  34.611  52.291  0.00  0.00     0.000 A 
ATOM     19  C   UNL d   1      50.381  33.953  51.883  0.00  0.00     0.002 A 
ATOM     20  C   UNL d   1      51.079  33.590  52.149  0.00  0.00     0.019 A 
ENDBRANCH  13  14
ENDBRANCH  11  13
ENDBRANCH  10  11
ENDBRANCH   2  10
BRANCH   1  21
ATOM     21  C   UNL d   1      54.368  32.616  53.799  0.00  0.00     0.320 C 
ATOM     22  O   UNL d   1      54.753  32.980  53.166  0.00  0.00    -0.257 OA
BRANCH  21  23
ATOM     23  O   UNL d   1      54.381  32.973  54.537  0.00  0.00    -0.270 OA
BRANCH  23  24
ATOM     24  C   UNL d   1      54.988  33.503  54.722  0.00  0.00     0.126 C 
ATOM     25  C   UNL d   1      54.996  33.872  55.453  0.00  0.00     0.029 C 
ENDBRANCH  23  24
ENDBRANCH  21  23
ENDBRANCH   1  21
TORSDOF 7
ENDMDL
MODEL 4
REMARK VINA RESULT:      -7.0      1.386      4.082
REMARK  7 active torsions:
REMARK  status: ('A' for Active; 'I' for Inactive)
REMARK    1  A    between atoms: C_8  and  C_1 
REMARK    2  A    between atoms: N_7  and  C_2 
REMARK    3  A    between atoms: C_5  and  N_7 
REMARK    4  A    between atoms: N_9  and  C_5 
REMARK    5  A    between atoms: O_14  and  C_8 
REMARK    6  A    between atoms: C_10  and  N_9 
REMARK    7  A    between atoms: C_20  and  O_14 
ROOT
ATOM      1  C   UNL d   1      53.141  33.788  54.270  0.00  0.00     0.162 A 
ATOM      2  C   UNL d   1      52.693  33.210  53.906  0.00  0.00     0.108 A 
ATOM      3  N   UNL d   1      52.854  34.524  54.033  0.00  0.00    -0.239 NA
ATOM      4  C   UNL d   1      52.126  33.578  53.442  0.00  0.00     0.037 A 
ATOM      5  C   UNL d   1      52.222  34.392  53.517  0.00  0.00     0.083 A 
ATOM      6  C   UNL d   1      51.531  33.277  52.958  0.00  0.00     0.003 A 
ATOM      7  C   UNL d   1      51.724  34.909  53.109  0.00  0.00     0.019 A 
ATOM      8  C   UNL d   1      51.031  33.787  52.547  0.00  0.00     0.000 A 
ATOM      9  C   UNL d   1      51.132  34.607  52.627  0.00  0.00     0.002 A 
ENDROOT
BRANCH   2  10
ATOM     10  N   UNL d   1      52.791  32.385  53.989  0.00  0.00    -0.216 NA
BRANCH  10  11
ATOM     11  C   UNL d   1      53.018  31.934  53.335  0.00  0.00     0.221 C 
ATOM     12  S   UNL d   1      53.638  32.183  52.846  0.00  0.00    -0.037 SA
BRANCH  11  13
ATOM     13  N   UNL d   1      52.618  31.228  53.174  0.00  0.00    -0.217 NA
BRANCH  13  14
ATOM     14  C   UNL d   1      52.937  30.514  53.432  0.00  0.00     0.084 A 
ATOM     15  C   UNL d   1      52.451  29.852  53.549  0.00  0.00     0.018 A 
ATOM     16  C   UNL d   1      51.626  29.906  53.403  0.00  0.00     0.002 C 
ATOM     17  C   UNL d   1      52.764  29.137  53.806  0.00  0.00     0.002 A 
ATOM     18  C   UNL d   1      53.577  29.083  53.950  0.00  0.00     0.000 A 
ATOM     19  C   UNL d   1      54.072  29.735  53.837  0.00  0.00     0.002 A 
ATOM     20  C   UNL d   1      53.744  30.452  53.577  0.00  0.00     0.019 A 
ENDBRANCH  13  14
ENDBRANCH  11  13
ENDBRANCH  10  11
ENDBRANCH   2  10
BRANCH   1  21
ATOM     21  C   UNL d   1      53.773  33.659  54.786  0.00  0.00     0.320 C 
ATOM     22  O   UNL d   1      53.635  33.307  55.520  0.00  0.00    -0.257 OA
BRANCH  21  23
ATOM     23  O   UNL d   1      54.536  33.877  54.580  0.00  0.00    -0.270 OA
BRANCH  23  24
ATOM     24  C   UNL d   1      55.127  33.882  55.159  0.00  0.00     0.126 C 
ATOM     25  C   UNL d   1      55.899  34.058  54.949  0.00  0.00     0.029 C 
ENDBRANCH  23  24
ENDBRANCH  21  23
ENDBRANCH   1  21
TORSDOF 7
ENDMDL
MODEL 5
REMARK VINA RESULT:      -6.4      1.057      3.666
REMARK  7 active torsions:
REMARK  status: ('A' for Active; 'I' for Inactive)
REMARK    1  A    between atoms: C_8  and  C_1 
REMARK    2  A    between atoms: N_7  and  C_2 
REMARK    3  A    between atoms: C_5  and  N_7 
REMARK    4  A    between atoms: N_9  and  C_5 
REMARK    5  A    between atoms: O_14  and  C_8 
REMARK    6  A    between atoms: C_10  and  N_9 
REMARK    7  A    between atoms: C_20  and  O_14 
ROOT
ATOM      1  C   UNL d   1      52.150  31.994  52.905  0.00  0.00     0.162 A 
ATOM      2  C   UNL d   1      52.413  32.768  52.924  0.00  0.00     0.108 A 
ATOM      3  N   UNL d   1      51.326  32.001  52.933  0.00  0.00    -0.239 NA
ATOM      4  C   UNL d   1      51.758  33.261  52.963  0.00  0.00     0.037 A 
ATOM      5  C   UNL d   1      51.083  32.791  52.969  0.00  0.00     0.083 A 
ATOM      6  C   UNL d   1      51.689  34.081  52.994  0.00  0.00     0.003 A 
ATOM      7  C   UNL d   1      50.335  33.138  53.007  0.00  0.00     0.019 A 
ATOM      8  C   UNL d   1      50.945  34.434  53.032  0.00  0.00     0.000 A 
ATOM      9  C   UNL d   1      50.268  33.955  53.038  0.00  0.00     0.002 A 
ENDROOT
BRANCH   2  10
ATOM     10  N   UNL d   1      53.208  33.018  52.906  0.00  0.00    -0.216 NA
BRANCH  10  11
ATOM     11  C   UNL d   1      53.499  33.496  53.514  0.00  0.00     0.221 C 
ATOM     12  S   UNL d   1      53.498  34.320  53.442  0.00  0.00    -0.037 SA
BRANCH  11  13
ATOM     13  N   UNL d   1      53.792  33.139  54.201  0.00  0.00    -0.217 NA
BRANCH  13  14
ATOM     14  C   UNL d   1      54.496  33.412  54.530  0.00  0.00     0.084 A 
ATOM     15  C   UNL d   1      54.633  33.352  55.346  0.00  0.00     0.018 A 
ATOM     16  C   UNL d   1      54.050  33.010  55.845  0.00  0.00     0.002 C 
ATOM     17  C   UNL d   1      55.333  33.622  55.679  0.00  0.00     0.002 A 
ATOM     18  C   UNL d   1      55.908  33.959  55.189  0.00  0.00     0.000 A 
ATOM     19  C   UNL d   1      55.784  34.024  54.374  0.00  0.00     0.002 A 
ATOM     20  C   UNL d   1      55.072  33.748  54.049  0.00  0.00     0.019 A 
ENDBRANCH  13  14
ENDBRANCH  11  13
ENDBRANCH  10  11
ENDBRANCH   2  10
BRANCH   1  21
ATOM     21  C   UNL d   1      52.626  31.321  52.865  0.00  0.00     0.320 C 
ATOM     22  O   UNL d   1      53.067  31.173  52.183  0.00  0.00    -0.257 OA
BRANCH  21  23
ATOM     23  O   UNL d   1      52.667  30.796  53.493  0.00  0.00    -0.270 OA
BRANCH  23  24
ATOM     24  C   UNL d   1      52.966  30.035  53.369  0.00  0.00     0.126 C 
ATOM     25  C   UNL d   1      53.158  29.564  54.010  0.00  0.00     0.029 C 
ENDBRANCH  23  24
ENDBRANCH  21  23
ENDBRANCH   1  21
TORSDOF 7
ENDMDL
