MODEL 1
REMARK VINA RESULT:      -5.9      0.000      0.000
REMARK  6 active torsions:
REMARK  status: ('A' for Active; 'I' for Inactive)
REMARK    1  A    between atoms: C_9  and  C_1 
REMARK    2  A    between atoms: N_4  and  C_2 
REMARK       I    between atoms: C_5  and  N_4 
REMARK    3  A    between atoms: C_7  and  C_5 
REMARK    4  A    between atoms: O_13  and  C_9 
REMARK    5  A    between atoms: O_16  and  C_11 
REMARK    6  A    between atoms: C_19  and  O_13 
ROOT
ATOM      1  C   UNL d   1     -46.848  13.195  22.843  0.00  0.00     0.181 A 
ATOM      2  C   UNL d   1     -47.303  12.562  23.134  0.00  0.00     0.115 A 
ATOM      3  O   UNL d   1     -46.059  12.940  22.830  0.00  0.00    -0.300 OA
ATOM      4  C   UNL d   1     -46.798  11.937  23.292  0.00  0.00     0.043 A 
ATOM      5  C   UNL d   1     -46.027  12.169  23.105  0.00  0.00     0.102 A 
ATOM      6  C   UNL d   1     -46.940  11.180  23.586  0.00  0.00     0.004 A 
ATOM      7  C   UNL d   1     -45.405  11.646  23.210  0.00  0.00     0.025 A 
ATOM      8  C   UNL d   1     -46.310  10.652  23.692  0.00  0.00     0.000 A 
ATOM      9  C   UNL d   1     -45.541  10.892  23.501  0.00  0.00     0.002 A 
ENDROOT
BRANCH   2  10
ATOM     10  N   UNL d   1     -48.127  12.568  23.242  0.00  0.00    -0.206 NA
ATOM     11  C   UNL d   1     -48.610  12.136  22.734  0.00  0.00     0.281 C 
ATOM     12  O   UNL d   1     -48.281  11.697  22.119  0.00  0.00    -0.265 OA
BRANCH  11  13
ATOM     13  C   UNL d   1     -49.425  12.143  22.842  0.00  0.00     0.080 A 
ATOM     14  C   UNL d   1     -49.932  12.306  22.199  0.00  0.00     0.099 A 
ATOM     15  C   UNL d   1     -50.741  12.311  22.318  0.00  0.00     0.024 A 
ATOM     16  C   UNL d   1     -51.052  12.153  23.073  0.00  0.00     0.002 A 
ATOM     17  C   UNL d   1     -50.548  11.994  23.697  0.00  0.00     0.000 A 
ATOM     18  C   UNL d   1     -49.736  11.988  23.586  0.00  0.00     0.007 A 
BRANCH  14  19
ATOM     19  O   UNL d   1     -49.609  12.459  21.461  0.00  0.00    -0.328 OA
ATOM     20  C   UNL d   1     -50.110  12.723  20.861  0.00  0.00     0.181 C 
ENDBRANCH  14  19
ENDBRANCH  11  13
ENDBRANCH   2  10
BRANCH   1  21
ATOM     21  C   UNL d   1     -47.130  13.936  22.613  0.00  0.00     0.325 C 
ATOM     22  O   UNL d   1     -47.096  14.160  21.817  0.00  0.00    -0.257 OA
BRANCH  21  23
ATOM     23  O   UNL d   1     -47.442  14.444  23.173  0.00  0.00    -0.269 OA
BRANCH  23  24
ATOM     24  C   UNL d   1     -47.552  15.247  22.989  0.00  0.00     0.126 C 
ATOM     25  C   UNL d   1     -48.294  15.598  23.115  0.00  0.00     0.029 C 
ENDBRANCH  23  24
ENDBRANCH  21  23
ENDBRANCH   1  21
TORSDOF 6
ENDMDL
MODEL 2
REMARK VINA RESULT:      -5.6      7.993      9.958
REMARK  6 active torsions:
REMARK  status: ('A' for Active; 'I' for Inactive)
REMARK    1  A    between atoms: C_9  and  C_1 
REMARK    2  A    between atoms: N_4  and  C_2 
REMARK       I    between atoms: C_5  and  N_4 
REMARK    3  A    between atoms: C_7  and  C_5 
REMARK    4  A    between atoms: O_13  and  C_9 
REMARK    5  A    between atoms: O_16  and  C_11 
REMARK    6  A    between atoms: C_19  and  O_13 
ROOT
ATOM      1  C   UNL d   1     -39.357  14.453  17.496  0.00  0.00     0.181 A 
ATOM      2  C   UNL d   1     -39.808  14.867  18.059  0.00  0.00     0.115 A 
ATOM      3  O   UNL d   1     -39.743  14.540  16.767  0.00  0.00    -0.300 OA
ATOM      4  C   UNL d   1     -40.452  15.197  17.678  0.00  0.00     0.043 A 
ATOM      5  C   UNL d   1     -40.414  14.996  16.877  0.00  0.00     0.102 A 
ATOM      6  C   UNL d   1     -41.076  15.659  17.957  0.00  0.00     0.004 A 
ATOM      7  C   UNL d   1     -40.996  15.256  16.362  0.00  0.00     0.025 A 
ATOM      8  C   UNL d   1     -41.663  15.921  17.434  0.00  0.00     0.000 A 
ATOM      9  C   UNL d   1     -41.617  15.715  16.633  0.00  0.00     0.002 A 
ENDROOT
BRANCH   2  10
ATOM     10  N   UNL d   1     -39.629  14.931  18.869  0.00  0.00    -0.206 NA
ATOM     11  C   UNL d   1     -40.045  14.479  19.417  0.00  0.00     0.281 C 
ATOM     12  O   UNL d   1     -40.637  13.963  19.167  0.00  0.00    -0.265 OA
BRANCH  11  13
ATOM     13  C   UNL d   1     -39.868  14.543  20.217  0.00  0.00     0.080 A 
ATOM     14  C   UNL d   1     -40.388  14.225  20.788  0.00  0.00     0.099 A 
ATOM     15  C   UNL d   1     -40.202  14.295  21.581  0.00  0.00     0.024 A 
ATOM     16  C   UNL d   1     -39.501  14.678  21.813  0.00  0.00     0.002 A 
ATOM     17  C   UNL d   1     -38.998  14.986  21.246  0.00  0.00     0.000 A 
ATOM     18  C   UNL d   1     -39.178  14.920  20.450  0.00  0.00     0.007 A 
BRANCH  14  19
ATOM     19  O   UNL d   1     -41.075  13.851  20.543  0.00  0.00    -0.328 OA
ATOM     20  C   UNL d   1     -41.646  13.669  21.110  0.00  0.00     0.181 C 
ENDBRANCH  14  19
ENDBRANCH  11  13
ENDBRANCH   2  10
BRANCH   1  21
ATOM     21  C   UNL d   1     -38.659  14.036  17.637  0.00  0.00     0.325 C 
ATOM     22  O   UNL d   1     -37.963  14.447  17.819  0.00  0.00    -0.257 OA
BRANCH  21  23
ATOM     23  O   UNL d   1     -38.659  13.219  17.596  0.00  0.00    -0.269 OA
BRANCH  23  24
ATOM     24  C   UNL d   1     -37.941  12.801  17.643  0.00  0.00     0.126 C 
ATOM     25  C   UNL d   1     -37.952  11.972  17.687  0.00  0.00     0.029 C 
ENDBRANCH  23  24
ENDBRANCH  21  23
ENDBRANCH   1  21
TORSDOF 6
ENDMDL
MODEL 3
REMARK VINA RESULT:      -5.5      7.487      9.288
REMARK  6 active torsions:
REMARK  status: ('A' for Active; 'I' for Inactive)
REMARK    1  A    between atoms: C_9  and  C_1 
REMARK    2  A    between atoms: N_4  and  C_2 
REMARK       I    between atoms: C_5  and  N_4 
REMARK    3  A    between atoms: C_7  and  C_5 
REMARK    4  A    between atoms: O_13  and  C_9 
REMARK    5  A    between atoms: O_16  and  C_11 
REMARK    6  A    between atoms: C_19  and  O_13 
ROOT
ATOM      1  C   UNL d   1     -40.526  15.041  21.111  0.00  0.00     0.181 A 
ATOM      2  C   UNL d   1     -40.030  15.352  20.521  0.00  0.00     0.115 A 
ATOM      3  O   UNL d   1     -40.083  15.014  21.811  0.00  0.00    -0.300 OA
ATOM      4  C   UNL d   1     -39.301  15.510  20.859  0.00  0.00     0.043 A 
ATOM      5  C   UNL d   1     -39.331  15.302  21.658  0.00  0.00     0.102 A 
ATOM      6  C   UNL d   1     -38.606  15.820  20.541  0.00  0.00     0.004 A 
ATOM      7  C   UNL d   1     -38.672  15.403  22.133  0.00  0.00     0.025 A 
ATOM      8  C   UNL d   1     -37.940  15.922  21.023  0.00  0.00     0.000 A 
ATOM      9  C   UNL d   1     -37.979  15.711  21.822  0.00  0.00     0.002 A 
ENDROOT
BRANCH   2  10
ATOM     10  N   UNL d   1     -40.242  15.479  19.727  0.00  0.00    -0.206 NA
ATOM     11  C   UNL d   1     -39.970  14.964  19.144  0.00  0.00     0.281 C 
ATOM     12  O   UNL d   1     -39.490  14.325  19.343  0.00  0.00    -0.265 OA
BRANCH  11  13
ATOM     13  C   UNL d   1     -40.181  15.090  18.360  0.00  0.00     0.080 A 
ATOM     14  C   UNL d   1     -39.937  14.552  17.769  0.00  0.00     0.099 A 
ATOM     15  C   UNL d   1     -40.152  14.687  16.991  0.00  0.00     0.024 A 
ATOM     16  C   UNL d   1     -40.609  15.354  16.795  0.00  0.00     0.002 A 
ATOM     17  C   UNL d   1     -40.842  15.875  17.380  0.00  0.00     0.000 A 
ATOM     18  C   UNL d   1     -40.631  15.747  18.161  0.00  0.00     0.007 A 
BRANCH  14  19
ATOM     19  O   UNL d   1     -39.487  13.900  17.979  0.00  0.00    -0.328 OA
ATOM     20  C   UNL d   1     -39.246  13.382  17.384  0.00  0.00     0.181 C 
ENDBRANCH  14  19
ENDBRANCH  11  13
ENDBRANCH   2  10
BRANCH   1  21
ATOM     21  C   UNL d   1     -41.311  14.803  21.016  0.00  0.00     0.325 C 
ATOM     22  O   UNL d   1     -41.901  15.371  20.890  0.00  0.00    -0.257 OA
BRANCH  21  23
ATOM     23  O   UNL d   1     -41.502  14.008  21.046  0.00  0.00    -0.269 OA
BRANCH  23  24
ATOM     24  C   UNL d   1     -42.299  13.773  21.058  0.00  0.00     0.126 C 
ATOM     25  C   UNL d   1     -42.489  12.978  21.201  0.00  0.00     0.029 C 
ENDBRANCH  23  24
ENDBRANCH  21  23
ENDBRANCH   1  21
TORSDOF 6
ENDMDL
MODEL 4
REMARK VINA RESULT:      -5.4      1.323      2.373
REMARK  6 active torsions:
REMARK  status: ('A' for Active; 'I' for Inactive)
REMARK    1  A    between atoms: C_9  and  C_1 
REMARK    2  A    between atoms: N_4  and  C_2 
REMARK       I    between atoms: C_5  and  N_4 
REMARK    3  A    between atoms: C_7  and  C_5 
REMARK    4  A    between atoms: O_13  and  C_9 
REMARK    5  A    between atoms: O_16  and  C_11 
REMARK    6  A    between atoms: C_19  and  O_13 
ROOT
ATOM      1  C   UNL d   1     -46.874  12.743  23.113  0.00  0.00     0.181 A 
ATOM      2  C   UNL d   1     -47.691  12.829  23.245  0.00  0.00     0.115 A 
ATOM      3  O   UNL d   1     -46.701  11.936  23.189  0.00  0.00    -0.300 OA
ATOM      4  C   UNL d   1     -48.004  12.089  23.397  0.00  0.00     0.043 A 
ATOM      5  C   UNL d   1     -47.394  11.533  23.363  0.00  0.00     0.102 A 
ATOM      6  C   UNL d   1     -48.774  11.844  23.564  0.00  0.00     0.004 A 
ATOM      7  C   UNL d   1     -47.553  10.741  23.496  0.00  0.00     0.025 A 
ATOM      8  C   UNL d   1     -48.933  11.042  23.697  0.00  0.00     0.000 A 
ATOM      9  C   UNL d   1     -48.315  10.492  23.662  0.00  0.00     0.002 A 
ENDROOT
BRANCH   2  10
ATOM     10  N   UNL d   1     -48.111  13.547  23.224  0.00  0.00    -0.206 NA
ATOM     11  C   UNL d   1     -48.613  13.709  22.591  0.00  0.00     0.281 C 
ATOM     12  O   UNL d   1     -48.701  13.164  21.980  0.00  0.00    -0.265 OA
BRANCH  11  13
ATOM     13  C   UNL d   1     -49.028  14.418  22.572  0.00  0.00     0.080 A 
ATOM     14  C   UNL d   1     -49.740  14.475  22.139  0.00  0.00     0.099 A 
ATOM     15  C   UNL d   1     -50.144  15.186  22.127  0.00  0.00     0.024 A 
ATOM     16  C   UNL d   1     -49.846  15.843  22.541  0.00  0.00     0.002 A 
ATOM     17  C   UNL d   1     -49.148  15.777  22.962  0.00  0.00     0.000 A 
ATOM     18  C   UNL d   1     -48.737  15.069  22.979  0.00  0.00     0.007 A 
BRANCH  14  19
ATOM     19  O   UNL d   1     -50.020  13.819  21.736  0.00  0.00    -0.328 OA
ATOM     20  C   UNL d   1     -50.795  13.833  21.454  0.00  0.00     0.181 C 
ENDBRANCH  14  19
ENDBRANCH  11  13
ENDBRANCH   2  10
BRANCH   1  21
ATOM     21  C   UNL d   1     -46.339  13.347  22.940  0.00  0.00     0.325 C 
ATOM     22  O   UNL d   1     -46.200  13.946  23.495  0.00  0.00    -0.257 OA
BRANCH  21  23
ATOM     23  O   UNL d   1     -45.949  13.351  22.221  0.00  0.00    -0.269 OA
BRANCH  23  24
ATOM     24  C   UNL d   1     -45.176  13.653  22.170  0.00  0.00     0.126 C 
ATOM     25  C   UNL d   1     -44.625  13.286  21.669  0.00  0.00     0.029 C 
ENDBRANCH  23  24
ENDBRANCH  21  23
ENDBRANCH   1  21
TORSDOF 6
ENDMDL
MODEL 5
REMARK VINA RESULT:      -5.2      1.005      3.994
REMARK  6 active torsions:
REMARK  status: ('A' for Active; 'I' for Inactive)
REMARK    1  A    between atoms: C_9  and  C_1 
REMARK    2  A    between atoms: N_4  and  C_2 
REMARK       I    between atoms: C_5  and  N_4 
REMARK    3  A    between atoms: C_7  and  C_5 
REMARK    4  A    between atoms: O_13  and  C_9 
REMARK    5  A    between atoms: O_16  and  C_11 
REMARK    6  A    between atoms: C_19  and  O_13 
ROOT
ATOM      1  C   UNL d   1     -48.964  13.061  22.449  0.00  0.00     0.181 A 
ATOM      2  C   UNL d   1     -48.214  13.313  22.707  0.00  0.00     0.115 A 
ATOM      3  O   UNL d   1     -49.372  13.737  22.195  0.00  0.00    -0.300 OA
ATOM      4  C   UNL d   1     -48.171  14.124  22.611  0.00  0.00     0.043 A 
ATOM      5  C   UNL d   1     -48.886  14.390  22.294  0.00  0.00     0.102 A 
ATOM      6  C   UNL d   1     -47.567  14.663  22.771  0.00  0.00     0.004 A 
ATOM      7  C   UNL d   1     -48.995  15.187  22.140  0.00  0.00     0.025 A 
ATOM      8  C   UNL d   1     -47.679  15.469  22.615  0.00  0.00     0.000 A 
ATOM      9  C   UNL d   1     -48.399  15.726  22.298  0.00  0.00     0.002 A 
ENDROOT
BRANCH   2  10
ATOM     10  N   UNL d   1     -47.616  12.820  23.009  0.00  0.00    -0.206 NA
ATOM     11  C   UNL d   1     -46.943  12.671  22.560  0.00  0.00     0.281 C 
ATOM     12  O   UNL d   1     -46.858  13.008  21.813  0.00  0.00    -0.265 OA
BRANCH  11  13
ATOM     13  C   UNL d   1     -46.353  12.184  22.859  0.00  0.00     0.080 A 
ATOM     14  C   UNL d   1     -45.559  12.290  22.619  0.00  0.00     0.099 A 
ATOM     15  C   UNL d   1     -44.980  11.800  22.924  0.00  0.00     0.024 A 
ATOM     16  C   UNL d   1     -45.183  11.203  23.467  0.00  0.00     0.002 A 
ATOM     17  C   UNL d   1     -45.962  11.107  23.696  0.00  0.00     0.000 A 
ATOM     18  C   UNL d   1     -46.548  11.594  23.395  0.00  0.00     0.007 A 
BRANCH  14  19
ATOM     19  O   UNL d   1     -45.377  12.883  22.084  0.00  0.00    -0.328 OA
ATOM     20  C   UNL d   1     -44.600  12.940  21.811  0.00  0.00     0.181 C 
ENDBRANCH  14  19
ENDBRANCH  11  13
ENDBRANCH   2  10
BRANCH   1  21
ATOM     21  C   UNL d   1     -49.247  12.286  22.447  0.00  0.00     0.325 C 
ATOM     22  O   UNL d   1     -49.159  11.817  21.770  0.00  0.00    -0.257 OA
BRANCH  21  23
ATOM     23  O   UNL d   1     -49.614  11.985  23.114  0.00  0.00    -0.269 OA
BRANCH  23  24
ATOM     24  C   UNL d   1     -50.302  11.526  23.037  0.00  0.00     0.126 C 
ATOM     25  C   UNL d   1     -50.793  11.410  23.697  0.00  0.00     0.029 C 
ENDBRANCH  23  24
ENDBRANCH  21  23
ENDBRANCH   1  21
TORSDOF 6
ENDMDL
MODEL 6
REMARK VINA RESULT:      -4.0      1.538      3.541
REMARK  6 active torsions:
REMARK  status: ('A' for Active; 'I' for Inactive)
REMARK    1  A    between atoms: C_9  and  C_1 
REMARK    2  A    between atoms: N_4  and  C_2 
REMARK       I    between atoms: C_5  and  N_4 
REMARK    3  A    between atoms: C_7  and  C_5 
REMARK    4  A    between atoms: O_13  and  C_9 
REMARK    5  A    between atoms: O_16  and  C_11 
REMARK    6  A    between atoms: C_19  and  O_13 
ROOT
ATOM      1  C   UNL d   1     -49.832  13.655  22.691  0.00  0.00     0.181 A 
ATOM      2  C   UNL d   1     -49.136  13.299  22.973  0.00  0.00     0.115 A 
ATOM      3  O   UNL d   1     -50.435  13.088  22.752  0.00  0.00    -0.300 OA
ATOM      4  C   UNL d   1     -49.314  12.534  23.200  0.00  0.00     0.043 A 
ATOM      5  C   UNL d   1     -50.118  12.400  23.065  0.00  0.00     0.102 A 
ATOM      6  C   UNL d   1     -48.846  11.933  23.517  0.00  0.00     0.004 A 
ATOM      7  C   UNL d   1     -50.449  11.672  23.244  0.00  0.00     0.025 A 
ATOM      8  C   UNL d   1     -49.182  11.197  23.698  0.00  0.00     0.000 A 
ATOM      9  C   UNL d   1     -49.988  11.072  23.558  0.00  0.00     0.002 A 
ENDROOT
BRANCH   2  10
ATOM     10  N   UNL d   1     -48.389  13.664  23.015  0.00  0.00    -0.206 NA
ATOM     11  C   UNL d   1     -47.770  13.383  22.550  0.00  0.00     0.281 C 
ATOM     12  O   UNL d   1     -47.887  12.744  22.043  0.00  0.00    -0.265 OA
BRANCH  11  13
ATOM     13  C   UNL d   1     -47.033  13.744  22.592  0.00  0.00     0.080 A 
ATOM     14  C   UNL d   1     -46.393  13.442  22.149  0.00  0.00     0.099 A 
ATOM     15  C   UNL d   1     -45.664  13.809  22.199  0.00  0.00     0.024 A 
ATOM     16  C   UNL d   1     -45.565  14.476  22.687  0.00  0.00     0.002 A 
ATOM     17  C   UNL d   1     -46.198  14.765  23.116  0.00  0.00     0.000 A 
ATOM     18  C   UNL d   1     -46.931  14.402  23.072  0.00  0.00     0.007 A 
BRANCH  14  19
ATOM     19  O   UNL d   1     -46.507  12.784  21.674  0.00  0.00    -0.328 OA
ATOM     20  C   UNL d   1     -45.860  12.485  21.257  0.00  0.00     0.181 C 
ENDBRANCH  14  19
ENDBRANCH  11  13
ENDBRANCH   2  10
BRANCH   1  21
ATOM     21  C   UNL d   1     -49.908  14.425  22.404  0.00  0.00     0.325 C 
ATOM     22  O   UNL d   1     -49.888  14.565  21.588  0.00  0.00    -0.257 OA
BRANCH  21  23
ATOM     23  O   UNL d   1     -50.002  15.046  22.929  0.00  0.00    -0.269 OA
BRANCH  23  24
ATOM     24  C   UNL d   1     -50.564  15.639  22.773  0.00  0.00     0.126 C 
ATOM     25  C   UNL d   1     -51.043  15.921  23.389  0.00  0.00     0.029 C 
ENDBRANCH  23  24
ENDBRANCH  21  23
ENDBRANCH   1  21
TORSDOF 6
ENDMDL
MODEL 7
REMARK VINA RESULT:      -3.7      7.549      9.382
REMARK  6 active torsions:
REMARK  status: ('A' for Active; 'I' for Inactive)
REMARK    1  A    between atoms: C_9  and  C_1 
REMARK    2  A    between atoms: N_4  and  C_2 
REMARK       I    between atoms: C_5  and  N_4 
REMARK    3  A    between atoms: C_7  and  C_5 
REMARK    4  A    between atoms: O_13  and  C_9 
REMARK    5  A    between atoms: O_16  and  C_11 
REMARK    6  A    between atoms: C_19  and  O_13 
ROOT
ATOM      1  C   UNL d   1     -38.386  13.945  19.661  0.00  0.00     0.181 A 
ATOM      2  C   UNL d   1     -39.059  14.310  19.336  0.00  0.00     0.115 A 
ATOM      3  O   UNL d   1     -37.947  13.641  19.027  0.00  0.00    -0.300 OA
ATOM      4  C   UNL d   1     -39.026  14.229  18.523  0.00  0.00     0.043 A 
ATOM      5  C   UNL d   1     -38.338  13.814  18.328  0.00  0.00     0.102 A 
ATOM      6  C   UNL d   1     -39.537  14.480  17.926  0.00  0.00     0.004 A 
ATOM      7  C   UNL d   1     -38.164  13.653  17.544  0.00  0.00     0.025 A 
ATOM      8  C   UNL d   1     -39.359  14.316  17.133  0.00  0.00     0.000 A 
ATOM      9  C   UNL d   1     -38.668  13.900  16.948  0.00  0.00     0.002 A 
ENDROOT
BRANCH   2  10
ATOM     10  N   UNL d   1     -39.659  14.692  19.769  0.00  0.00    -0.206 NA
ATOM     11  C   UNL d   1     -40.403  14.345  19.830  0.00  0.00     0.281 C 
ATOM     12  O   UNL d   1     -40.556  13.622  19.465  0.00  0.00    -0.265 OA
BRANCH  11  13
ATOM     13  C   UNL d   1     -40.994  14.722  20.257  0.00  0.00     0.080 A 
ATOM     14  C   UNL d   1     -41.568  14.273  20.666  0.00  0.00     0.099 A 
ATOM     15  C   UNL d   1     -42.153  14.660  21.088  0.00  0.00     0.024 A 
ATOM     16  C   UNL d   1     -42.172  15.491  21.108  0.00  0.00     0.002 A 
ATOM     17  C   UNL d   1     -41.605  15.922  20.706  0.00  0.00     0.000 A 
ATOM     18  C   UNL d   1     -41.017  15.542  20.280  0.00  0.00     0.007 A 
BRANCH  14  19
ATOM     19  O   UNL d   1     -41.536  13.455  20.635  0.00  0.00    -0.328 OA
ATOM     20  C   UNL d   1     -42.049  13.024  21.116  0.00  0.00     0.181 C 
ENDBRANCH  14  19
ENDBRANCH  11  13
ENDBRANCH   2  10
BRANCH   1  21
ATOM     21  C   UNL d   1     -38.194  13.895  20.462  0.00  0.00     0.325 C 
ATOM     22  O   UNL d   1     -38.056  14.586  20.897  0.00  0.00    -0.257 OA
BRANCH  21  23
ATOM     23  O   UNL d   1     -38.142  13.162  20.823  0.00  0.00    -0.269 OA
BRANCH  23  24
ATOM     24  C   UNL d   1     -37.943  13.109  21.628  0.00  0.00     0.126 C 
ATOM     25  C   UNL d   1     -37.954  12.369  22.005  0.00  0.00     0.029 C 
ENDBRANCH  23  24
ENDBRANCH  21  23
ENDBRANCH   1  21
TORSDOF 6
ENDMDL
MODEL 8
REMARK VINA RESULT:      -3.7      1.171      3.723
REMARK  6 active torsions:
REMARK  status: ('A' for Active; 'I' for Inactive)
REMARK    1  A    between atoms: C_9  and  C_1 
REMARK    2  A    between atoms: N_4  and  C_2 
REMARK       I    between atoms: C_5  and  N_4 
REMARK    3  A    between atoms: C_7  and  C_5 
REMARK    4  A    between atoms: O_13  and  C_9 
REMARK    5  A    between atoms: O_16  and  C_11 
REMARK    6  A    between atoms: C_19  and  O_13 
ROOT
ATOM      1  C   UNL d   1     -48.408  11.470  23.235  0.00  0.00     0.181 A 
ATOM      2  C   UNL d   1     -48.660  12.257  23.331  0.00  0.00     0.115 A 
ATOM      3  O   UNL d   1     -49.080  10.990  23.305  0.00  0.00    -0.300 OA
ATOM      4  C   UNL d   1     -49.468  12.251  23.457  0.00  0.00     0.043 A 
ATOM      5  C   UNL d   1     -49.732  11.468  23.441  0.00  0.00     0.102 A 
ATOM      6  C   UNL d   1     -50.007  12.863  23.585  0.00  0.00     0.004 A 
ATOM      7  C   UNL d   1     -50.526  11.300  23.553  0.00  0.00     0.025 A 
ATOM      8  C   UNL d   1     -50.810  12.691  23.698  0.00  0.00     0.000 A 
ATOM      9  C   UNL d   1     -51.064  11.904  23.681  0.00  0.00     0.002 A 
ENDROOT
BRANCH   2  10
ATOM     10  N   UNL d   1     -48.171  12.929  23.304  0.00  0.00    -0.206 NA
ATOM     11  C   UNL d   1     -48.171  13.407  22.633  0.00  0.00     0.281 C 
ATOM     12  O   UNL d   1     -48.652  13.224  21.991  0.00  0.00    -0.265 OA
BRANCH  11  13
ATOM     13  C   UNL d   1     -47.687  14.071  22.607  0.00  0.00     0.080 A 
ATOM     14  C   UNL d   1     -48.024  14.834  22.570  0.00  0.00     0.099 A 
ATOM     15  C   UNL d   1     -47.532  15.487  22.544  0.00  0.00     0.024 A 
ATOM     16  C   UNL d   1     -46.707  15.389  22.555  0.00  0.00     0.002 A 
ATOM     17  C   UNL d   1     -46.386  14.638  22.592  0.00  0.00     0.000 A 
ATOM     18  C   UNL d   1     -46.871  13.978  22.618  0.00  0.00     0.007 A 
BRANCH  14  19
ATOM     19  O   UNL d   1     -48.840  14.914  22.559  0.00  0.00    -0.328 OA
ATOM     20  C   UNL d   1     -49.159  15.673  22.513  0.00  0.00     0.181 C 
ENDBRANCH  14  19
ENDBRANCH  11  13
ENDBRANCH   2  10
BRANCH   1  21
ATOM     21  C   UNL d   1     -47.634  11.217  23.096  0.00  0.00     0.325 C 
ATOM     22  O   UNL d   1     -47.429  10.908  22.356  0.00  0.00    -0.257 OA
BRANCH  21  23
ATOM     23  O   UNL d   1     -47.076  11.273  23.691  0.00  0.00    -0.269 OA
BRANCH  23  24
ATOM     24  C   UNL d   1     -46.423  10.757  23.698  0.00  0.00     0.126 C 
ATOM     25  C   UNL d   1     -45.744  10.952  23.262  0.00  0.00     0.029 C 
ENDBRANCH  23  24
ENDBRANCH  21  23
ENDBRANCH   1  21
TORSDOF 6
ENDMDL
MODEL 9
REMARK VINA RESULT:      -3.4      0.830      2.555
REMARK  6 active torsions:
REMARK  status: ('A' for Active; 'I' for Inactive)
REMARK    1  A    between atoms: C_9  and  C_1 
REMARK    2  A    between atoms: N_4  and  C_2 
REMARK       I    between atoms: C_5  and  N_4 
REMARK    3  A    between atoms: C_7  and  C_5 
REMARK    4  A    between atoms: O_13  and  C_9 
REMARK    5  A    between atoms: O_16  and  C_11 
REMARK    6  A    between atoms: C_19  and  O_13 
ROOT
ATOM      1  C   UNL d   1     -46.708  12.385  23.285  0.00  0.00     0.181 A 
ATOM      2  C   UNL d   1     -47.386  12.862  23.220  0.00  0.00     0.115 A 
ATOM      3  O   UNL d   1     -46.059  12.858  23.079  0.00  0.00    -0.300 OA
ATOM      4  C   UNL d   1     -47.151  13.608  22.980  0.00  0.00     0.043 A 
ATOM      5  C   UNL d   1     -46.329  13.609  22.892  0.00  0.00     0.102 A 
ATOM      6  C   UNL d   1     -47.581  14.296  22.828  0.00  0.00     0.004 A 
ATOM      7  C   UNL d   1     -45.943  14.291  22.654  0.00  0.00     0.025 A 
ATOM      8  C   UNL d   1     -47.189  14.985  22.588  0.00  0.00     0.000 A 
ATOM      9  C   UNL d   1     -46.366  14.976  22.502  0.00  0.00     0.002 A 
ENDROOT
BRANCH   2  10
ATOM     10  N   UNL d   1     -48.166  12.618  23.374  0.00  0.00    -0.206 NA
ATOM     11  C   UNL d   1     -48.674  12.452  22.748  0.00  0.00     0.281 C 
ATOM     12  O   UNL d   1     -48.414  12.528  21.970  0.00  0.00    -0.265 OA
BRANCH  11  13
ATOM     13  C   UNL d   1     -49.444  12.211  22.901  0.00  0.00     0.080 A 
ATOM     14  C   UNL d   1     -50.069  12.463  22.407  0.00  0.00     0.099 A 
ATOM     15  C   UNL d   1     -50.832  12.216  22.569  0.00  0.00     0.024 A 
ATOM     16  C   UNL d   1     -50.980  11.720  23.220  0.00  0.00     0.002 A 
ATOM     17  C   UNL d   1     -50.363  11.478  23.698  0.00  0.00     0.000 A 
ATOM     18  C   UNL d   1     -49.596  11.721  23.542  0.00  0.00     0.007 A 
BRANCH  14  19
ATOM     19  O   UNL d   1     -49.906  12.952  21.770  0.00  0.00    -0.328 OA
ATOM     20  C   UNL d   1     -50.518  13.130  21.246  0.00  0.00     0.181 C 
ENDBRANCH  14  19
ENDBRANCH  11  13
ENDBRANCH   2  10
BRANCH   1  21
ATOM     21  C   UNL d   1     -46.687  11.592  23.511  0.00  0.00     0.325 C 
ATOM     22  O   UNL d   1     -47.392  11.164  23.581  0.00  0.00    -0.257 OA
BRANCH  21  23
ATOM     23  O   UNL d   1     -45.968  11.232  23.665  0.00  0.00    -0.269 OA
BRANCH  23  24
ATOM     24  C   UNL d   1     -45.690  10.629  23.165  0.00  0.00     0.126 C 
ATOM     25  C   UNL d   1     -45.228  10.016  23.481  0.00  0.00     0.029 C 
ENDBRANCH  23  24
ENDBRANCH  21  23
ENDBRANCH   1  21
TORSDOF 6
ENDMDL
