MODEL 1
REMARK VINA RESULT:       8.0      0.000      0.000
REMARK  1 active torsions:
REMARK  status: ('A' for Active; 'I' for Inactive)
REMARK    1  A    between atoms: C_9  and  C_3 
ROOT
ATOM      1  C   UNL d   1     -51.582  25.058  33.308  0.00  0.00     0.171 A 
ATOM      2  N   UNL d   1     -50.949  24.529  33.308  0.00  0.00    -0.212 N 
ATOM      3  C   UNL d   1     -51.441  25.872  33.309  0.00  0.00     0.121 A 
ATOM      4  N   UNL d   1     -50.175  24.814  33.309  0.00  0.00    -0.162 NA
ATOM      5  N   UNL d   1     -52.355  24.776  33.308  0.00  0.00    -0.226 NA
ATOM      6  C   UNL d   1     -51.089  23.718  33.308  0.00  0.00     0.086 A 
ATOM      7  C   UNL d   1     -50.034  25.629  33.309  0.00  0.00     0.130 A 
ATOM      8  C   UNL d   1     -51.863  23.433  33.308  0.00  0.00     0.038 A 
ATOM      9  C   UNL d   1     -52.496  23.961  33.308  0.00  0.00     0.085 A 
ATOM     10  C   UNL d   1     -50.456  23.189  33.308  0.00  0.00     0.021 C 
ATOM     11  C   UNL d   1     -53.270  23.676  33.307  0.00  0.00     0.021 C 
ENDROOT
BRANCH   3  12
ATOM     12  C   UNL d   1     -51.923  26.544  33.309  0.00  0.00     0.215 C 
ATOM     13  O   UNL d   1     -52.744  26.458  33.311  0.00  0.00    -0.644 OA
ATOM     14  O   UNL d   1     -51.584  27.298  33.306  0.00  0.00    -0.644 OA
ENDBRANCH   3  12
TORSDOF 1
ENDMDL
MODEL 2
REMARK VINA RESULT:       8.5      0.707      1.879
REMARK  1 active torsions:
REMARK  status: ('A' for Active; 'I' for Inactive)
REMARK    1  A    between atoms: C_9  and  C_3 
ROOT
ATOM      1  C   UNL d   1     -51.580  24.920  33.307  0.00  0.00     0.171 A 
ATOM      2  N   UNL d   1     -52.317  24.550  33.306  0.00  0.00    -0.212 N 
ATOM      3  C   UNL d   1     -51.531  25.746  33.307  0.00  0.00     0.121 A 
ATOM      4  N   UNL d   1     -53.005  25.004  33.306  0.00  0.00    -0.162 NA
ATOM      5  N   UNL d   1     -50.891  24.470  33.307  0.00  0.00    -0.226 NA
ATOM      6  C   UNL d   1     -52.365  23.728  33.306  0.00  0.00     0.086 A 
ATOM      7  C   UNL d   1     -52.957  25.829  33.307  0.00  0.00     0.130 A 
ATOM      8  C   UNL d   1     -51.677  23.274  33.306  0.00  0.00     0.038 A 
ATOM      9  C   UNL d   1     -50.940  23.644  33.306  0.00  0.00     0.085 A 
ATOM     10  C   UNL d   1     -53.102  23.358  33.306  0.00  0.00     0.021 C 
ATOM     11  C   UNL d   1     -50.251  23.190  33.306  0.00  0.00     0.021 C 
ENDROOT
BRANCH   3  12
ATOM     12  C   UNL d   1     -50.909  26.290  33.308  0.00  0.00     0.215 C 
ATOM     13  O   UNL d   1     -51.075  27.099  33.306  0.00  0.00    -0.644 OA
ATOM     14  O   UNL d   1     -50.126  26.026  33.310  0.00  0.00    -0.644 OA
ENDBRANCH   3  12
TORSDOF 1
ENDMDL
MODEL 3
REMARK VINA RESULT:       8.6      1.206      2.317
REMARK  1 active torsions:
REMARK  status: ('A' for Active; 'I' for Inactive)
REMARK    1  A    between atoms: C_9  and  C_3 
ROOT
ATOM      1  C   UNL d   1     -52.088  24.797  33.312  0.00  0.00     0.171 A 
ATOM      2  N   UNL d   1     -51.299  24.556  33.310  0.00  0.00    -0.212 N 
ATOM      3  C   UNL d   1     -52.693  24.233  33.315  0.00  0.00     0.121 A 
ATOM      4  N   UNL d   1     -51.114  23.753  33.311  0.00  0.00    -0.162 NA
ATOM      5  N   UNL d   1     -52.276  25.598  33.312  0.00  0.00    -0.226 NA
ATOM      6  C   UNL d   1     -50.697  25.118  33.308  0.00  0.00     0.086 A 
ATOM      7  C   UNL d   1     -51.718  23.188  33.314  0.00  0.00     0.130 A 
ATOM      8  C   UNL d   1     -50.882  25.922  33.307  0.00  0.00     0.038 A 
ATOM      9  C   UNL d   1     -51.671  26.162  33.309  0.00  0.00     0.085 A 
ATOM     10  C   UNL d   1     -49.908  24.878  33.306  0.00  0.00     0.021 C 
ATOM     11  C   UNL d   1     -51.856  26.966  33.309  0.00  0.00     0.021 C 
ENDROOT
BRANCH   3  12
ATOM     12  C   UNL d   1     -53.518  24.268  33.318  0.00  0.00     0.215 C 
ATOM     13  O   UNL d   1     -53.957  23.568  33.331  0.00  0.00    -0.644 OA
ATOM     14  O   UNL d   1     -53.903  24.998  33.307  0.00  0.00    -0.644 OA
ENDBRANCH   3  12
TORSDOF 1
ENDMDL
