MODEL 1
REMARK VINA RESULT:      25.4      0.000      0.000
REMARK  5 active torsions:
REMARK  status: ('A' for Active; 'I' for Inactive)
REMARK       I    between atoms: C_2  and  N_1 
REMARK    1  A    between atoms: C_3  and  N_1 
REMARK    2  A    between atoms: C_7  and  C_2 
REMARK    3  A    between atoms: N_5  and  C_3 
REMARK    4  A    between atoms: C_8  and  N_5 
REMARK    5  A    between atoms: C_9  and  C_8 
ROOT
ATOM      1  C   UNL d   1      13.085  12.413  -3.450  0.00  0.00     0.179 C 
ATOM      2  S   UNL d   1      13.135  11.779  -3.989  0.00  0.00    -0.040 SA
ENDROOT
BRANCH   1   3
ATOM      3  N   UNL d   1      13.252  12.292  -2.657  0.00  0.00    -0.299 N 
ATOM      4  C   UNL d   1      14.035  12.144  -2.412  0.00  0.00     0.259 C 
ATOM      5  O   UNL d   1      14.641  12.122  -2.976  0.00  0.00    -0.267 OA
ATOM      6  H   UNL d   1      12.643  12.316  -2.104  0.00  0.00     0.171 HD
BRANCH   4   7
ATOM      7  C   UNL d   1      14.198  12.023  -1.612  0.00  0.00     0.056 A 
ATOM      8  C   UNL d   1      13.582  12.001  -1.071  0.00  0.00     0.005 A 
ATOM      9  C   UNL d   1      13.752  11.879  -0.267  0.00  0.00     0.000 A 
ATOM     10  C   UNL d   1      14.535  11.780  -0.014  0.00  0.00     0.000 A 
ATOM     11  C   UNL d   1      15.153  11.803  -0.568  0.00  0.00     0.000 A 
ATOM     12  C   UNL d   1      14.982  11.927  -1.378  0.00  0.00     0.005 A 
ENDBRANCH   4   7
ENDBRANCH   1   3
BRANCH   1  13
ATOM     13  N   UNL d   1      12.865  13.164  -3.720  0.00  0.00    -0.330 N 
ATOM     14  H   UNL d   1      12.618  13.730  -3.177  0.00  0.00     0.168 HD
BRANCH  13  15
ATOM     15  C   UNL d   1      12.894  13.338  -4.515  0.00  0.00     0.074 C 
BRANCH  15  16
ATOM     16  C   UNL d   1      13.128  14.109  -4.765  0.00  0.00     0.017 A 
ATOM     17  C   UNL d   1      13.594  14.194  -5.434  0.00  0.00     0.002 A 
ATOM     18  C   UNL d   1      13.822  14.935  -5.679  0.00  0.00     0.000 A 
ATOM     19  C   UNL d   1      13.587  15.601  -5.259  0.00  0.00     0.000 A 
ATOM     20  C   UNL d   1      13.111  15.514  -4.576  0.00  0.00     0.000 A 
ATOM     21  C   UNL d   1      12.886  14.763  -4.337  0.00  0.00     0.002 A 
ENDBRANCH  15  16
ENDBRANCH  13  15
ENDBRANCH   1  13
TORSDOF 5
ENDMDL
MODEL 2
REMARK VINA RESULT:      26.7      2.765      3.609
REMARK  5 active torsions:
REMARK  status: ('A' for Active; 'I' for Inactive)
REMARK       I    between atoms: C_2  and  N_1 
REMARK    1  A    between atoms: C_3  and  N_1 
REMARK    2  A    between atoms: C_7  and  C_2 
REMARK    3  A    between atoms: N_5  and  C_3 
REMARK    4  A    between atoms: C_8  and  N_5 
REMARK    5  A    between atoms: C_9  and  C_8 
ROOT
ATOM      1  C   UNL d   1      14.347  13.196  -0.862  0.00  0.00     0.179 C 
ATOM      2  S   UNL d   1      14.485  12.926  -0.085  0.00  0.00    -0.040 SA
ENDROOT
BRANCH   1   3
ATOM      3  N   UNL d   1      14.462  13.985  -1.049  0.00  0.00    -0.299 N 
ATOM      4  C   UNL d   1      15.019  14.439  -0.625  0.00  0.00     0.259 C 
ATOM      5  O   UNL d   1      15.453  14.085  -0.015  0.00  0.00    -0.267 OA
ATOM      6  H   UNL d   1      14.026  14.327  -1.657  0.00  0.00     0.171 HD
BRANCH   4   7
ATOM      7  C   UNL d   1      15.131  15.233  -0.818  0.00  0.00     0.056 A 
ATOM      8  C   UNL d   1      15.592  15.707  -0.334  0.00  0.00     0.005 A 
ATOM      9  C   UNL d   1      15.702  16.507  -0.533  0.00  0.00     0.000 A 
ATOM     10  C   UNL d   1      15.349  16.821  -1.214  0.00  0.00     0.000 A 
ATOM     11  C   UNL d   1      14.883  16.335  -1.699  0.00  0.00     0.000 A 
ATOM     12  C   UNL d   1      14.773  15.530  -1.498  0.00  0.00     0.005 A 
ENDBRANCH   4   7
ENDBRANCH   1   3
BRANCH   1  13
ATOM     13  N   UNL d   1      14.092  12.662  -1.441  0.00  0.00    -0.330 N 
ATOM     14  H   UNL d   1      13.566  12.064  -1.232  0.00  0.00     0.168 HD
BRANCH  13  15
ATOM     15  C   UNL d   1      14.360  12.728  -2.207  0.00  0.00     0.074 C 
BRANCH  15  16
ATOM     16  C   UNL d   1      13.841  12.553  -2.848  0.00  0.00     0.017 A 
ATOM     17  C   UNL d   1      13.906  12.971  -3.550  0.00  0.00     0.002 A 
ATOM     18  C   UNL d   1      13.407  12.804  -4.171  0.00  0.00     0.000 A 
ATOM     19  C   UNL d   1      12.836  12.218  -4.097  0.00  0.00     0.000 A 
ATOM     20  C   UNL d   1      12.769  11.792  -3.380  0.00  0.00     0.000 A 
ATOM     21  C   UNL d   1      13.276  11.966  -2.761  0.00  0.00     0.002 A 
ENDBRANCH  15  16
ENDBRANCH  13  15
ENDBRANCH   1  13
TORSDOF 5
ENDMDL
