MODEL 1
REMARK VINA RESULT:      18.4      0.000      0.000
REMARK  3 active torsions:
REMARK  status: ('A' for Active; 'I' for Inactive)
REMARK    1  A    between atoms: N_3  and  S_1 
REMARK    2  A    between atoms: C_11  and  S_1 
REMARK    3  A    between atoms: C_2  and  N_3 
ROOT
ATOM      1  C   UNL d   1      46.249 -18.117  44.141  0.00  0.00     0.095 A 
ATOM      2  C   UNL d   1      46.274 -18.946  44.219  0.00  0.00     0.032 A 
ATOM      3  C   UNL d   1      46.312 -19.408  43.553  0.00  0.00     0.098 A 
ATOM      4  C   UNL d   1      46.327 -19.063  42.800  0.00  0.00     0.206 A 
ATOM      5  C   UNL d   1      46.303 -18.250  42.724  0.00  0.00     0.041 A 
ATOM      6  C   UNL d   1      46.264 -17.772  43.383  0.00  0.00     0.023 A 
ATOM      7 CL   UNL d   1      46.337 -20.237  43.631  0.00  0.00    -0.079 Cl
ATOM      8  O   UNL d   1      46.366 -19.561  42.139  0.00  0.00    -0.286 OA
ATOM      9  C   UNL d   1      46.260 -19.306  44.954  0.00  0.00     0.003 C 
ATOM     10  C   UNL d   1      46.318 -17.908  41.963  0.00  0.00     0.003 C 
ENDROOT
BRANCH   1  11
ATOM     11  N   UNL d   1      46.210 -17.639  44.803  0.00  0.00    -0.158 NA
BRANCH  11  12
ATOM     12  S   UNL d   1      45.909 -16.881  44.748  0.00  0.00     0.285 S 
ATOM     13  O   UNL d   1      46.647 -16.581  44.544  0.00  0.00    -0.198 OA
ATOM     14  O   UNL d   1      45.143 -17.157  44.954  0.00  0.00    -0.198 OA
BRANCH  12  15
ATOM     15  C   UNL d   1      45.588 -16.101  44.694  0.00  0.00     0.105 A 
ATOM     16  C   UNL d   1      46.024 -15.478  44.406  0.00  0.00     0.013 A 
ATOM     17  C   UNL d   1      45.711 -14.722  44.354  0.00  0.00     0.001 A 
ATOM     18  C   UNL d   1      44.930 -14.585  44.601  0.00  0.00     0.000 A 
ATOM     19  C   UNL d   1      44.494 -15.208  44.889  0.00  0.00     0.001 A 
ATOM     20  C   UNL d   1      44.811 -15.968  44.940  0.00  0.00     0.013 A 
ENDBRANCH  12  15
ENDBRANCH  11  12
ENDBRANCH   1  11
TORSDOF 3
ENDMDL
MODEL 2
REMARK VINA RESULT:      20.7      2.612      4.556
REMARK  3 active torsions:
REMARK  status: ('A' for Active; 'I' for Inactive)
REMARK    1  A    between atoms: N_3  and  S_1 
REMARK    2  A    between atoms: C_11  and  S_1 
REMARK    3  A    between atoms: C_2  and  N_3 
ROOT
ATOM      1  C   UNL d   1      45.284 -13.984  44.442  0.00  0.00     0.095 A 
ATOM      2  C   UNL d   1      45.830 -13.354  44.439  0.00  0.00     0.032 A 
ATOM      3  C   UNL d   1      45.722 -12.736  43.926  0.00  0.00     0.098 A 
ATOM      4  C   UNL d   1      45.076 -12.726  43.406  0.00  0.00     0.206 A 
ATOM      5  C   UNL d   1      44.542 -13.344  43.410  0.00  0.00     0.041 A 
ATOM      6  C   UNL d   1      44.636 -13.972  43.920  0.00  0.00     0.023 A 
ATOM      7 CL   UNL d   1      46.267 -12.106  43.923  0.00  0.00    -0.079 Cl
ATOM      8  O   UNL d   1      44.993 -12.081  42.893  0.00  0.00    -0.286 OA
ATOM      9  C   UNL d   1      46.474 -13.345  44.945  0.00  0.00     0.003 C 
ATOM     10  C   UNL d   1      43.893 -13.329  42.884  0.00  0.00     0.003 C 
ENDROOT
BRANCH   1  11
ATOM     11  N   UNL d   1      45.381 -14.613  44.955  0.00  0.00    -0.158 NA
BRANCH  11  12
ATOM     12  S   UNL d   1      45.545 -15.360  44.665  0.00  0.00     0.285 S 
ATOM     13  O   UNL d   1      46.314 -15.141  44.476  0.00  0.00    -0.198 OA
ATOM     14  O   UNL d   1      44.765 -15.615  44.847  0.00  0.00    -0.198 OA
BRANCH  12  15
ATOM     15  C   UNL d   1      45.702 -16.135  44.368  0.00  0.00     0.105 A 
ATOM     16  C   UNL d   1      45.770 -16.282  43.571  0.00  0.00     0.013 A 
ATOM     17  C   UNL d   1      45.923 -17.035  43.284  0.00  0.00     0.001 A 
ATOM     18  C   UNL d   1      46.012 -17.665  43.816  0.00  0.00     0.000 A 
ATOM     19  C   UNL d   1      45.945 -17.519  44.614  0.00  0.00     0.001 A 
ATOM     20  C   UNL d   1      45.791 -16.760  44.900  0.00  0.00     0.013 A 
ENDBRANCH  12  15
ENDBRANCH  11  12
ENDBRANCH   1  11
TORSDOF 3
ENDMDL
