MODEL 1
REMARK VINA RESULT:      12.4      0.000      0.000
REMARK  5 active torsions:
REMARK  status: ('A' for Active; 'I' for Inactive)
REMARK    1  A    between atoms: C_2  and  S_1 
REMARK    2  A    between atoms: N_5  and  S_1 
REMARK    3  A    between atoms: O_14  and  C_4 
REMARK    4  A    between atoms: C_11  and  N_5 
REMARK    5  A    between atoms: C_15  and  C_11 
ROOT
ATOM      1  C   UNL d   1      46.363 -17.916  43.872  0.00  0.00     0.128 A 
ATOM      2  C   UNL d   1      46.292 -18.465  44.481  0.00  0.00     0.026 A 
ATOM      3  C   UNL d   1      46.529 -18.171  43.107  0.00  0.00     0.106 A 
ATOM      4  C   UNL d   1      46.387 -19.270  44.324  0.00  0.00     0.059 A 
ATOM      5  C   UNL d   1      46.624 -18.975  42.950  0.00  0.00     0.026 A 
ATOM      6  C   UNL d   1      46.552 -19.525  43.560  0.00  0.00     0.013 A 
ATOM      7 CL   UNL d   1      46.315 -19.820  44.934  0.00  0.00    -0.082 Cl
ATOM      8  C   UNL d   1      46.647 -20.330  43.403  0.00  0.00     0.001 C 
ENDROOT
BRANCH   1   9
ATOM      9  S   UNL d   1      46.269 -17.112  44.028  0.00  0.00     0.287 S 
ATOM     10  O   UNL d   1      46.016 -17.290  44.793  0.00  0.00    -0.198 OA
ATOM     11  O   UNL d   1      46.522 -16.933  43.264  0.00  0.00    -0.198 OA
BRANCH   9  12
ATOM     12  N   UNL d   1      46.175 -16.307  44.185  0.00  0.00    -0.155 NA
BRANCH  12  13
ATOM     13  C   UNL d   1      45.473 -16.030  44.516  0.00  0.00     0.137 C 
BRANCH  13  14
ATOM     14  C   UNL d   1      45.358 -15.221  44.624  0.00  0.00     0.120 A 
ATOM     15  O   UNL d   1      44.688 -14.863  44.948  0.00  0.00    -0.304 OA
ATOM     16  C   UNL d   1      44.809 -14.052  44.950  0.00  0.00     0.123 A 
ATOM     17  C   UNL d   1      45.552 -13.895  44.630  0.00  0.00     0.029 A 
ATOM     18  C   UNL d   1      45.888 -14.623  44.429  0.00  0.00     0.028 A 
ENDBRANCH  13  14
ENDBRANCH  12  13
ENDBRANCH   9  12
ENDBRANCH   1   9
BRANCH   3  19
ATOM     19  O   UNL d   1      46.601 -17.620  42.493  0.00  0.00    -0.327 OA
ATOM     20  C   UNL d   1      46.403 -17.833  41.724  0.00  0.00     0.181 C 
ENDBRANCH   3  19
TORSDOF 5
ENDMDL
MODEL 2
REMARK VINA RESULT:      14.2      1.999      4.660
REMARK  5 active torsions:
REMARK  status: ('A' for Active; 'I' for Inactive)
REMARK    1  A    between atoms: C_2  and  S_1 
REMARK    2  A    between atoms: N_5  and  S_1 
REMARK    3  A    between atoms: O_14  and  C_4 
REMARK    4  A    between atoms: C_11  and  N_5 
REMARK    5  A    between atoms: C_15  and  C_11 
ROOT
ATOM      1  C   UNL d   1      45.507 -14.506  44.229  0.00  0.00     0.128 A 
ATOM      2  C   UNL d   1      46.017 -14.044  43.778  0.00  0.00     0.026 A 
ATOM      3  C   UNL d   1      44.794 -14.191  44.494  0.00  0.00     0.106 A 
ATOM      4  C   UNL d   1      45.815 -13.266  43.592  0.00  0.00     0.059 A 
ATOM      5  C   UNL d   1      44.592 -13.413  44.308  0.00  0.00     0.026 A 
ATOM      6  C   UNL d   1      45.102 -12.950  43.857  0.00  0.00     0.013 A 
ATOM      7 CL   UNL d   1      46.326 -12.803  43.141  0.00  0.00    -0.082 Cl
ATOM      8  C   UNL d   1      44.900 -12.172  43.670  0.00  0.00     0.001 C 
ENDROOT
BRANCH   1   9
ATOM      9  S   UNL d   1      45.709 -15.284  44.415  0.00  0.00     0.287 S 
ATOM     10  O   UNL d   1      46.275 -15.009  44.949  0.00  0.00    -0.198 OA
ATOM     11  O   UNL d   1      45.143 -15.559  43.882  0.00  0.00    -0.198 OA
BRANCH   9  12
ATOM     12  N   UNL d   1      45.912 -16.062  44.602  0.00  0.00    -0.155 NA
BRANCH  12  13
ATOM     13  C   UNL d   1      45.935 -16.635  44.010  0.00  0.00     0.137 C 
BRANCH  13  14
ATOM     14  C   UNL d   1      46.110 -17.418  44.201  0.00  0.00     0.120 A 
ATOM     15  O   UNL d   1      46.078 -17.756  44.953  0.00  0.00    -0.304 OA
ATOM     16  C   UNL d   1      46.295 -18.543  44.889  0.00  0.00     0.123 A 
ATOM     17  C   UNL d   1      46.466 -18.707  44.099  0.00  0.00     0.029 A 
ATOM     18  C   UNL d   1      46.349 -18.005  43.676  0.00  0.00     0.028 A 
ENDBRANCH  13  14
ENDBRANCH  12  13
ENDBRANCH   9  12
ENDBRANCH   1   9
BRANCH   3  19
ATOM     19  O   UNL d   1      44.279 -14.653  44.947  0.00  0.00    -0.327 OA
ATOM     20  C   UNL d   1      43.473 -14.492  44.948  0.00  0.00     0.181 C 
ENDBRANCH   3  19
TORSDOF 5
ENDMDL
