MODEL 1
REMARK VINA RESULT:      62.3      0.000      0.000
REMARK  8 active torsions:
REMARK  status: ('A' for Active; 'I' for Inactive)
REMARK    1  A    between atoms: C_8  and  C_1 
REMARK    2  A    between atoms: C_7  and  C_2 
REMARK    3  A    between atoms: C_9  and  C_3 
REMARK    4  A    between atoms: O_14  and  C_7 
REMARK    5  A    between atoms: O_15  and  C_8 
REMARK    6  A    between atoms: C_22  and  O_14 
REMARK    7  A    between atoms: C_23  and  O_15 
REMARK    8  A    between atoms: O_21  and  C_18 
ROOT
ATOM      1  C   UNL d   1     -51.842  25.168  33.598  0.00  0.00     0.081 A 
ATOM      2  C   UNL d   1     -50.880  26.213  33.671  0.00  0.00     0.081 A 
ATOM      3  C   UNL d   1     -51.065  25.415  33.716  0.00  0.00     0.013 A 
ATOM      4  C   UNL d   1     -52.431  25.723  33.436  0.00  0.00     0.086 A 
ATOM      5  C   UNL d   1     -51.469  26.767  33.509  0.00  0.00     0.086 A 
ATOM      6  N   UNL d   1     -52.242  26.522  33.392  0.00  0.00    -0.245 NA
ATOM      7  C   UNL d   1     -51.278  27.586  33.463  0.00  0.00     0.021 C 
ATOM      8  C   UNL d   1     -53.223  25.475  33.315  0.00  0.00     0.021 C 
ENDROOT
BRANCH   3   9
ATOM      9  C   UNL d   1     -50.473  24.858  33.879  0.00  0.00     0.001 A 
ATOM     10  C   UNL d   1     -49.916  24.668  33.307  0.00  0.00     0.002 A 
ATOM     11  C   UNL d   1     -49.321  24.109  33.471  0.00  0.00     0.024 A 
ATOM     12  C   UNL d   1     -49.289  23.745  34.205  0.00  0.00     0.094 A 
ATOM     13  C   UNL d   1     -49.847  23.933  34.781  0.00  0.00     0.024 A 
ATOM     14  C   UNL d   1     -50.442  24.493  34.617  0.00  0.00     0.002 A 
BRANCH  12  15
ATOM     15  O   UNL d   1     -48.705  23.192  34.373  0.00  0.00    -0.328 OA
ATOM     16  C   UNL d   1     -47.985  23.442  34.686  0.00  0.00     0.181 C 
ENDBRANCH  12  15
ENDBRANCH   3   9
BRANCH   2  17
ATOM     17  C   UNL d   1     -50.082  26.461  33.793  0.00  0.00     0.302 C 
ATOM     18  O   UNL d   1     -49.462  25.986  33.536  0.00  0.00    -0.259 OA
BRANCH  17  19
ATOM     19  O   UNL d   1     -49.930  27.184  34.173  0.00  0.00    -0.271 OA
BRANCH  19  20
ATOM     20  C   UNL d   1     -49.320  27.671  33.908  0.00  0.00     0.126 C 
ATOM     21  C   UNL d   1     -49.486  28.421  33.614  0.00  0.00     0.029 C 
ENDBRANCH  19  20
ENDBRANCH  17  19
ENDBRANCH   2  17
BRANCH   1  22
ATOM     22  C   UNL d   1     -52.027  24.350  33.645  0.00  0.00     0.302 C 
ATOM     23  O   UNL d   1     -51.493  23.785  33.333  0.00  0.00    -0.259 OA
BRANCH  22  24
ATOM     24  O   UNL d   1     -52.734  24.116  33.998  0.00  0.00    -0.271 OA
BRANCH  24  25
ATOM     25  C   UNL d   1     -53.140  23.462  33.703  0.00  0.00     0.126 C 
ATOM     26  C   UNL d   1     -53.943  23.364  33.878  0.00  0.00     0.029 C 
ENDBRANCH  24  25
ENDBRANCH  22  24
ENDBRANCH   1  22
TORSDOF 8
ENDMDL
