MODEL 1
REMARK VINA RESULT:      43.7      0.000      0.000
REMARK  6 active torsions:
REMARK  status: ('A' for Active; 'I' for Inactive)
REMARK    1  A    between atoms: S_6  and  C_1 
REMARK    2  A    between atoms: C_15  and  S_6 
REMARK    3  A    between atoms: C_8  and  O_11 
REMARK    4  A    between atoms: C_10  and  C_15 
REMARK    5  A    between atoms: C_16  and  C_10 
REMARK    6  A    between atoms: O_11  and  C_16 
ROOT
ATOM      1  C   UNL d   1      60.131  49.672  50.147  0.00  0.00     0.040 C 
ENDROOT
BRANCH   1   2
ATOM      2  C   UNL d   1      60.850  49.285  50.257  0.00  0.00     0.034 C 
BRANCH   2   3
ATOM      3  C   UNL d   1      60.873  48.457  50.273  0.00  0.00     0.123 C 
BRANCH   3   4
ATOM      4  O   UNL d   1      61.603  48.080  50.343  0.00  0.00    -0.305 OA
BRANCH   4   5
ATOM      5  C   UNL d   1      61.665  47.273  50.199  0.00  0.00     0.100 A 
ATOM      6  C   UNL d   1      62.275  46.983  49.725  0.00  0.00     0.025 A 
ATOM      7  C   UNL d   1      62.332  46.163  49.583  0.00  0.00     0.002 A 
ATOM      8  C   UNL d   1      62.941  45.874  49.109  0.00  0.00     0.000 C 
ATOM      9  C   UNL d   1      61.782  45.647  49.916  0.00  0.00     0.000 A 
ATOM     10  C   UNL d   1      61.169  45.948  50.394  0.00  0.00     0.002 A 
ATOM     11  C   UNL d   1      61.109  46.759  50.537  0.00  0.00     0.025 A 
ENDBRANCH   4   5
ENDBRANCH   3   4
ENDBRANCH   2   3
ENDBRANCH   1   2
BRANCH   1  12
ATOM     12  S   UNL d   1      59.585  49.699  50.765  0.00  0.00    -0.048 SA
BRANCH  12  13
ATOM     13  C   UNL d   1      58.776  49.701  50.607  0.00  0.00     0.194 A 
ATOM     14  N   UNL d   1      58.417  49.703  49.858  0.00  0.00    -0.220 NA
ATOM     15  C   UNL d   1      57.594  49.704  49.968  0.00  0.00     0.101 A 
ATOM     16  C   UNL d   1      56.971  49.706  49.426  0.00  0.00     0.021 A 
ATOM     17  C   UNL d   1      57.434  49.704  50.785  0.00  0.00     0.101 A 
ATOM     18  C   UNL d   1      56.192  49.708  49.693  0.00  0.00     0.002 A 
ATOM     19  C   UNL d   1      56.033  49.707  50.503  0.00  0.00     0.002 A 
ATOM     20  C   UNL d   1      56.654  49.705  51.044  0.00  0.00     0.021 A 
ATOM     21  N   UNL d   1      58.170  49.702  51.184  0.00  0.00    -0.220 NA
ENDBRANCH  12  13
ENDBRANCH   1  12
TORSDOF 6
ENDMDL
MODEL 2
REMARK VINA RESULT:      44.9      1.443      5.136
REMARK  6 active torsions:
REMARK  status: ('A' for Active; 'I' for Inactive)
REMARK    1  A    between atoms: S_6  and  C_1 
REMARK    2  A    between atoms: C_15  and  S_6 
REMARK    3  A    between atoms: C_8  and  O_11 
REMARK    4  A    between atoms: C_10  and  C_15 
REMARK    5  A    between atoms: C_16  and  C_10 
REMARK    6  A    between atoms: O_11  and  C_16 
ROOT
ATOM      1  C   UNL d   1      60.205  49.086  51.027  0.00  0.00     0.040 C 
ENDROOT
BRANCH   1   2
ATOM      2  C   UNL d   1      59.776  49.654  50.611  0.00  0.00     0.034 C 
BRANCH   2   3
ATOM      3  C   UNL d   1      58.951  49.669  50.671  0.00  0.00     0.123 C 
BRANCH   3   4
ATOM      4  O   UNL d   1      58.499  49.473  50.009  0.00  0.00    -0.305 OA
BRANCH   4   5
ATOM      5  C   UNL d   1      57.681  49.547  50.032  0.00  0.00     0.100 A 
ATOM      6  C   UNL d   1      57.285  49.537  50.755  0.00  0.00     0.025 A 
ATOM      7  C   UNL d   1      56.454  49.613  50.772  0.00  0.00     0.002 A 
ATOM      8  C   UNL d   1      56.059  49.602  51.495  0.00  0.00     0.000 C 
ATOM      9  C   UNL d   1      56.033  49.697  50.067  0.00  0.00     0.000 A 
ATOM     10  C   UNL d   1      56.441  49.707  49.341  0.00  0.00     0.002 A 
ATOM     11  C   UNL d   1      57.263  49.632  49.320  0.00  0.00     0.025 A 
ENDBRANCH   4   5
ENDBRANCH   3   4
ENDBRANCH   2   3
ENDBRANCH   1   2
BRANCH   1  12
ATOM     12  S   UNL d   1      60.984  48.924  50.808  0.00  0.00    -0.048 SA
BRANCH  12  13
ATOM     13  C   UNL d   1      61.193  48.176  50.535  0.00  0.00     0.194 A 
ATOM     14  N   UNL d   1      61.810  47.993  50.010  0.00  0.00    -0.220 NA
ATOM     15  C   UNL d   1      61.813  47.171  49.893  0.00  0.00     0.101 A 
ATOM     16  C   UNL d   1      62.299  46.687  49.433  0.00  0.00     0.021 A 
ATOM     17  C   UNL d   1      61.199  46.835  50.344  0.00  0.00     0.101 A 
ATOM     18  C   UNL d   1      62.176  45.872  49.419  0.00  0.00     0.002 A 
ATOM     19  C   UNL d   1      61.567  45.540  49.865  0.00  0.00     0.002 A 
ATOM     20  C   UNL d   1      61.082  46.021  50.325  0.00  0.00     0.021 A 
ATOM     21  N   UNL d   1      60.812  47.460  50.744  0.00  0.00    -0.220 NA
ENDBRANCH  12  13
ENDBRANCH   1  12
TORSDOF 6
ENDMDL
