MODEL 1
REMARK VINA RESULT:     163.4      0.000      0.000
REMARK  5 active torsions:
REMARK  status: ('A' for Active; 'I' for Inactive)
REMARK    1  A    between atoms: C_2  and  S_1 
REMARK    2  A    between atoms: C_12  and  S_1 
REMARK    3  A    between atoms: N_5  and  C_3 
REMARK    4  A    between atoms: C_18  and  N_7 
REMARK    5  A    between atoms: O_22  and  C_20 
ROOT
ATOM      1  C   UNL d   1      60.686  49.106  52.009  0.00  0.00     0.123 A 
ATOM      2  C   UNL d   1      61.145  48.442  52.191  0.00  0.00     0.078 A 
ATOM      3  C   UNL d   1      61.506  48.382  52.928  0.00  0.00     0.036 A 
ATOM      4  C   UNL d   1      60.592  49.707  52.566  0.00  0.00     0.112 A 
ATOM      5  N   UNL d   1      60.957  49.644  53.306  0.00  0.00    -0.243 NA
ATOM      6  C   UNL d   1      61.413  48.983  53.485  0.00  0.00     0.083 A 
ATOM      7  C   UNL d   1      61.963  47.720  53.108  0.00  0.00     0.027 A 
ATOM      8  C   UNL d   1      61.775  48.922  54.222  0.00  0.00     0.021 A 
ATOM      9  C   UNL d   1      62.330  47.655  53.850  0.00  0.00     0.094 A 
ATOM     10  C   UNL d   1      62.236  48.256  54.408  0.00  0.00     0.026 A 
ENDROOT
BRANCH   2  11
ATOM     11  N   UNL d   1      61.239  47.835  51.629  0.00  0.00    -0.301 N 
ATOM     12  C   UNL d   1      60.671  47.232  51.574  0.00  0.00     0.100 A 
ATOM     13  C   UNL d   1      60.773  46.631  51.011  0.00  0.00     0.100 A 
ATOM     14  N   UNL d   1      61.430  46.631  50.510  0.00  0.00    -0.301 N 
ATOM     15  C   UNL d   1      61.998  47.238  50.568  0.00  0.00     0.100 A 
ATOM     16  C   UNL d   1      61.897  47.836  51.128  0.00  0.00     0.100 A 
BRANCH  14  17
ATOM     17  C   UNL d   1      61.524  46.030  49.953  0.00  0.00     0.064 A 
ATOM     18  C   UNL d   1      60.953  45.429  49.894  0.00  0.00     0.018 A 
ATOM     19  C   UNL d   1      61.044  44.826  49.338  0.00  0.00     0.002 A 
ATOM     20  C   UNL d   1      61.700  44.823  48.842  0.00  0.00     0.000 A 
ATOM     21  C   UNL d   1      62.267  45.422  48.902  0.00  0.00     0.002 A 
ATOM     22  C   UNL d   1      62.174  46.023  49.459  0.00  0.00     0.018 A 
ENDBRANCH  14  17
ENDBRANCH   2  11
BRANCH   1  23
ATOM     23  S   UNL d   1      60.319  49.170  51.267  0.00  0.00     0.213 S 
ATOM     24  O   UNL d   1      61.022  49.463  50.943  0.00  0.00    -0.217 OA
ATOM     25  O   UNL d   1      59.609  48.875  51.589  0.00  0.00    -0.217 OA
BRANCH  23  26
ATOM     26  C   UNL d   1      59.954  49.233  50.528  0.00  0.00     0.088 A 
ATOM     27  C   UNL d   1      60.405  49.244  49.837  0.00  0.00     0.011 A 
ATOM     28  C   UNL d   1      60.044  49.307  49.100  0.00  0.00     0.001 A 
ATOM     29  C   UNL d   1      59.213  49.361  49.043  0.00  0.00     0.000 A 
ATOM     30  C   UNL d   1      58.759  49.351  49.736  0.00  0.00     0.001 A 
ATOM     31  C   UNL d   1      59.134  49.287  50.476  0.00  0.00     0.011 A 
ENDBRANCH  23  26
ENDBRANCH   1  23
BRANCH   9  32
ATOM     32  O   UNL d   1      62.786  46.988  54.024  0.00  0.00    -0.328 OA
ATOM     33  C   UNL d   1      62.642  46.566  54.721  0.00  0.00     0.181 C 
ENDBRANCH   9  32
TORSDOF 5
ENDMDL
MODEL 2
REMARK VINA RESULT:     164.3      2.305      4.006
REMARK  5 active torsions:
REMARK  status: ('A' for Active; 'I' for Inactive)
REMARK    1  A    between atoms: C_2  and  S_1 
REMARK    2  A    between atoms: C_12  and  S_1 
REMARK    3  A    between atoms: N_5  and  C_3 
REMARK    4  A    between atoms: C_18  and  N_7 
REMARK    5  A    between atoms: O_22  and  C_20 
ROOT
ATOM      1  C   UNL d   1      60.109  49.210  50.820  0.00  0.00     0.123 A 
ATOM      2  C   UNL d   1      60.248  49.264  51.634  0.00  0.00     0.078 A 
ATOM      3  C   UNL d   1      61.016  49.358  51.914  0.00  0.00     0.036 A 
ATOM      4  C   UNL d   1      60.741  49.250  50.291  0.00  0.00     0.112 A 
ATOM      5  N   UNL d   1      61.511  49.345  50.576  0.00  0.00    -0.243 NA
ATOM      6  C   UNL d   1      61.648  49.398  51.385  0.00  0.00     0.083 A 
ATOM      7  C   UNL d   1      61.152  49.412  52.725  0.00  0.00     0.027 A 
ATOM      8  C   UNL d   1      62.416  49.493  51.667  0.00  0.00     0.021 A 
ATOM      9  C   UNL d   1      61.926  49.507  53.012  0.00  0.00     0.094 A 
ATOM     10  C   UNL d   1      62.558  49.547  52.483  0.00  0.00     0.026 A 
ENDROOT
BRANCH   2  11
ATOM     11  N   UNL d   1      59.610  49.224  52.168  0.00  0.00    -0.301 N 
ATOM     12  C   UNL d   1      58.976  48.710  52.014  0.00  0.00     0.100 A 
ATOM     13  C   UNL d   1      58.344  48.676  52.551  0.00  0.00     0.100 A 
ATOM     14  N   UNL d   1      58.345  49.146  53.231  0.00  0.00    -0.301 N 
ATOM     15  C   UNL d   1      58.983  49.659  53.381  0.00  0.00     0.100 A 
ATOM     16  C   UNL d   1      59.611  49.694  52.848  0.00  0.00     0.100 A 
BRANCH  14  17
ATOM     17  C   UNL d   1      57.713  49.105  53.760  0.00  0.00     0.064 A 
ATOM     18  C   UNL d   1      56.966  48.858  53.493  0.00  0.00     0.018 A 
ATOM     19  C   UNL d   1      56.332  48.817  54.019  0.00  0.00     0.002 A 
ATOM     20  C   UNL d   1      56.442  49.021  54.808  0.00  0.00     0.000 A 
ATOM     21  C   UNL d   1      57.186  49.267  55.073  0.00  0.00     0.002 A 
ATOM     22  C   UNL d   1      57.818  49.307  54.544  0.00  0.00     0.018 A 
ENDBRANCH  14  17
ENDBRANCH   2  11
BRANCH   1  23
ATOM     23  S   UNL d   1      59.336  49.115  50.533  0.00  0.00     0.213 S 
ATOM     24  O   UNL d   1      59.046  49.569  51.161  0.00  0.00    -0.217 OA
ATOM     25  O   UNL d   1      59.624  48.656  49.899  0.00  0.00    -0.217 OA
BRANCH  23  26
ATOM     26  C   UNL d   1      58.566  49.020  50.247  0.00  0.00     0.088 A 
ATOM     27  C   UNL d   1      58.151  48.321  50.386  0.00  0.00     0.011 A 
ATOM     28  C   UNL d   1      57.384  48.223  50.103  0.00  0.00     0.001 A 
ATOM     29  C   UNL d   1      57.016  48.834  49.669  0.00  0.00     0.000 A 
ATOM     30  C   UNL d   1      57.432  49.537  49.529  0.00  0.00     0.001 A 
ATOM     31  C   UNL d   1      58.206  49.625  49.820  0.00  0.00     0.011 A 
ENDBRANCH  23  26
ENDBRANCH   1  23
BRANCH   9  32
ATOM     32  O   UNL d   1      62.056  49.561  53.827  0.00  0.00    -0.328 OA
ATOM     33  C   UNL d   1      62.821  49.459  54.126  0.00  0.00     0.181 C 
ENDBRANCH   9  32
TORSDOF 5
ENDMDL
