MODEL 1
REMARK VINA RESULT:      -6.7      0.000      0.000
REMARK  4 active torsions:
REMARK  status: ('A' for Active; 'I' for Inactive)
REMARK    1  A    between atoms: N_2  and  S_1 
REMARK    2  A    between atoms: C_3  and  S_1 
REMARK       I    between atoms: C_5  and  N_4 
REMARK    3  A    between atoms: O_17  and  C_5 
REMARK    4  A    between atoms: C_18  and  O_17 
ROOT
ATOM      1  N   UNL d   1     -47.937  13.789  22.979  0.00  0.00    -0.226 N 
ATOM      2  N   UNL d   1     -46.534  12.886  23.038  0.00  0.00    -0.248 N 
ATOM      3  C   UNL d   1     -45.833  12.452  23.060  0.00  0.00     0.378 C 
ATOM      4  C   UNL d   1     -47.230  14.083  22.657  0.00  0.00     0.111 A 
ATOM      5  C   UNL d   1     -47.933  13.033  23.332  0.00  0.00     0.111 A 
ATOM      6  C   UNL d   1     -47.240  12.587  23.361  0.00  0.00     0.105 A 
ATOM      7  C   UNL d   1     -46.537  13.637  22.687  0.00  0.00     0.105 A 
ATOM      8  O   UNL d   1     -45.140  12.760  22.736  0.00  0.00    -0.237 OA
ENDROOT
BRANCH   1   9
ATOM      9  S   UNL d   1     -48.631  14.234  22.949  0.00  0.00     0.277 S 
ATOM     10  O   UNL d   1     -48.210  14.867  22.628  0.00  0.00    -0.199 OA
ATOM     11  O   UNL d   1     -49.059  13.590  23.276  0.00  0.00    -0.199 OA
BRANCH   9  12
ATOM     12  C   UNL d   1     -49.311  14.680  22.918  0.00  0.00     0.133 A 
ATOM     13  S   UNL d   1     -49.837  14.646  22.329  0.00  0.00    -0.074 SA
ATOM     14  C   UNL d   1     -50.453  15.182  22.500  0.00  0.00     0.036 A 
ATOM     15  C   UNL d   1     -50.274  15.548  23.230  0.00  0.00     0.008 A 
ATOM     16  C   UNL d   1     -49.578  15.245  23.489  0.00  0.00     0.020 A 
ENDBRANCH   9  12
ENDBRANCH   1   9
BRANCH   3  17
ATOM     17  O   UNL d   1     -45.842  11.712  23.409  0.00  0.00    -0.257 OA
BRANCH  17  18
ATOM     18  C   UNL d   1     -45.190  11.213  23.323  0.00  0.00     0.128 C 
ATOM     19  C   UNL d   1     -45.167  10.486  23.693  0.00  0.00     0.029 C 
ENDBRANCH  17  18
ENDBRANCH   3  17
TORSDOF 4
ENDMDL
MODEL 2
REMARK VINA RESULT:      -5.0      8.590      9.309
REMARK  4 active torsions:
REMARK  status: ('A' for Active; 'I' for Inactive)
REMARK    1  A    between atoms: N_2  and  S_1 
REMARK    2  A    between atoms: C_3  and  S_1 
REMARK       I    between atoms: C_5  and  N_4 
REMARK    3  A    between atoms: O_17  and  C_5 
REMARK    4  A    between atoms: C_18  and  O_17 
ROOT
ATOM      1  N   UNL d   1     -39.670  15.137  20.506  0.00  0.00    -0.226 N 
ATOM      2  N   UNL d   1     -40.323  14.895  18.989  0.00  0.00    -0.248 N 
ATOM      3  C   UNL d   1     -40.649  14.761  18.243  0.00  0.00     0.378 C 
ATOM      4  C   UNL d   1     -39.990  14.400  20.295  0.00  0.00     0.111 A 
ATOM      5  C   UNL d   1     -39.681  15.755  19.946  0.00  0.00     0.111 A 
ATOM      6  C   UNL d   1     -40.004  15.635  19.196  0.00  0.00     0.105 A 
ATOM      7  C   UNL d   1     -40.312  14.281  19.545  0.00  0.00     0.105 A 
ATOM      8  O   UNL d   1     -40.962  14.022  18.050  0.00  0.00    -0.237 OA
ENDROOT
BRANCH   1   9
ATOM      9  S   UNL d   1     -39.347  15.257  21.256  0.00  0.00     0.277 S 
ATOM     10  O   UNL d   1     -39.965  15.772  21.439  0.00  0.00    -0.199 OA
ATOM     11  O   UNL d   1     -38.719  14.732  21.069  0.00  0.00    -0.199 OA
BRANCH   9  12
ATOM     12  C   UNL d   1     -39.034  15.379  21.997  0.00  0.00     0.133 A 
ATOM     13  S   UNL d   1     -38.399  15.004  22.279  0.00  0.00    -0.074 SA
ATOM     14  C   UNL d   1     -38.254  15.280  23.052  0.00  0.00     0.036 A 
ATOM     15  C   UNL d   1     -38.840  15.850  23.230  0.00  0.00     0.008 A 
ATOM     16  C   UNL d   1     -39.318  15.914  22.589  0.00  0.00     0.020 A 
ENDBRANCH   9  12
ENDBRANCH   1   9
BRANCH   3  17
ATOM     17  O   UNL d   1     -40.654  15.374  17.702  0.00  0.00    -0.257 OA
BRANCH  17  18
ATOM     18  C   UNL d   1     -41.060  15.286  16.989  0.00  0.00     0.128 C 
ATOM     19  C   UNL d   1     -41.177  15.921  16.492  0.00  0.00     0.029 C 
ENDBRANCH  17  18
ENDBRANCH   3  17
TORSDOF 4
ENDMDL
MODEL 3
REMARK VINA RESULT:      -4.8      8.823      9.985
REMARK  4 active torsions:
REMARK  status: ('A' for Active; 'I' for Inactive)
REMARK    1  A    between atoms: N_2  and  S_1 
REMARK    2  A    between atoms: C_3  and  S_1 
REMARK       I    between atoms: C_5  and  N_4 
REMARK    3  A    between atoms: O_17  and  C_5 
REMARK    4  A    between atoms: C_18  and  O_17 
ROOT
ATOM      1  N   UNL d   1     -39.701  15.102  18.294  0.00  0.00    -0.226 N 
ATOM      2  N   UNL d   1     -38.858  14.969  16.860  0.00  0.00    -0.248 N 
ATOM      3  C   UNL d   1     -38.439  14.918  16.151  0.00  0.00     0.378 C 
ATOM      4  C   UNL d   1     -39.336  15.766  17.953  0.00  0.00     0.111 A 
ATOM      5  C   UNL d   1     -39.639  14.367  17.905  0.00  0.00     0.111 A 
ATOM      6  C   UNL d   1     -39.222  14.301  17.196  0.00  0.00     0.105 A 
ATOM      7  C   UNL d   1     -38.919  15.700  17.244  0.00  0.00     0.105 A 
ATOM      8  O   UNL d   1     -38.082  15.588  15.827  0.00  0.00    -0.237 OA
ENDROOT
BRANCH   1   9
ATOM      9  S   UNL d   1     -40.118  15.168  19.003  0.00  0.00     0.277 S 
ATOM     10  O   UNL d   1     -40.796  15.383  18.585  0.00  0.00    -0.199 OA
ATOM     11  O   UNL d   1     -39.427  14.950  19.429  0.00  0.00    -0.199 OA
BRANCH   9  12
ATOM     12  C   UNL d   1     -40.535  15.235  19.699  0.00  0.00     0.133 A 
ATOM     13  S   UNL d   1     -40.628  14.648  20.219  0.00  0.00    -0.074 SA
ATOM     14  C   UNL d   1     -41.085  14.934  20.855  0.00  0.00     0.036 A 
ATOM     15  C   UNL d   1     -41.269  15.733  20.694  0.00  0.00     0.008 A 
ATOM     16  C   UNL d   1     -40.935  15.922  19.990  0.00  0.00     0.020 A 
ENDBRANCH   9  12
ENDBRANCH   1   9
BRANCH   3  17
ATOM     17  O   UNL d   1     -38.384  14.192  15.779  0.00  0.00    -0.257 OA
BRANCH  17  18
ATOM     18  C   UNL d   1     -38.105  14.150  15.004  0.00  0.00     0.128 C 
ATOM     19  C   UNL d   1     -37.940  13.431  14.655  0.00  0.00     0.029 C 
ENDBRANCH  17  18
ENDBRANCH   3  17
TORSDOF 4
ENDMDL
MODEL 4
REMARK VINA RESULT:      -4.8      8.606      8.913
REMARK  4 active torsions:
REMARK  status: ('A' for Active; 'I' for Inactive)
REMARK    1  A    between atoms: N_2  and  S_1 
REMARK    2  A    between atoms: C_3  and  S_1 
REMARK       I    between atoms: C_5  and  N_4 
REMARK    3  A    between atoms: O_17  and  C_5 
REMARK    4  A    between atoms: C_18  and  O_17 
ROOT
ATOM      1  N   UNL d   1     -40.030  15.202  19.460  0.00  0.00    -0.226 N 
ATOM      2  N   UNL d   1     -39.587  14.974  21.053  0.00  0.00    -0.248 N 
ATOM      3  C   UNL d   1     -39.372  14.875  21.843  0.00  0.00     0.378 C 
ATOM      4  C   UNL d   1     -40.102  15.818  20.013  0.00  0.00     0.111 A 
ATOM      5  C   UNL d   1     -39.731  14.467  19.716  0.00  0.00     0.111 A 
ATOM      6  C   UNL d   1     -39.512  14.354  20.503  0.00  0.00     0.105 A 
ATOM      7  C   UNL d   1     -39.883  15.705  20.800  0.00  0.00     0.105 A 
ATOM      8  O   UNL d   1     -39.450  15.498  22.379  0.00  0.00    -0.237 OA
ENDROOT
BRANCH   1   9
ATOM      9  S   UNL d   1     -40.249  15.315  18.673  0.00  0.00     0.277 S 
ATOM     10  O   UNL d   1     -40.873  14.784  18.770  0.00  0.00    -0.199 OA
ATOM     11  O   UNL d   1     -39.614  15.856  18.574  0.00  0.00    -0.199 OA
BRANCH   9  12
ATOM     12  C   UNL d   1     -40.470  15.422  17.897  0.00  0.00     0.133 A 
ATOM     13  S   UNL d   1     -40.068  15.142  17.277  0.00  0.00    -0.074 SA
ATOM     14  C   UNL d   1     -40.470  15.366  16.583  0.00  0.00     0.036 A 
ATOM     15  C   UNL d   1     -41.146  15.802  16.812  0.00  0.00     0.008 A 
ATOM     16  C   UNL d   1     -41.150  15.839  17.613  0.00  0.00     0.020 A 
ENDBRANCH   9  12
ENDBRANCH   1   9
BRANCH   3  17
ATOM     17  O   UNL d   1     -39.080  14.150  22.083  0.00  0.00    -0.257 OA
BRANCH  17  18
ATOM     18  C   UNL d   1     -38.789  14.059  22.849  0.00  0.00     0.128 C 
ATOM     19  C   UNL d   1     -38.518  13.337  23.113  0.00  0.00     0.029 C 
ENDBRANCH  17  18
ENDBRANCH   3  17
TORSDOF 4
ENDMDL
MODEL 5
REMARK VINA RESULT:      -4.5      9.008     10.538
REMARK  4 active torsions:
REMARK  status: ('A' for Active; 'I' for Inactive)
REMARK    1  A    between atoms: N_2  and  S_1 
REMARK    2  A    between atoms: C_3  and  S_1 
REMARK       I    between atoms: C_5  and  N_4 
REMARK    3  A    between atoms: O_17  and  C_5 
REMARK    4  A    between atoms: C_18  and  O_17 
ROOT
ATOM      1  N   UNL d   1     -39.081  14.741  17.898  0.00  0.00    -0.226 N 
ATOM      2  N   UNL d   1     -39.738  15.111  19.387  0.00  0.00    -0.248 N 
ATOM      3  C   UNL d   1     -40.076  15.294  20.117  0.00  0.00     0.378 C 
ATOM      4  C   UNL d   1     -39.902  14.825  17.990  0.00  0.00     0.111 A 
ATOM      5  C   UNL d   1     -38.590  14.846  18.563  0.00  0.00     0.111 A 
ATOM      6  C   UNL d   1     -38.915  15.029  19.299  0.00  0.00     0.105 A 
ATOM      7  C   UNL d   1     -40.227  15.008  18.726  0.00  0.00     0.105 A 
ATOM      8  O   UNL d   1     -40.894  15.373  20.190  0.00  0.00    -0.237 OA
ENDROOT
BRANCH   1   9
ATOM      9  S   UNL d   1     -38.757  14.559  17.161  0.00  0.00     0.277 S 
ATOM     10  O   UNL d   1     -38.811  13.754  17.338  0.00  0.00    -0.199 OA
ATOM     11  O   UNL d   1     -38.702  15.377  16.982  0.00  0.00    -0.199 OA
BRANCH   9  12
ATOM     12  C   UNL d   1     -38.437  14.371  16.437  0.00  0.00     0.133 A 
ATOM     13  S   UNL d   1     -38.250  14.903  15.883  0.00  0.00    -0.074 SA
ATOM     14  C   UNL d   1     -37.940  14.495  15.225  0.00  0.00     0.036 A 
ATOM     15  C   UNL d   1     -37.947  13.679  15.408  0.00  0.00     0.008 A 
ATOM     16  C   UNL d   1     -38.250  13.599  16.146  0.00  0.00     0.020 A 
ENDBRANCH   9  12
ENDBRANCH   1   9
BRANCH   3  17
ATOM     17  O   UNL d   1     -39.585  15.394  20.762  0.00  0.00    -0.257 OA
BRANCH  17  18
ATOM     18  C   UNL d   1     -39.903  15.635  21.485  0.00  0.00     0.128 C 
ATOM     19  C   UNL d   1     -39.421  15.799  22.122  0.00  0.00     0.029 C 
ENDBRANCH  17  18
ENDBRANCH   3  17
TORSDOF 4
ENDMDL
