MODEL 1
REMARK VINA RESULT:     110.8      0.000      0.000
REMARK  5 active torsions:
REMARK  status: ('A' for Active; 'I' for Inactive)
REMARK    1  A    between atoms: N_2  and  S_1 
REMARK    2  A    between atoms: C_6  and  S_1 
REMARK       I    between atoms: C_3  and  N_4 
REMARK    3  A    between atoms: C_5  and  C_3 
REMARK    4  A    between atoms: C_11  and  O_13 
REMARK    5  A    between atoms: O_13  and  C_23 
ROOT
ATOM      1  S   UNL d   1      61.152  46.960  50.518  0.00  0.00     0.271 S 
ATOM      2  O   UNL d   1      60.799  46.264  50.238  0.00  0.00    -0.200 OA
ATOM      3  O   UNL d   1      61.954  46.967  50.709  0.00  0.00    -0.200 OA
ENDROOT
BRANCH   1   4
ATOM      4  N   UNL d   1      61.421  46.190  50.363  0.00  0.00    -0.226 N 
ATOM      5  C   UNL d   1      61.448  45.631  50.970  0.00  0.00     0.111 A 
ATOM      6  C   UNL d   1      61.716  44.866  50.809  0.00  0.00     0.103 A 
ATOM      7  N   UNL d   1      61.954  44.665  50.054  0.00  0.00    -0.267 N 
ATOM      8  C   UNL d   1      62.222  43.898  49.896  0.00  0.00     0.288 C 
ATOM      9  C   UNL d   1      61.929  45.220  49.441  0.00  0.00     0.103 A 
ATOM     10  O   UNL d   1      62.466  43.689  49.127  0.00  0.00    -0.264 OA
ATOM     11  C   UNL d   1      61.660  45.988  49.599  0.00  0.00     0.111 A 
BRANCH   8  12
ATOM     12  C   UNL d   1      62.251  43.333  50.502  0.00  0.00     0.156 A 
ATOM     13  O   UNL d   1      61.769  43.313  51.180  0.00  0.00    -0.300 OA
ATOM     14  C   UNL d   1      61.989  42.655  51.632  0.00  0.00     0.123 A 
ATOM     15  C   UNL d   1      62.610  42.263  51.238  0.00  0.00     0.029 A 
ATOM     16  C   UNL d   1      62.768  42.690  50.537  0.00  0.00     0.032 A 
ENDBRANCH   8  12
ENDBRANCH   1   4
BRANCH   1  17
ATOM     17  C   UNL d   1      60.696  47.645  50.606  0.00  0.00     0.104 A 
ATOM     18  C   UNL d   1      60.867  48.314  50.161  0.00  0.00     0.015 A 
ATOM     19  C   UNL d   1      60.413  48.995  50.250  0.00  0.00     0.025 A 
ATOM     20  C   UNL d   1      59.787  49.004  50.783  0.00  0.00     0.100 A 
ATOM     21  C   UNL d   1      59.616  48.332  51.229  0.00  0.00     0.025 A 
ATOM     22  C   UNL d   1      60.071  47.655  51.139  0.00  0.00     0.015 A 
BRANCH  20  23
ATOM     23  O   UNL d   1      59.322  49.690  50.879  0.00  0.00    -0.307 OA
BRANCH  23  24
ATOM     24  C   UNL d   1      58.541  49.691  50.613  0.00  0.00     0.100 A 
ATOM     25  C   UNL d   1      57.924  49.689  51.153  0.00  0.00     0.023 A 
ATOM     26  C   UNL d   1      58.087  49.685  51.959  0.00  0.00     0.002 C 
ATOM     27  C   UNL d   1      57.137  49.691  50.893  0.00  0.00     0.002 A 
ATOM     28  C   UNL d   1      56.970  49.695  50.084  0.00  0.00     0.000 A 
ATOM     29  C   UNL d   1      57.596  49.697  49.542  0.00  0.00     0.002 A 
ATOM     30  C   UNL d   1      58.375  49.695  49.808  0.00  0.00     0.025 A 
ENDBRANCH  23  24
ENDBRANCH  20  23
ENDBRANCH   1  17
TORSDOF 5
ENDMDL
