MODEL 1
REMARK VINA RESULT:      32.7      0.000      0.000
REMARK  2 active torsions:
REMARK  status: ('A' for Active; 'I' for Inactive)
REMARK       I    between atoms: N_4  and  C_1 
REMARK    1  A    between atoms: C_5  and  C_1 
REMARK       I    between atoms: C_2  and  N_3 
REMARK    2  A    between atoms: C_6  and  C_2 
ROOT
ATOM      1  C   UNL d   1      46.267 -17.771  44.085  0.00  0.00     0.265 C 
ATOM      2  C   UNL d   1      45.631 -14.328  44.155  0.00  0.00     0.265 C 
ATOM      3  N   UNL d   1      45.771 -15.059  43.826  0.00  0.00    -0.270 N 
ATOM      4  N   UNL d   1      46.106 -16.886  43.918  0.00  0.00    -0.270 N 
ATOM      5  C   UNL d   1      45.849 -15.544  44.515  0.00  0.00     0.102 A 
ATOM      6  C   UNL d   1      46.005 -16.392  44.551  0.00  0.00     0.102 A 
ATOM      7  O   UNL d   1      46.305 -18.058  44.951  0.00  0.00    -0.267 OA
ATOM      8  O   UNL d   1      45.602 -14.243  44.955  0.00  0.00    -0.267 OA
ATOM      9  C   UNL d   1      45.953 -15.956  42.850  0.00  0.00     0.038 A 
ATOM     10  C   UNL d   1      46.080 -16.681  43.223  0.00  0.00     0.085 A 
ATOM     11  C   UNL d   1      45.830 -15.309  43.056  0.00  0.00     0.085 A 
ENDROOT
BRANCH   2  12
ATOM     12  C   UNL d   1      45.521 -13.688  43.664  0.00  0.00     0.057 A 
ATOM     13  C   UNL d   1      44.779 -13.405  43.558  0.00  0.00     0.005 A 
ATOM     14  C   UNL d   1      44.659 -12.766  43.068  0.00  0.00     0.000 A 
ATOM     15  C   UNL d   1      43.914 -12.468  42.950  0.00  0.00     0.000 C 
ATOM     16  C   UNL d   1      45.292 -12.421  42.694  0.00  0.00     0.000 A 
ATOM     17  C   UNL d   1      46.039 -12.714  42.807  0.00  0.00     0.000 A 
ATOM     18  C   UNL d   1      46.153 -13.348  43.293  0.00  0.00     0.005 A 
ENDBRANCH   2  12
BRANCH   1  19
ATOM     19  C   UNL d   1      46.379 -18.313  43.357  0.00  0.00     0.057 A 
ATOM     20  C   UNL d   1      46.388 -17.958  42.527  0.00  0.00     0.005 A 
ATOM     21  C   UNL d   1      46.499 -18.495  41.802  0.00  0.00     0.000 A 
ATOM     22  C   UNL d   1      46.511 -18.159  40.961  0.00  0.00     0.000 C 
ATOM     23  C   UNL d   1      46.602 -19.396  41.912  0.00  0.00     0.000 A 
ATOM     24  C   UNL d   1      46.593 -19.751  42.755  0.00  0.00     0.000 A 
ATOM     25  C   UNL d   1      46.481 -19.208  43.480  0.00  0.00     0.005 A 
ENDBRANCH   1  19
TORSDOF 2
ENDMDL
MODEL 2
REMARK VINA RESULT:      34.2      0.617      4.959
REMARK  2 active torsions:
REMARK  status: ('A' for Active; 'I' for Inactive)
REMARK       I    between atoms: N_4  and  C_1 
REMARK    1  A    between atoms: C_5  and  C_1 
REMARK       I    between atoms: C_2  and  N_3 
REMARK    2  A    between atoms: C_6  and  C_2 
ROOT
ATOM      1  C   UNL d   1      45.167 -14.131  44.137  0.00  0.00     0.265 C 
ATOM      2  C   UNL d   1      45.785 -17.578  44.156  0.00  0.00     0.265 C 
ATOM      3  N   UNL d   1      45.761 -16.820  43.858  0.00  0.00    -0.270 N 
ATOM      4  N   UNL d   1      45.389 -15.002  43.968  0.00  0.00    -0.270 N 
ATOM      5  C   UNL d   1      45.435 -16.390  44.509  0.00  0.00     0.102 A 
ATOM      6  C   UNL d   1      45.264 -15.545  44.555  0.00  0.00     0.102 A 
ATOM      7  O   UNL d   1      44.816 -13.913  44.952  0.00  0.00    -0.267 OA
ATOM      8  O   UNL d   1      45.527 -17.726  44.903  0.00  0.00    -0.267 OA
ATOM      9  C   UNL d   1      45.929 -15.846  42.955  0.00  0.00     0.038 A 
ATOM     10  C   UNL d   1      45.666 -15.151  43.315  0.00  0.00     0.085 A 
ATOM     11  C   UNL d   1      45.979 -16.508  43.139  0.00  0.00     0.085 A 
ENDROOT
BRANCH   2  12
ATOM     12  C   UNL d   1      46.073 -18.178  43.687  0.00  0.00     0.057 A 
ATOM     13  C   UNL d   1      46.140 -18.913  43.999  0.00  0.00     0.005 A 
ATOM     14  C   UNL d   1      46.427 -19.520  43.538  0.00  0.00     0.000 A 
ATOM     15  C   UNL d   1      46.502 -20.269  43.840  0.00  0.00     0.000 C 
ATOM     16  C   UNL d   1      46.641 -19.374  42.768  0.00  0.00     0.000 A 
ATOM     17  C   UNL d   1      46.569 -18.628  42.461  0.00  0.00     0.000 A 
ATOM     18  C   UNL d   1      46.285 -18.029  42.921  0.00  0.00     0.005 A 
ENDBRANCH   2  12
BRANCH   1  19
ATOM     19  C   UNL d   1      45.315 -13.530  43.463  0.00  0.00     0.057 A 
ATOM     20  C   UNL d   1      44.616 -13.151  43.035  0.00  0.00     0.005 A 
ATOM     21  C   UNL d   1      44.761 -12.554  42.365  0.00  0.00     0.000 A 
ATOM     22  C   UNL d   1      44.075 -12.161  41.923  0.00  0.00     0.000 C 
ATOM     23  C   UNL d   1      45.615 -12.336  42.123  0.00  0.00     0.000 A 
ATOM     24  C   UNL d   1      46.319 -12.724  42.559  0.00  0.00     0.000 A 
ATOM     25  C   UNL d   1      46.170 -13.323  43.231  0.00  0.00     0.005 A 
ENDBRANCH   1  19
TORSDOF 2
ENDMDL
