MODEL 1
REMARK VINA RESULT:      57.3      0.000      0.000
REMARK  6 active torsions:
REMARK  status: ('A' for Active; 'I' for Inactive)
REMARK    1  A    between atoms: C_18  and  N_5 
REMARK    2  A    between atoms: S_11  and  C_6 
REMARK    3  A    between atoms: C_10  and  C_12 
REMARK    4  A    between atoms: C_15  and  S_11 
REMARK    5  A    between atoms: C_12  and  C_15 
REMARK    6  A    between atoms: C_21  and  C_18 
ROOT
ATOM      1  C   UNL d   1      57.593  49.660  50.879  0.00  0.00     0.081 A 
ATOM      2  C   UNL d   1      58.027  49.640  50.188  0.00  0.00     0.117 A 
ATOM      3  N   UNL d   1      58.850  49.644  50.217  0.00  0.00    -0.215 NA
ATOM      4  C   UNL d   1      58.019  49.683  51.622  0.00  0.00     0.268 A 
ATOM      5  N   UNL d   1      58.829  49.686  51.619  0.00  0.00    -0.253 N 
ATOM      6  C   UNL d   1      59.222  49.667  50.954  0.00  0.00     0.182 A 
ATOM      7  S   UNL d   1      57.482  49.621  49.586  0.00  0.00    -0.068 SA
ATOM      8  C   UNL d   1      56.828  49.652  50.695  0.00  0.00     0.013 A 
ATOM      9  C   UNL d   1      56.756  49.627  49.854  0.00  0.00     0.031 A 
ATOM     10  O   UNL d   1      57.574  49.704  52.359  0.00  0.00    -0.267 OA
ATOM     11  C   UNL d   1      56.210  49.668  51.271  0.00  0.00     0.001 C 
ATOM     12  C   UNL d   1      56.039  49.611  49.408  0.00  0.00     0.007 C 
ENDROOT
BRANCH   6  13
ATOM     13  S   UNL d   1      60.057  49.670  50.964  0.00  0.00    -0.046 SA
BRANCH  13  14
ATOM     14  C   UNL d   1      60.484  48.945  51.017  0.00  0.00     0.081 C 
BRANCH  14  15
ATOM     15  C   UNL d   1      61.133  48.797  50.545  0.00  0.00     0.208 C 
ATOM     16  O   UNL d   1      61.589  49.424  50.238  0.00  0.00    -0.285 OA
BRANCH  15  17
ATOM     17  C   UNL d   1      61.350  48.064  50.364  0.00  0.00     0.069 A 
ATOM     18  S   UNL d   1      61.335  47.431  50.929  0.00  0.00    -0.083 SA
ATOM     19  C   UNL d   1      61.596  46.747  50.551  0.00  0.00     0.035 A 
ATOM     20  C   UNL d   1      61.778  46.911  49.771  0.00  0.00     0.008 A 
ATOM     21  C   UNL d   1      61.640  47.681  49.638  0.00  0.00     0.010 A 
ENDBRANCH  15  17
ENDBRANCH  14  15
ENDBRANCH  13  14
ENDBRANCH   6  13
BRANCH   5  22
ATOM     22  C   UNL d   1      59.254  49.708  52.312  0.00  0.00     0.085 C 
BRANCH  22  23
ATOM     23  C   UNL d   1      58.947  49.393  53.010  0.00  0.00     0.019 C 
ATOM     24  C   UNL d   1      59.135  49.704  53.754  0.00  0.00     0.002 C 
ENDBRANCH  22  23
ENDBRANCH   5  22
TORSDOF 6
ENDMDL
