MODEL 1
REMARK VINA RESULT:      -3.7      0.000      0.000
REMARK  3 active torsions:
REMARK  status: ('A' for Active; 'I' for Inactive)
REMARK       I    between atoms: C_3  and  N_1 
REMARK       I    between atoms: C_2  and  N_7 
REMARK    1  A    between atoms: C_4  and  C_2 
REMARK    2  A    between atoms: C_6  and  C_3 
REMARK    3  A    between atoms: N_7  and  C_15 
ROOT
ATOM      1  N   UNL d   1      32.882  18.327 -23.971  0.00  0.00    -0.273 N 
ATOM      2  C   UNL d   1      32.709  17.578 -23.665  0.00  0.00     0.271 C 
ATOM      3  C   UNL d   1      32.972  18.976 -23.469  0.00  0.00     0.067 A 
ATOM      4  C   UNL d   1      33.145  19.717 -23.781  0.00  0.00     0.018 A 
ATOM      5  C   UNL d   1      32.889  18.872 -22.657  0.00  0.00     0.019 A 
ATOM      6  O   UNL d   1      32.623  17.467 -22.848  0.00  0.00    -0.266 OA
ATOM      7  C   UNL d   1      33.151  20.264 -22.454  0.00  0.00     0.085 A 
ATOM      8  C   UNL d   1      33.234  20.363 -23.275  0.00  0.00     0.021 A 
ATOM      9  C   UNL d   1      32.967  18.439 -24.787  0.00  0.00     0.083 A 
ATOM     10  C   UNL d   1      32.978  19.513 -22.151  0.00  0.00     0.021 A 
ATOM     11  C   UNL d   1      33.228  19.821 -24.587  0.00  0.00     0.003 A 
ATOM     12  C   UNL d   1      33.138  19.178 -25.096  0.00  0.00     0.019 A 
ENDROOT
BRANCH   7  13
ATOM     13  N   UNL d   1      33.241  20.906 -21.958  0.00  0.00    -0.208 NA
ATOM     14  C   UNL d   1      32.629  21.126 -21.453  0.00  0.00     0.282 C 
ATOM     15  O   UNL d   1      31.923  20.703 -21.444  0.00  0.00    -0.265 OA
BRANCH  14  16
ATOM     16  C   UNL d   1      32.714  21.767 -20.954  0.00  0.00     0.096 A 
ATOM     17  C   UNL d   1      33.023  21.665 -20.187  0.00  0.00     0.065 A 
ATOM     18 CL   UNL d   1      33.241  20.910 -19.938  0.00  0.00    -0.082 Cl
ATOM     19  C   UNL d   1      33.109  22.308 -19.685  0.00  0.00     0.012 A 
ATOM     20  C   UNL d   1      32.887  23.061 -19.945  0.00  0.00     0.003 A 
ATOM     21  C   UNL d   1      32.580  23.160 -20.708  0.00  0.00     0.030 A 
ATOM     22  C   UNL d   1      32.495  22.511 -21.210  0.00  0.00     0.146 A 
ATOM     23  F   UNL d   1      32.186  22.625 -21.973  0.00  0.00    -0.204 F 
ENDBRANCH  14  16
ENDBRANCH   7  13
BRANCH   2  24
ATOM     24  C   UNL d   1      32.620  16.934 -24.179  0.00  0.00     0.086 A 
ATOM     25  S   UNL d   1      31.892  16.653 -24.483  0.00  0.00    -0.082 SA
ATOM     26  C   UNL d   1      32.068  16.008 -24.969  0.00  0.00     0.036 A 
ATOM     27  C   UNL d   1      32.884  15.883 -24.974  0.00  0.00     0.008 A 
ATOM     28  C   UNL d   1      33.224  16.458 -24.484  0.00  0.00     0.012 A 
ENDBRANCH   2  24
TORSDOF 3
ENDMDL
MODEL 2
REMARK VINA RESULT:      -1.8      2.198      5.475
REMARK  3 active torsions:
REMARK  status: ('A' for Active; 'I' for Inactive)
REMARK       I    between atoms: C_3  and  N_1 
REMARK       I    between atoms: C_2  and  N_7 
REMARK    1  A    between atoms: C_4  and  C_2 
REMARK    2  A    between atoms: C_6  and  C_3 
REMARK    3  A    between atoms: N_7  and  C_15 
ROOT
ATOM      1  N   UNL d   1      32.786  22.182 -20.741  0.00  0.00    -0.273 N 
ATOM      2  C   UNL d   1      32.780  22.038 -19.926  0.00  0.00     0.271 C 
ATOM      3  C   UNL d   1      32.900  21.563 -21.276  0.00  0.00     0.067 A 
ATOM      4  C   UNL d   1      32.905  21.713 -22.084  0.00  0.00     0.018 A 
ATOM      5  C   UNL d   1      33.008  20.798 -20.991  0.00  0.00     0.019 A 
ATOM      6  O   UNL d   1      32.888  21.271 -19.633  0.00  0.00    -0.266 OA
ATOM      7  C   UNL d   1      33.128  20.318 -22.334  0.00  0.00     0.085 A 
ATOM      8  C   UNL d   1      33.019  21.092 -22.615  0.00  0.00     0.021 A 
ATOM      9  C   UNL d   1      32.679  22.948 -21.034  0.00  0.00     0.083 A 
ATOM     10  C   UNL d   1      33.122  20.178 -21.517  0.00  0.00     0.021 A 
ATOM     11  C   UNL d   1      32.798  22.472 -22.368  0.00  0.00     0.003 A 
ATOM     12  C   UNL d   1      32.684  23.096 -21.840  0.00  0.00     0.019 A 
ENDROOT
BRANCH   7  13
ATOM     13  N   UNL d   1      33.241  19.706 -22.862  0.00  0.00    -0.208 NA
ATOM     14  C   UNL d   1      32.621  19.194 -23.038  0.00  0.00     0.282 C 
ATOM     15  O   UNL d   1      31.885  19.292 -22.685  0.00  0.00    -0.265 OA
BRANCH  14  16
ATOM     16  C   UNL d   1      32.729  18.580 -23.567  0.00  0.00     0.096 A 
ATOM     17  C   UNL d   1      32.978  17.832 -23.297  0.00  0.00     0.065 A 
ATOM     18 CL   UNL d   1      33.115  17.718 -22.492  0.00  0.00    -0.082 Cl
ATOM     19  C   UNL d   1      33.087  17.215 -23.826  0.00  0.00     0.012 A 
ATOM     20  C   UNL d   1      32.947  17.339 -24.632  0.00  0.00     0.003 A 
ATOM     21  C   UNL d   1      32.700  18.084 -24.898  0.00  0.00     0.030 A 
ATOM     22  C   UNL d   1      32.591  18.702 -24.362  0.00  0.00     0.146 A 
ATOM     23  F   UNL d   1      32.343  19.444 -24.643  0.00  0.00    -0.204 F 
ENDBRANCH  14  16
ENDBRANCH   7  13
BRANCH   2  24
ATOM     24  C   UNL d   1      32.665  22.668 -19.399  0.00  0.00     0.086 A 
ATOM     25  S   UNL d   1      33.220  22.932 -18.831  0.00  0.00    -0.082 SA
ATOM     26  C   UNL d   1      32.872  23.567 -18.433  0.00  0.00     0.036 A 
ATOM     27  C   UNL d   1      32.118  23.702 -18.739  0.00  0.00     0.008 A 
ATOM     28  C   UNL d   1      31.991  23.144 -19.338  0.00  0.00     0.012 A 
ENDBRANCH   2  24
TORSDOF 3
ENDMDL
MODEL 3
REMARK VINA RESULT:      -0.8      2.432      5.786
REMARK  3 active torsions:
REMARK  status: ('A' for Active; 'I' for Inactive)
REMARK       I    between atoms: C_3  and  N_1 
REMARK       I    between atoms: C_2  and  N_7 
REMARK    1  A    between atoms: C_4  and  C_2 
REMARK    2  A    between atoms: C_6  and  C_3 
REMARK    3  A    between atoms: N_7  and  C_15 
ROOT
ATOM      1  N   UNL d   1      32.679  22.514 -19.860  0.00  0.00    -0.273 N 
ATOM      2  C   UNL d   1      32.799  22.299 -19.070  0.00  0.00     0.271 C 
ATOM      3  C   UNL d   1      32.819  21.974 -20.468  0.00  0.00     0.067 A 
ATOM      4  C   UNL d   1      32.698  22.195 -21.251  0.00  0.00     0.018 A 
ATOM      5  C   UNL d   1      33.080  21.216 -20.282  0.00  0.00     0.019 A 
ATOM      6  O   UNL d   1      33.061  21.538 -18.876  0.00  0.00    -0.266 OA
ATOM      7  C   UNL d   1      33.103  20.885 -21.675  0.00  0.00     0.085 A 
ATOM      8  C   UNL d   1      32.839  21.652 -21.856  0.00  0.00     0.021 A 
ATOM      9  C   UNL d   1      32.417  23.275 -20.054  0.00  0.00     0.083 A 
ATOM     10  C   UNL d   1      33.221  20.673 -20.882  0.00  0.00     0.021 A 
ATOM     11  C   UNL d   1      32.439  22.948 -21.437  0.00  0.00     0.003 A 
ATOM     12  C   UNL d   1      32.297  23.493 -20.834  0.00  0.00     0.019 A 
ENDROOT
BRANCH   7  13
ATOM     13  N   UNL d   1      33.241  20.351 -22.276  0.00  0.00    -0.208 NA
ATOM     14  C   UNL d   1      32.617  19.924 -22.601  0.00  0.00     0.282 C 
ATOM     15  O   UNL d   1      31.849  20.031 -22.324  0.00  0.00    -0.265 OA
BRANCH  14  16
ATOM     16  C   UNL d   1      32.751  19.389 -23.203  0.00  0.00     0.096 A 
ATOM     17  C   UNL d   1      32.865  19.654 -23.985  0.00  0.00     0.065 A 
ATOM     18 CL   UNL d   1      32.842  20.463 -24.143  0.00  0.00    -0.082 Cl
ATOM     19  C   UNL d   1      33.000  19.117 -24.590  0.00  0.00     0.012 A 
ATOM     20  C   UNL d   1      33.021  18.308 -24.420  0.00  0.00     0.003 A 
ATOM     21  C   UNL d   1      32.906  18.046 -23.642  0.00  0.00     0.030 A 
ATOM     22  C   UNL d   1      32.772  18.589 -23.036  0.00  0.00     0.146 A 
ATOM     23  F   UNL d   1      32.658  18.313 -22.261  0.00  0.00    -0.204 F 
ENDBRANCH  14  16
ENDBRANCH   7  13
BRANCH   2  24
ATOM     24  C   UNL d   1      32.655  22.850 -18.468  0.00  0.00     0.086 A 
ATOM     25  S   UNL d   1      33.237  23.187 -17.968  0.00  0.00    -0.082 SA
ATOM     26  C   UNL d   1      32.844  23.702 -17.456  0.00  0.00     0.036 A 
ATOM     27  C   UNL d   1      32.036  23.695 -17.624  0.00  0.00     0.008 A 
ATOM     28  C   UNL d   1      31.921  23.166 -18.252  0.00  0.00     0.012 A 
ENDBRANCH   2  24
TORSDOF 3
ENDMDL
