MODEL 1
REMARK VINA RESULT:      93.5      0.000      0.000
REMARK  6 active torsions:
REMARK  status: ('A' for Active; 'I' for Inactive)
REMARK    1  A    between atoms: S_3  and  N_1 
REMARK    2  A    between atoms: C_19  and  S_3 
REMARK    3  A    between atoms: S_4  and  N_8 
REMARK    4  A    between atoms: C_12  and  C_5 
REMARK    5  A    between atoms: C_9  and  C_6 
REMARK    6  A    between atoms: N_8  and  C_16 
ROOT
ATOM      1  N   UNL d   1      61.416  46.197  49.906  0.00  0.00    -0.152 N 
ATOM      2  N   UNL d   1      61.354  47.022  49.841  0.00  0.00    -0.155 NA
ATOM      3  C   UNL d   1      61.209  45.990  50.685  0.00  0.00     0.096 A 
ATOM      4  C   UNL d   1      61.112  47.322  50.571  0.00  0.00     0.104 A 
ATOM      5  C   UNL d   1      61.023  46.682  51.088  0.00  0.00     0.041 A 
ENDROOT
BRANCH   4   6
ATOM      6  C   UNL d   1      60.982  48.115  50.751  0.00  0.00     0.021 A 
ATOM      7  C   UNL d   1      60.319  48.497  50.454  0.00  0.00     0.021 A 
ATOM      8  C   UNL d   1      60.187  49.296  50.635  0.00  0.00     0.093 A 
ATOM      9  C   UNL d   1      60.724  49.708  51.116  0.00  0.00     0.020 A 
ATOM     10  C   UNL d   1      61.390  49.315  51.412  0.00  0.00     0.002 A 
ATOM     11  C   UNL d   1      61.522  48.525  51.234  0.00  0.00     0.002 A 
BRANCH   8  12
ATOM     12  N   UNL d   1      59.515  49.685  50.334  0.00  0.00    -0.162 NA
BRANCH  12  13
ATOM     13  S   UNL d   1      58.817  49.693  50.765  0.00  0.00     0.266 S 
ATOM     14  O   UNL d   1      57.998  49.699  50.914  0.00  0.00    -0.203 OA
ATOM     15  O   UNL d   1      58.462  49.688  50.016  0.00  0.00    -0.203 OA
ATOM     16  C   UNL d   1      59.157  49.699  51.513  0.00  0.00     0.165 C 
ENDBRANCH  12  13
ENDBRANCH   8  12
ENDBRANCH   4   6
BRANCH   1  17
ATOM     17  S   UNL d   1      61.643  45.681  49.300  0.00  0.00     0.287 S 
ATOM     18  O   UNL d   1      61.493  45.021  48.828  0.00  0.00    -0.198 OA
ATOM     19  O   UNL d   1      60.925  45.567  49.694  0.00  0.00    -0.198 OA
BRANCH  17  20
ATOM     20  C   UNL d   1      62.364  45.850  48.953  0.00  0.00     0.118 C 
ATOM     21  C   UNL d   1      63.004  45.332  49.059  0.00  0.00     0.014 C 
ENDBRANCH  17  20
ENDBRANCH   1  17
BRANCH   3  22
ATOM     22  C   UNL d   1      61.195  45.229  50.986  0.00  0.00     0.018 A 
ATOM     23  C   UNL d   1      60.536  44.974  51.411  0.00  0.00     0.002 A 
ATOM     24  C   UNL d   1      60.516  44.208  51.717  0.00  0.00     0.000 A 
ATOM     25  C   UNL d   1      61.149  43.702  51.599  0.00  0.00     0.000 A 
ATOM     26  C   UNL d   1      61.804  43.967  51.172  0.00  0.00     0.000 A 
ATOM     27  C   UNL d   1      61.129  42.935  51.906  0.00  0.00     0.000 C 
ATOM     28  C   UNL d   1      61.831  44.718  50.869  0.00  0.00     0.002 A 
ENDBRANCH   3  22
TORSDOF 6
ENDMDL
