MODEL 1
REMARK VINA RESULT:      -3.0      0.000      0.000
REMARK  3 active torsions:
REMARK  status: ('A' for Active; 'I' for Inactive)
REMARK    1  A    between atoms: N_2  and  C_1 
REMARK    2  A    between atoms: C_6  and  C_5 
REMARK       I    between atoms: N_13  and  C_6 
REMARK    3  A    between atoms: C_17  and  N_13 
ROOT
ATOM      1  C   UNL d   1      32.638  21.528 -20.845  0.00  0.00     0.285 C 
ATOM      2  N   UNL d   1      33.241  22.054 -20.532  0.00  0.00    -0.208 NA
ATOM      3  O   UNL d   1      31.905  21.461 -20.529  0.00  0.00    -0.265 OA
ENDROOT
BRANCH   2   4
ATOM      4  C   UNL d   1      33.010  22.519 -19.839  0.00  0.00     0.086 A 
ATOM      5  C   UNL d   1      33.199  22.246 -19.077  0.00  0.00     0.039 A 
ATOM      6  C   UNL d   1      32.978  22.689 -18.417  0.00  0.00     0.089 A 
ATOM      7  N   UNL d   1      33.081  22.572 -17.617  0.00  0.00    -0.238 NA
ATOM      8  C   UNL d   1      32.569  23.406 -18.519  0.00  0.00     0.049 A 
ATOM      9  C   UNL d   1      32.748  23.193 -17.222  0.00  0.00     0.111 A 
ATOM     10  C   UNL d   1      32.728  23.295 -16.401  0.00  0.00     0.028 C 
ATOM     11  S   UNL d   1      32.438  23.699 -17.757  0.00  0.00    -0.066 SA
ATOM     12  C   UNL d   1      32.385  23.670 -19.275  0.00  0.00     0.010 A 
ATOM     13  C   UNL d   1      32.605  23.227 -19.935  0.00  0.00     0.020 A 
ENDBRANCH   2   4
BRANCH   1  14
ATOM     14  C   UNL d   1      32.777  21.055 -21.497  0.00  0.00     0.089 A 
ATOM     15  S   UNL d   1      32.652  20.255 -21.509  0.00  0.00    -0.059 SA
ATOM     16  C   UNL d   1      32.869  20.007 -22.287  0.00  0.00     0.156 A 
ATOM     17  C   UNL d   1      33.109  20.625 -22.711  0.00  0.00     0.031 A 
ATOM     18  C   UNL d   1      33.060  21.301 -22.235  0.00  0.00     0.014 A 
BRANCH  16  19
ATOM     19  N   UNL d   1      32.846  19.252 -22.585  0.00  0.00    -0.107 N 
ATOM     20  O   UNL d   1      33.224  18.580 -22.272  0.00  0.00    -0.531 OA
ATOM     21  O   UNL d   1      32.431  19.039 -23.262  0.00  0.00    -0.531 OA
ENDBRANCH  16  19
ENDBRANCH   1  14
TORSDOF 3
ENDMDL
MODEL 2
REMARK VINA RESULT:      -2.6      2.337      4.016
REMARK  3 active torsions:
REMARK  status: ('A' for Active; 'I' for Inactive)
REMARK    1  A    between atoms: N_2  and  C_1 
REMARK    2  A    between atoms: C_6  and  C_5 
REMARK       I    between atoms: N_13  and  C_6 
REMARK    3  A    between atoms: C_17  and  N_13 
ROOT
ATOM      1  C   UNL d   1      32.558  18.508 -23.262  0.00  0.00     0.285 C 
ATOM      2  N   UNL d   1      33.068  18.756 -22.618  0.00  0.00    -0.208 NA
ATOM      3  O   UNL d   1      32.093  19.014 -23.675  0.00  0.00    -0.265 OA
ENDROOT
BRANCH   2   4
ATOM      4  C   UNL d   1      33.055  19.602 -22.432  0.00  0.00     0.086 A 
ATOM      5  C   UNL d   1      32.852  19.852 -21.666  0.00  0.00     0.039 A 
ATOM      6  C   UNL d   1      32.839  20.658 -21.489  0.00  0.00     0.089 A 
ATOM      7  N   UNL d   1      32.667  21.068 -20.806  0.00  0.00    -0.238 NA
ATOM      8  C   UNL d   1      33.029  21.213 -22.079  0.00  0.00     0.049 A 
ATOM      9  C   UNL d   1      32.744  21.859 -20.955  0.00  0.00     0.111 A 
ATOM     10  C   UNL d   1      32.620  22.471 -20.413  0.00  0.00     0.028 C 
ATOM     11  S   UNL d   1      32.961  21.954 -21.718  0.00  0.00    -0.066 SA
ATOM     12  C   UNL d   1      33.228  20.959 -22.834  0.00  0.00     0.010 A 
ATOM     13  C   UNL d   1      33.241  20.154 -23.011  0.00  0.00     0.020 A 
ENDBRANCH   2   4
BRANCH   1  14
ATOM     14  C   UNL d   1      32.513  17.727 -23.499  0.00  0.00     0.089 A 
ATOM     15  S   UNL d   1      31.823  17.356 -23.704  0.00  0.00    -0.059 SA
ATOM     16  C   UNL d   1      32.046  16.567 -23.907  0.00  0.00     0.156 A 
ATOM     17  C   UNL d   1      32.823  16.475 -23.826  0.00  0.00     0.031 A 
ATOM     18  C   UNL d   1      33.143  17.194 -23.570  0.00  0.00     0.014 A 
BRANCH  16  19
ATOM     19  N   UNL d   1      31.556  15.967 -24.152  0.00  0.00    -0.107 N 
ATOM     20  O   UNL d   1      31.414  15.727 -24.937  0.00  0.00    -0.531 OA
ATOM     21  O   UNL d   1      31.116  15.496 -23.641  0.00  0.00    -0.531 OA
ENDBRANCH  16  19
ENDBRANCH   1  14
TORSDOF 3
ENDMDL
MODEL 3
REMARK VINA RESULT:      -2.5      2.030      5.435
REMARK  3 active torsions:
REMARK  status: ('A' for Active; 'I' for Inactive)
REMARK    1  A    between atoms: N_2  and  C_1 
REMARK    2  A    between atoms: C_6  and  C_5 
REMARK       I    between atoms: N_13  and  C_6 
REMARK    3  A    between atoms: C_17  and  N_13 
ROOT
ATOM      1  C   UNL d   1      32.569  20.679 -21.745  0.00  0.00     0.285 C 
ATOM      2  N   UNL d   1      33.241  20.395 -22.198  0.00  0.00    -0.208 NA
ATOM      3  O   UNL d   1      31.833  20.367 -21.807  0.00  0.00    -0.265 OA
ENDROOT
BRANCH   2   4
ATOM      4  C   UNL d   1      33.079  19.738 -22.738  0.00  0.00     0.086 A 
ATOM      5  C   UNL d   1      33.054  18.960 -22.445  0.00  0.00     0.039 A 
ATOM      6  C   UNL d   1      32.899  18.334 -22.959  0.00  0.00     0.089 A 
ATOM      7  N   UNL d   1      32.840  17.529 -22.844  0.00  0.00    -0.238 NA
ATOM      8  C   UNL d   1      32.770  18.486 -23.767  0.00  0.00     0.049 A 
ATOM      9  C   UNL d   1      32.678  17.179 -23.554  0.00  0.00     0.111 A 
ATOM     10  C   UNL d   1      32.573  16.370 -23.686  0.00  0.00     0.028 C 
ATOM     11  S   UNL d   1      32.634  17.748 -24.114  0.00  0.00    -0.066 SA
ATOM     12  C   UNL d   1      32.796  19.256 -24.050  0.00  0.00     0.010 A 
ATOM     13  C   UNL d   1      32.950  19.882 -23.536  0.00  0.00     0.020 A 
ENDBRANCH   2   4
BRANCH   1  14
ATOM     14  C   UNL d   1      32.639  21.297 -21.214  0.00  0.00     0.089 A 
ATOM     15  S   UNL d   1      32.262  22.008 -21.297  0.00  0.00    -0.059 SA
ATOM     16  C   UNL d   1      32.496  22.465 -20.625  0.00  0.00     0.156 A 
ATOM     17  C   UNL d   1      32.984  22.047 -20.171  0.00  0.00     0.031 A 
ATOM     18  C   UNL d   1      33.091  21.304 -20.520  0.00  0.00     0.014 A 
BRANCH  16  19
ATOM     19  N   UNL d   1      32.271  23.224 -20.446  0.00  0.00    -0.107 N 
ATOM     20  O   UNL d   1      31.695  23.680 -20.838  0.00  0.00    -0.531 OA
ATOM     21  O   UNL d   1      32.590  23.663 -19.829  0.00  0.00    -0.531 OA
ENDBRANCH  16  19
ENDBRANCH   1  14
TORSDOF 3
ENDMDL
MODEL 4
REMARK VINA RESULT:      -2.5      1.811      5.022
REMARK  3 active torsions:
REMARK  status: ('A' for Active; 'I' for Inactive)
REMARK    1  A    between atoms: N_2  and  C_1 
REMARK    2  A    between atoms: C_6  and  C_5 
REMARK       I    between atoms: N_13  and  C_6 
REMARK    3  A    between atoms: C_17  and  N_13 
ROOT
ATOM      1  C   UNL d   1      32.548  21.686 -21.453  0.00  0.00     0.285 C 
ATOM      2  N   UNL d   1      33.233  21.497 -21.936  0.00  0.00    -0.208 NA
ATOM      3  O   UNL d   1      31.890  21.230 -21.423  0.00  0.00    -0.265 OA
ENDROOT
BRANCH   2   4
ATOM      4  C   UNL d   1      33.174  20.769 -22.401  0.00  0.00     0.086 A 
ATOM      5  C   UNL d   1      33.241  20.032 -22.022  0.00  0.00     0.039 A 
ATOM      6  C   UNL d   1      33.185  19.338 -22.465  0.00  0.00     0.089 A 
ATOM      7  N   UNL d   1      33.227  18.550 -22.261  0.00  0.00    -0.238 NA
ATOM      8  C   UNL d   1      33.061  19.382 -23.287  0.00  0.00     0.049 A 
ATOM      9  C   UNL d   1      33.133  18.106 -22.929  0.00  0.00     0.111 A 
ATOM     10  C   UNL d   1      33.139  17.280 -22.971  0.00  0.00     0.028 C 
ATOM     11  S   UNL d   1      33.033  18.599 -23.551  0.00  0.00    -0.066 SA
ATOM     12  C   UNL d   1      32.996  20.113 -23.655  0.00  0.00     0.010 A 
ATOM     13  C   UNL d   1      33.052  20.807 -23.212  0.00  0.00     0.020 A 
ENDBRANCH   2   4
BRANCH   1  14
ATOM     14  C   UNL d   1      32.525  22.356 -20.984  0.00  0.00     0.089 A 
ATOM     15  S   UNL d   1      32.583  22.345 -20.177  0.00  0.00    -0.059 SA
ATOM     16  C   UNL d   1      32.532  23.154 -19.938  0.00  0.00     0.156 A 
ATOM     17  C   UNL d   1      32.448  23.617 -20.568  0.00  0.00     0.031 A 
ATOM     18  C   UNL d   1      32.440  23.138 -21.243  0.00  0.00     0.014 A 
BRANCH  16  19
ATOM     19  N   UNL d   1      32.561  23.444 -19.180  0.00  0.00    -0.107 N 
ATOM     20  O   UNL d   1      33.239  23.535 -18.706  0.00  0.00    -0.531 OA
ATOM     21  O   UNL d   1      31.901  23.697 -18.760  0.00  0.00    -0.531 OA
ENDBRANCH  16  19
ENDBRANCH   1  14
TORSDOF 3
ENDMDL
MODEL 5
REMARK VINA RESULT:      -2.1      2.417      5.878
REMARK  3 active torsions:
REMARK  status: ('A' for Active; 'I' for Inactive)
REMARK    1  A    between atoms: N_2  and  C_1 
REMARK    2  A    between atoms: C_6  and  C_5 
REMARK       I    between atoms: N_13  and  C_6 
REMARK    3  A    between atoms: C_17  and  N_13 
ROOT
ATOM      1  C   UNL d   1      32.742  19.864 -22.262  0.00  0.00     0.285 C 
ATOM      2  N   UNL d   1      32.704  19.669 -23.098  0.00  0.00    -0.208 NA
ATOM      3  O   UNL d   1      32.682  19.316 -21.680  0.00  0.00    -0.265 OA
ENDROOT
BRANCH   2   4
ATOM      4  C   UNL d   1      32.594  18.830 -23.283  0.00  0.00     0.086 A 
ATOM      5  C   UNL d   1      31.831  18.540 -23.441  0.00  0.00     0.039 A 
ATOM      6  C   UNL d   1      31.727  17.740 -23.617  0.00  0.00     0.089 A 
ATOM      7  N   UNL d   1      31.065  17.298 -23.792  0.00  0.00    -0.238 NA
ATOM      8  C   UNL d   1      32.385  17.232 -23.636  0.00  0.00     0.049 A 
ATOM      9  C   UNL d   1      31.293  16.533 -23.919  0.00  0.00     0.111 A 
ATOM     10  C   UNL d   1      30.796  15.902 -24.112  0.00  0.00     0.028 C 
ATOM     11  S   UNL d   1      32.086  16.486 -23.827  0.00  0.00    -0.066 SA
ATOM     12  C   UNL d   1      33.136  17.526 -23.480  0.00  0.00     0.010 A 
ATOM     13  C   UNL d   1      33.241  18.325 -23.303  0.00  0.00     0.020 A 
ENDBRANCH   2   4
BRANCH   1  14
ATOM     14  C   UNL d   1      32.844  20.633 -22.004  0.00  0.00     0.089 A 
ATOM     15  S   UNL d   1      32.567  20.912 -21.296  0.00  0.00    -0.059 SA
ATOM     16  C   UNL d   1      32.800  21.723 -21.270  0.00  0.00     0.156 A 
ATOM     17  C   UNL d   1      33.193  21.914 -21.925  0.00  0.00     0.031 A 
ATOM     18  C   UNL d   1      33.234  21.242 -22.407  0.00  0.00     0.014 A 
BRANCH  16  19
ATOM     19  N   UNL d   1      32.657  22.255 -20.673  0.00  0.00    -0.107 N 
ATOM     20  O   UNL d   1      32.084  22.858 -20.668  0.00  0.00    -0.531 OA
ATOM     21  O   UNL d   1      33.074  22.272 -19.964  0.00  0.00    -0.531 OA
ENDBRANCH  16  19
ENDBRANCH   1  14
TORSDOF 3
ENDMDL
