MODEL 1
REMARK VINA RESULT:      22.5      0.000      0.000
REMARK  9 active torsions:
REMARK  status: ('A' for Active; 'I' for Inactive)
REMARK    1  A    between atoms: N_4  and  C_1 
REMARK       I    between atoms: C_7  and  N_4 
REMARK    2  A    between atoms: C_13  and  C_7 
REMARK    3  A    between atoms: C_8  and  C_14 
REMARK    4  A    between atoms: O_12  and  C_8 
REMARK    5  A    between atoms: S_11  and  C_13 
REMARK    6  A    between atoms: C_14  and  S_11 
REMARK    7  A    between atoms: C_16  and  O_12 
REMARK    8  A    between atoms: C_17  and  C_16 
REMARK    9  A    between atoms: C_18  and  C_17 
ROOT
ATOM      1  C   UNL d   1     -56.032 -99.545 -44.618  0.00  0.00     0.127 C 
ENDROOT
BRANCH   1   2
ATOM      2  S   UNL d   1     -56.434 -98.901 -44.295  0.00  0.00    -0.089 SA
BRANCH   2   3
ATOM      3  C   UNL d   1     -57.024 -99.023 -43.733  0.00  0.00     0.103 C 
BRANCH   3   4
ATOM      4  C   UNL d   1     -57.808 -98.858 -43.914  0.00  0.00     0.307 C 
ATOM      5  O   UNL d   1     -58.362 -98.777 -43.315  0.00  0.00    -0.258 OA
BRANCH   4   6
ATOM      6  O   UNL d   1     -58.032 -98.776 -44.697  0.00  0.00    -0.271 OA
BRANCH   6   7
ATOM      7  C   UNL d   1     -58.830 -98.778 -44.905  0.00  0.00     0.126 C 
BRANCH   7   8
ATOM      8  C   UNL d   1     -59.063 -99.063 -45.644  0.00  0.00     0.027 C 
BRANCH   8   9
ATOM      9  C   UNL d   1     -59.735 -98.756 -46.010  0.00  0.00     0.002 C 
ATOM     10  C   UNL d   1     -59.945 -98.999 -46.758  0.00  0.00     0.000 C 
ENDBRANCH   8   9
ENDBRANCH   7   8
ENDBRANCH   6   7
ENDBRANCH   4   6
ENDBRANCH   3   4
ENDBRANCH   2   3
ENDBRANCH   1   2
BRANCH   1  11
ATOM     11  C   UNL d   1     -55.254 -99.460 -44.879  0.00  0.00     0.275 C 
ATOM     12  N   UNL d   1     -54.724-100.075 -44.784  0.00  0.00    -0.187 NA
ATOM     13  O   UNL d   1     -55.014 -98.755 -45.235  0.00  0.00    -0.266 OA
BRANCH  12  14
ATOM     14  C   UNL d   1     -54.965-100.780 -44.429  0.00  0.00     0.194 A 
ATOM     15  N   UNL d   1     -54.752-101.036 -43.675  0.00  0.00    -0.107 NA
ATOM     16  O   UNL d   1     -55.115-101.765 -43.548  0.00  0.00    -0.210 OA
ATOM     17  C   UNL d   1     -55.550-101.966 -44.207  0.00  0.00     0.128 A 
ATOM     18  C   UNL d   1     -55.460-101.357 -44.759  0.00  0.00     0.068 A 
ATOM     19  C   UNL d   1     -56.000-102.660 -44.303  0.00  0.00     0.029 C 
ENDBRANCH  12  14
ENDBRANCH   1  11
TORSDOF 9
ENDMDL
MODEL 2
REMARK VINA RESULT:      23.4      1.601      4.314
REMARK  9 active torsions:
REMARK  status: ('A' for Active; 'I' for Inactive)
REMARK    1  A    between atoms: N_4  and  C_1 
REMARK       I    between atoms: C_7  and  N_4 
REMARK    2  A    between atoms: C_13  and  C_7 
REMARK    3  A    between atoms: C_8  and  C_14 
REMARK    4  A    between atoms: O_12  and  C_8 
REMARK    5  A    between atoms: S_11  and  C_13 
REMARK    6  A    between atoms: C_14  and  S_11 
REMARK    7  A    between atoms: C_16  and  O_12 
REMARK    8  A    between atoms: C_17  and  C_16 
REMARK    9  A    between atoms: C_18  and  C_17 
ROOT
ATOM      1  C   UNL d   1     -55.379 -99.454 -44.181  0.00  0.00     0.127 C 
ENDROOT
BRANCH   1   2
ATOM      2  S   UNL d   1     -54.775-100.006 -44.070  0.00  0.00    -0.089 SA
BRANCH   2   3
ATOM      3  C   UNL d   1     -54.794-100.723 -44.477  0.00  0.00     0.103 C 
BRANCH   3   4
ATOM      4  C   UNL d   1     -54.977-101.419 -44.081  0.00  0.00     0.307 C 
ATOM      5  O   UNL d   1     -55.294-102.055 -44.489  0.00  0.00    -0.258 OA
BRANCH   4   6
ATOM      6  O   UNL d   1     -54.841-101.471 -43.276  0.00  0.00    -0.271 OA
BRANCH   6   7
ATOM      7  C   UNL d   1     -55.251-102.022 -42.819  0.00  0.00     0.126 C 
BRANCH   7   8
ATOM      8  C   UNL d   1     -54.886-102.369 -42.165  0.00  0.00     0.027 C 
BRANCH   8   9
ATOM      9  C   UNL d   1     -54.959-102.021 -41.420  0.00  0.00     0.002 C 
ATOM     10  C   UNL d   1     -54.717-102.420 -40.753  0.00  0.00     0.000 C 
ENDBRANCH   8   9
ENDBRANCH   7   8
ENDBRANCH   6   7
ENDBRANCH   4   6
ENDBRANCH   3   4
ENDBRANCH   2   3
ENDBRANCH   1   2
BRANCH   1  11
ATOM     11  C   UNL d   1     -55.487 -99.102 -44.919  0.00  0.00     0.275 C 
ATOM     12  N   UNL d   1     -56.205 -98.757 -45.103  0.00  0.00    -0.187 NA
ATOM     13  O   UNL d   1     -54.871 -99.099 -45.469  0.00  0.00    -0.266 OA
BRANCH  12  14
ATOM     14  C   UNL d   1     -56.820 -98.759 -44.554  0.00  0.00     0.194 A 
ATOM     15  N   UNL d   1     -56.734 -98.759 -43.734  0.00  0.00    -0.107 NA
ATOM     16  O   UNL d   1     -57.490 -98.762 -43.404  0.00  0.00    -0.210 OA
ATOM     17  C   UNL d   1     -58.043 -98.764 -44.003  0.00  0.00     0.128 A 
ATOM     18  C   UNL d   1     -57.632 -98.763 -44.720  0.00  0.00     0.068 A 
ATOM     19  C   UNL d   1     -58.870 -98.768 -43.904  0.00  0.00     0.029 C 
ENDBRANCH  12  14
ENDBRANCH   1  11
TORSDOF 9
ENDMDL
