MODEL 1
REMARK VINA RESULT:      -9.6      0.000      0.000
REMARK  2 active torsions:
REMARK  status: ('A' for Active; 'I' for Inactive)
REMARK    1  A    between atoms: N_5  and  C_1 
REMARK       I    between atoms: C_4  and  N_5 
REMARK    2  A    between atoms: C_7  and  C_4 
ROOT
ATOM      1  C   UNL d   1      53.654  31.654  53.617  0.00  0.00     0.060 A 
ATOM      2  C   UNL d   1      54.124  32.547  54.653  0.00  0.00     0.123 A 
ATOM      3  C   UNL d   1      53.648  31.923  54.403  0.00  0.00     0.032 A 
ATOM      4  C   UNL d   1      54.629  32.922  54.107  0.00  0.00     0.123 A 
ATOM      5  O   UNL d   1      54.113  32.806  55.426  0.00  0.00    -0.301 OA
ATOM      6  O   UNL d   1      55.106  33.539  54.339  0.00  0.00    -0.301 OA
ATOM      7  C   UNL d   1      54.153  32.025  53.078  0.00  0.00     0.007 A 
ATOM      8  C   UNL d   1      54.645  32.665  53.327  0.00  0.00     0.027 A 
ATOM      9  C   UNL d   1      54.585  33.429  55.689  0.00  0.00     0.149 A 
ATOM     10  C   UNL d   1      55.093  33.808  55.145  0.00  0.00     0.149 A 
ENDROOT
BRANCH   1  11
ATOM     11  C   UNL d   1      53.176  31.035  53.383  0.00  0.00     0.281 C 
ATOM     12  N   UNL d   1      52.468  31.227  52.996  0.00  0.00    -0.187 NA
ATOM     13  O   UNL d   1      53.335  30.181  53.498  0.00  0.00    -0.265 OA
BRANCH  12  14
ATOM     14  C   UNL d   1      52.271  32.042  52.862  0.00  0.00     0.194 A 
ATOM     15  N   UNL d   1      52.629  32.553  52.320  0.00  0.00    -0.107 NA
ATOM     16  O   UNL d   1      52.264  33.292  52.377  0.00  0.00    -0.210 OA
ATOM     17  C   UNL d   1      51.670  33.245  52.961  0.00  0.00     0.128 A 
ATOM     18  C   UNL d   1      51.683  32.462  53.257  0.00  0.00     0.068 A 
ATOM     19  C   UNL d   1      51.173  33.858  53.194  0.00  0.00     0.029 C 
ENDBRANCH  12  14
ENDBRANCH   1  11
TORSDOF 2
ENDMDL
MODEL 2
REMARK VINA RESULT:      -9.2      1.612      3.452
REMARK  2 active torsions:
REMARK  status: ('A' for Active; 'I' for Inactive)
REMARK    1  A    between atoms: N_5  and  C_1 
REMARK       I    between atoms: C_4  and  N_5 
REMARK    2  A    between atoms: C_7  and  C_4 
ROOT
ATOM      1  C   UNL d   1      53.006  34.313  54.202  0.00  0.00     0.060 A 
ATOM      2  C   UNL d   1      51.751  34.023  53.546  0.00  0.00     0.123 A 
ATOM      3  C   UNL d   1      52.235  34.005  54.212  0.00  0.00     0.032 A 
ATOM      4  C   UNL d   1      52.036  34.357  52.839  0.00  0.00     0.123 A 
ATOM      5  O   UNL d   1      50.994  33.719  53.564  0.00  0.00    -0.301 OA
ATOM      6  O   UNL d   1      51.570  34.381  52.173  0.00  0.00    -0.301 OA
ATOM      7  C   UNL d   1      53.289  34.644  53.502  0.00  0.00     0.007 A 
ATOM      8  C   UNL d   1      52.798  34.665  52.816  0.00  0.00     0.027 A 
ATOM      9  C   UNL d   1      50.499  33.730  52.905  0.00  0.00     0.149 A 
ATOM     10  C   UNL d   1      50.782  34.064  52.193  0.00  0.00     0.149 A 
ENDROOT
BRANCH   1  11
ATOM     11  C   UNL d   1      53.476  34.289  54.869  0.00  0.00     0.281 C 
ATOM     12  N   UNL d   1      53.988  33.641  54.951  0.00  0.00    -0.187 NA
ATOM     13  O   UNL d   1      53.497  34.882  55.513  0.00  0.00    -0.265 OA
BRANCH  12  14
ATOM     14  C   UNL d   1      54.002  33.041  54.351  0.00  0.00     0.194 A 
ATOM     15  N   UNL d   1      54.327  33.107  53.594  0.00  0.00    -0.107 NA
ATOM     16  O   UNL d   1      54.218  32.391  53.197  0.00  0.00    -0.210 OA
ATOM     17  C   UNL d   1      53.819  31.867  53.711  0.00  0.00     0.128 A 
ATOM     18  C   UNL d   1      53.690  32.283  54.426  0.00  0.00     0.068 A 
ATOM     19  C   UNL d   1      53.600  31.094  53.537  0.00  0.00     0.029 C 
ENDBRANCH  12  14
ENDBRANCH   1  11
TORSDOF 2
ENDMDL
MODEL 3
REMARK VINA RESULT:      -8.9      1.427      2.572
REMARK  2 active torsions:
REMARK  status: ('A' for Active; 'I' for Inactive)
REMARK    1  A    between atoms: N_5  and  C_1 
REMARK       I    between atoms: C_4  and  N_5 
REMARK    2  A    between atoms: C_7  and  C_4 
ROOT
ATOM      1  C   UNL d   1      54.330  33.216  54.551  0.00  0.00     0.060 A 
ATOM      2  C   UNL d   1      53.763  31.912  54.287  0.00  0.00     0.123 A 
ATOM      3  C   UNL d   1      53.860  32.568  54.775  0.00  0.00     0.032 A 
ATOM      4  C   UNL d   1      54.143  31.890  53.547  0.00  0.00     0.123 A 
ATOM      5  O   UNL d   1      53.301  31.280  54.514  0.00  0.00    -0.301 OA
ATOM      6  O   UNL d   1      54.057  31.249  53.054  0.00  0.00    -0.301 OA
ATOM      7  C   UNL d   1      54.706  33.194  53.818  0.00  0.00     0.007 A 
ATOM      8  C   UNL d   1      54.611  32.525  53.313  0.00  0.00     0.027 A 
ATOM      9  C   UNL d   1      53.195  30.617  54.036  0.00  0.00     0.149 A 
ATOM     10  C   UNL d   1      53.575  30.591  53.292  0.00  0.00     0.149 A 
ENDROOT
BRANCH   1  11
ATOM     11  C   UNL d   1      54.418  33.860  55.044  0.00  0.00     0.281 C 
ATOM     12  N   UNL d   1      53.938  34.521  54.895  0.00  0.00    -0.187 NA
ATOM     13  O   UNL d   1      54.971  33.928  55.719  0.00  0.00    -0.265 OA
BRANCH  12  14
ATOM     14  C   UNL d   1      53.387  34.501  54.250  0.00  0.00     0.194 A 
ATOM     15  N   UNL d   1      53.566  34.552  53.445  0.00  0.00    -0.107 NA
ATOM     16  O   UNL d   1      52.861  34.509  53.016  0.00  0.00    -0.210 OA
ATOM     17  C   UNL d   1      52.231  34.430  53.557  0.00  0.00     0.128 A 
ATOM     18  C   UNL d   1      52.570  34.425  54.323  0.00  0.00     0.068 A 
ATOM     19  C   UNL d   1      51.434  34.368  53.364  0.00  0.00     0.029 C 
ENDBRANCH  12  14
ENDBRANCH   1  11
TORSDOF 2
ENDMDL
MODEL 4
REMARK VINA RESULT:      -8.6      0.812      2.034
REMARK  2 active torsions:
REMARK  status: ('A' for Active; 'I' for Inactive)
REMARK    1  A    between atoms: N_5  and  C_1 
REMARK       I    between atoms: C_4  and  N_5 
REMARK    2  A    between atoms: C_7  and  C_4 
ROOT
ATOM      1  C   UNL d   1      53.022  32.706  53.254  0.00  0.00     0.060 A 
ATOM      2  C   UNL d   1      53.701  33.060  54.480  0.00  0.00     0.123 A 
ATOM      3  C   UNL d   1      53.013  32.875  54.067  0.00  0.00     0.032 A 
ATOM      4  C   UNL d   1      54.430  33.078  54.079  0.00  0.00     0.123 A 
ATOM      5  O   UNL d   1      53.684  33.225  55.279  0.00  0.00    -0.301 OA
ATOM      6  O   UNL d   1      55.117  33.258  54.473  0.00  0.00    -0.301 OA
ATOM      7  C   UNL d   1      53.743  32.724  52.856  0.00  0.00     0.007 A 
ATOM      8  C   UNL d   1      54.452  32.912  53.273  0.00  0.00     0.027 A 
ATOM      9  C   UNL d   1      54.365  33.411  55.705  0.00  0.00     0.149 A 
ATOM     10  C   UNL d   1      55.098  33.431  55.305  0.00  0.00     0.149 A 
ENDROOT
BRANCH   1  11
ATOM     11  C   UNL d   1      52.333  32.524  52.856  0.00  0.00     0.281 C 
ATOM     12  N   UNL d   1      52.176  31.722  52.712  0.00  0.00    -0.187 NA
ATOM     13  O   UNL d   1      51.736  33.093  52.562  0.00  0.00    -0.265 OA
BRANCH  12  14
ATOM     14  C   UNL d   1      52.727  31.134  52.979  0.00  0.00     0.194 A 
ATOM     15  N   UNL d   1      53.486  30.997  52.680  0.00  0.00    -0.107 NA
ATOM     16  O   UNL d   1      53.825  30.373  53.104  0.00  0.00    -0.210 OA
ATOM     17  C   UNL d   1      53.273  30.115  53.675  0.00  0.00     0.128 A 
ATOM     18  C   UNL d   1      52.594  30.597  53.588  0.00  0.00     0.068 A 
ATOM     19  C   UNL d   1      53.387  29.505  54.214  0.00  0.00     0.029 C 
ENDBRANCH  12  14
ENDBRANCH   1  11
TORSDOF 2
ENDMDL
MODEL 5
REMARK VINA RESULT:      -8.3      0.975      2.887
REMARK  2 active torsions:
REMARK  status: ('A' for Active; 'I' for Inactive)
REMARK    1  A    between atoms: N_5  and  C_1 
REMARK       I    between atoms: C_4  and  N_5 
REMARK    2  A    between atoms: C_7  and  C_4 
ROOT
ATOM      1  C   UNL d   1      52.661  32.106  53.056  0.00  0.00     0.060 A 
ATOM      2  C   UNL d   1      51.605  33.072  53.260  0.00  0.00     0.123 A 
ATOM      3  C   UNL d   1      51.953  32.343  53.420  0.00  0.00     0.032 A 
ATOM      4  C   UNL d   1      51.968  33.592  52.719  0.00  0.00     0.123 A 
ATOM      5  O   UNL d   1      50.910  33.299  53.621  0.00  0.00    -0.301 OA
ATOM      6  O   UNL d   1      51.637  34.315  52.551  0.00  0.00    -0.301 OA
ATOM      7  C   UNL d   1      53.021  32.619  52.521  0.00  0.00     0.007 A 
ATOM      8  C   UNL d   1      52.670  33.368  52.353  0.00  0.00     0.027 A 
ATOM      9  C   UNL d   1      50.551  34.025  53.470  0.00  0.00     0.149 A 
ATOM     10  C   UNL d   1      50.912  34.549  52.928  0.00  0.00     0.149 A 
ENDROOT
BRANCH   1  11
ATOM     11  C   UNL d   1      52.996  31.380  53.224  0.00  0.00     0.281 C 
ATOM     12  N   UNL d   1      53.667  31.374  53.711  0.00  0.00    -0.187 NA
ATOM     13  O   UNL d   1      52.718  30.600  52.939  0.00  0.00    -0.265 OA
BRANCH  12  14
ATOM     14  C   UNL d   1      53.973  32.108  54.011  0.00  0.00     0.194 A 
ATOM     15  N   UNL d   1      54.393  32.678  53.585  0.00  0.00    -0.107 NA
ATOM     16  O   UNL d   1      54.582  33.300  54.095  0.00  0.00    -0.210 OA
ATOM     17  C   UNL d   1      54.277  33.118  54.851  0.00  0.00     0.128 A 
ATOM     18  C   UNL d   1      53.900  32.373  54.787  0.00  0.00     0.068 A 
ATOM     19  C   UNL d   1      54.342  33.588  55.523  0.00  0.00     0.029 C 
ENDBRANCH  12  14
ENDBRANCH   1  11
TORSDOF 2
ENDMDL
MODEL 6
REMARK VINA RESULT:      -7.7      1.529      3.406
REMARK  2 active torsions:
REMARK  status: ('A' for Active; 'I' for Inactive)
REMARK    1  A    between atoms: N_5  and  C_1 
REMARK       I    between atoms: C_4  and  N_5 
REMARK    2  A    between atoms: C_7  and  C_4 
ROOT
ATOM      1  C   UNL d   1      52.346  33.563  53.016  0.00  0.00     0.060 A 
ATOM      2  C   UNL d   1      52.743  32.185  52.831  0.00  0.00     0.123 A 
ATOM      3  C   UNL d   1      52.864  32.990  52.710  0.00  0.00     0.032 A 
ATOM      4  C   UNL d   1      52.085  31.930  53.274  0.00  0.00     0.123 A 
ATOM      5  O   UNL d   1      53.255  31.628  52.528  0.00  0.00    -0.301 OA
ATOM      6  O   UNL d   1      51.952  31.138  53.403  0.00  0.00    -0.301 OA
ATOM      7  C   UNL d   1      51.695  33.311  53.453  0.00  0.00     0.007 A 
ATOM      8  C   UNL d   1      51.565  32.488  53.582  0.00  0.00     0.027 A 
ATOM      9  C   UNL d   1      53.146  30.819  52.642  0.00  0.00     0.149 A 
ATOM     10  C   UNL d   1      52.487  30.559  53.085  0.00  0.00     0.149 A 
ENDROOT
BRANCH   1  11
ATOM     11  C   UNL d   1      52.478  34.358  52.888  0.00  0.00     0.281 C 
ATOM     12  N   UNL d   1      52.933  34.764  53.451  0.00  0.00    -0.187 NA
ATOM     13  O   UNL d   1      52.187  34.832  52.212  0.00  0.00    -0.265 OA
BRANCH  12  14
ATOM     14  C   UNL d   1      53.238  34.345  54.123  0.00  0.00     0.194 A 
ATOM     15  N   UNL d   1      52.805  34.076  54.775  0.00  0.00    -0.107 NA
ATOM     16  O   UNL d   1      53.324  33.698  55.296  0.00  0.00    -0.210 OA
ATOM     17  C   UNL d   1      54.091  33.729  54.968  0.00  0.00     0.128 A 
ATOM     18  C   UNL d   1      54.025  34.134  54.238  0.00  0.00     0.068 A 
ATOM     19  C   UNL d   1      54.773  33.418  55.306  0.00  0.00     0.029 C 
ENDBRANCH  12  14
ENDBRANCH   1  11
TORSDOF 2
ENDMDL
