MODEL 1
REMARK VINA RESULT:      -5.3      0.000      0.000
REMARK  6 active torsions:
REMARK  status: ('A' for Active; 'I' for Inactive)
REMARK    1  A    between atoms: N_2  and  S_1 
REMARK    2  A    between atoms: C_3  and  S_1 
REMARK    3  A    between atoms: C_6  and  N_2 
REMARK    4  A    between atoms: C_12  and  C_6 
REMARK    5  A    between atoms: O_10  and  C_11 
REMARK    6  A    between atoms: C_15  and  O_10 
ROOT
ATOM      1  C   UNL d   1     -41.624-122.268 -50.958  0.00  0.00     0.105 A 
ATOM      2  C   UNL d   1     -41.123-122.860 -50.671  0.00  0.00     0.015 A 
ATOM      3  C   UNL d   1     -42.392-122.193 -50.644  0.00  0.00     0.015 A 
ATOM      4  C   UNL d   1     -42.135-123.293 -49.774  0.00  0.00     0.100 A 
ATOM      5  C   UNL d   1     -42.645-122.706 -50.053  0.00  0.00     0.025 A 
ATOM      6  C   UNL d   1     -41.378-123.370 -50.081  0.00  0.00     0.025 A 
ENDROOT
BRANCH   1   7
ATOM      7  S   UNL d   1     -41.374-121.752 -51.550  0.00  0.00     0.285 S 
ATOM      8  O   UNL d   1     -41.272-121.161 -50.988  0.00  0.00    -0.198 OA
ATOM      9  O   UNL d   1     -41.124-121.235 -52.139  0.00  0.00    -0.198 OA
BRANCH   7  10
ATOM     10  N   UNL d   1     -41.477-122.350 -52.120  0.00  0.00    -0.155 NA
BRANCH  10  11
ATOM     11  C   UNL d   1     -41.129-122.268 -52.868  0.00  0.00     0.137 C 
BRANCH  11  12
ATOM     12  C   UNL d   1     -41.386-122.748 -53.492  0.00  0.00     0.120 A 
ATOM     13  O   UNL d   1     -41.488-123.570 -53.478  0.00  0.00    -0.304 OA
ATOM     14  C   UNL d   1     -41.752-123.804 -54.224  0.00  0.00     0.123 A 
ATOM     15  C   UNL d   1     -41.814-123.140 -54.697  0.00  0.00     0.029 A 
ATOM     16  C   UNL d   1     -41.589-122.485 -54.249  0.00  0.00     0.028 A 
ENDBRANCH  11  12
ENDBRANCH  10  11
ENDBRANCH   7  10
ENDBRANCH   1   7
BRANCH   4  17
ATOM     17  O   UNL d   1     -42.391-123.812 -49.176  0.00  0.00    -0.307 OA
BRANCH  17  18
ATOM     18  C   UNL d   1     -42.213-123.644 -48.383  0.00  0.00     0.100 A 
ATOM     19  C   UNL d   1     -42.813-123.421 -47.854  0.00  0.00     0.025 A 
ATOM     20  C   UNL d   1     -42.629-123.254 -47.067  0.00  0.00     0.002 A 
ATOM     21  C   UNL d   1     -41.848-123.309 -46.807  0.00  0.00     0.000 A 
ATOM     22  C   UNL d   1     -41.248-123.532 -47.337  0.00  0.00     0.002 A 
ATOM     23  C   UNL d   1     -41.431-123.699 -48.124  0.00  0.00     0.025 A 
ENDBRANCH  17  18
ENDBRANCH   4  17
TORSDOF 6
ENDMDL
MODEL 2
REMARK VINA RESULT:      -4.5      0.751      1.185
REMARK  6 active torsions:
REMARK  status: ('A' for Active; 'I' for Inactive)
REMARK    1  A    between atoms: N_2  and  S_1 
REMARK    2  A    between atoms: C_3  and  S_1 
REMARK    3  A    between atoms: C_6  and  N_2 
REMARK    4  A    between atoms: C_12  and  C_6 
REMARK    5  A    between atoms: O_10  and  C_11 
REMARK    6  A    between atoms: C_15  and  O_10 
ROOT
ATOM      1  C   UNL d   1     -41.592-121.979 -51.453  0.00  0.00     0.105 A 
ATOM      2  C   UNL d   1     -42.283-121.891 -51.007  0.00  0.00     0.015 A 
ATOM      3  C   UNL d   1     -41.123-122.659 -51.353  0.00  0.00     0.015 A 
ATOM      4  C   UNL d   1     -42.043-123.139 -50.374  0.00  0.00     0.100 A 
ATOM      5  C   UNL d   1     -41.350-123.237 -50.813  0.00  0.00     0.025 A 
ATOM      6  C   UNL d   1     -42.507-122.470 -50.470  0.00  0.00     0.025 A 
ENDROOT
BRANCH   1   7
ATOM      7  S   UNL d   1     -41.362-121.402 -51.995  0.00  0.00     0.285 S 
ATOM      8  O   UNL d   1     -41.122-120.918 -51.373  0.00  0.00    -0.198 OA
ATOM      9  O   UNL d   1     -41.131-120.823 -52.533  0.00  0.00    -0.198 OA
BRANCH   7  10
ATOM     10  N   UNL d   1     -41.603-121.890 -52.624  0.00  0.00    -0.155 NA
BRANCH  10  11
ATOM     11  C   UNL d   1     -41.444-121.661 -53.405  0.00  0.00     0.137 C 
BRANCH  11  12
ATOM     12  C   UNL d   1     -41.784-122.085 -54.031  0.00  0.00     0.120 A 
ATOM     13  O   UNL d   1     -42.455-121.874 -54.468  0.00  0.00    -0.304 OA
ATOM     14  C   UNL d   1     -42.584-122.462 -55.031  0.00  0.00     0.123 A 
ATOM     15  C   UNL d   1     -42.003-123.033 -54.948  0.00  0.00     0.029 A 
ATOM     16  C   UNL d   1     -41.507-122.803 -54.331  0.00  0.00     0.028 A 
ENDBRANCH  11  12
ENDBRANCH  10  11
ENDBRANCH   7  10
ENDBRANCH   1   7
BRANCH   4  17
ATOM     17  O   UNL d   1     -42.273-123.723 -49.827  0.00  0.00    -0.307 OA
BRANCH  17  18
ATOM     18  C   UNL d   1     -42.146-123.599 -49.017  0.00  0.00     0.100 A 
ATOM     19  C   UNL d   1     -41.414-123.786 -48.670  0.00  0.00     0.025 A 
ATOM     20  C   UNL d   1     -41.295-123.660 -47.864  0.00  0.00     0.002 A 
ATOM     21  C   UNL d   1     -41.904-123.348 -47.402  0.00  0.00     0.000 A 
ATOM     22  C   UNL d   1     -42.635-123.162 -47.749  0.00  0.00     0.002 A 
ATOM     23  C   UNL d   1     -42.755-123.288 -48.556  0.00  0.00     0.025 A 
ENDBRANCH  17  18
ENDBRANCH   4  17
TORSDOF 6
ENDMDL
