MODEL 1
REMARK VINA RESULT:      57.2      0.000      0.000
REMARK  8 active torsions:
REMARK  status: ('A' for Active; 'I' for Inactive)
REMARK    1  A    between atoms: C_9  and  N_1 
REMARK    2  A    between atoms: C_7  and  C_2 
REMARK    3  A    between atoms: C_6  and  C_4 
REMARK    4  A    between atoms: C_8  and  C_11 
REMARK       I    between atoms: N_23  and  C_8 
REMARK    5  A    between atoms: C_26  and  N_23 
REMARK    6  A    between atoms: C_24  and  C_26 
REMARK    7  A    between atoms: C_27  and  C_24 
REMARK    8  A    between atoms: O_25  and  C_27 
ROOT
ATOM      1  N   UNL d   1     -51.135  25.741  33.680  0.00  0.00    -0.229 N 
ATOM      2  C   UNL d   1     -50.963  24.942  33.489  0.00  0.00     0.090 A 
ATOM      3  N   UNL d   1     -51.941  25.833  33.660  0.00  0.00    -0.161 NA
ATOM      4  C   UNL d   1     -52.293  25.109  33.460  0.00  0.00     0.174 A 
ATOM      5  C   UNL d   1     -51.679  24.556  33.354  0.00  0.00     0.044 A 
ENDROOT
BRANCH   1   6
ATOM      6  C   UNL d   1     -50.585  26.327  33.856  0.00  0.00     0.083 A 
ATOM      7  C   UNL d   1     -50.198  26.324  34.586  0.00  0.00     0.019 A 
ATOM      8  C   UNL d   1     -49.645  26.908  34.769  0.00  0.00     0.006 A 
ATOM      9  C   UNL d   1     -49.481  27.501  34.212  0.00  0.00     0.058 A 
ATOM     10  C   UNL d   1     -49.872  27.503  33.478  0.00  0.00     0.006 A 
ATOM     11  C   UNL d   1     -50.418  26.919  33.306  0.00  0.00     0.019 A 
BRANCH   9  12
ATOM     12  C   UNL d   1     -48.925  28.093  34.392  0.00  0.00     0.279 C 
ATOM     13  O   UNL d   1     -48.922  28.801  33.972  0.00  0.00    -0.265 OA
ATOM     14  N   UNL d   1     -48.375  27.970  34.990  0.00  0.00    -0.206 NA
BRANCH  14  15
ATOM     15  C   UNL d   1     -47.822  28.550  35.173  0.00  0.00     0.104 C 
BRANCH  15  16
ATOM     16  C   UNL d   1     -48.051  29.238  35.565  0.00  0.00     0.047 C 
BRANCH  16  17
ATOM     17  C   UNL d   1     -47.479  29.780  35.824  0.00  0.00     0.118 C 
BRANCH  17  18
ATOM     18  O   UNL d   1     -47.553  30.115  36.575  0.00  0.00    -0.326 OA
ATOM     19  C   UNL d   1     -46.921  30.549  36.899  0.00  0.00     0.181 C 
ENDBRANCH  17  18
ENDBRANCH  16  17
ENDBRANCH  15  16
ENDBRANCH  14  15
ENDBRANCH   9  12
ENDBRANCH   1   6
BRANCH   2  20
ATOM     20  C   UNL d   1     -50.251  24.528  33.423  0.00  0.00     0.047 A 
ATOM     21  S   UNL d   1     -49.421  24.612  33.376  0.00  0.00    -0.085 SA
ATOM     22  C   UNL d   1     -49.093  23.852  33.316  0.00  0.00     0.035 A 
ATOM     23  C   UNL d   1     -49.715  23.315  33.325  0.00  0.00     0.007 A 
ATOM     24  C   UNL d   1     -50.423  23.727  33.391  0.00  0.00     0.009 A 
ENDBRANCH   2  20
BRANCH   4  25
ATOM     25  C   UNL d   1     -53.100  24.958  33.379  0.00  0.00     0.437 C 
ATOM     26  F   UNL d   1     -53.838  24.824  33.306  0.00  0.00    -0.164 F 
ATOM     27  F   UNL d   1     -53.754  25.518  33.340  0.00  0.00    -0.164 F 
ATOM     28  F   UNL d   1     -53.513  24.200  33.312  0.00  0.00    -0.164 F 
ENDBRANCH   4  25
TORSDOF 8
ENDMDL
