MODEL 1
REMARK VINA RESULT:      -5.0      0.000      0.000
REMARK  9 active torsions:
REMARK  status: ('A' for Active; 'I' for Inactive)
REMARK    1  A    between atoms: C_21  and  N_1 
REMARK    2  A    between atoms: S_17  and  C_3 
REMARK    3  A    between atoms: C_16  and  C_32 
REMARK       I    between atoms: N_19  and  C_16 
REMARK    4  A    between atoms: C_29  and  S_17 
REMARK    5  A    between atoms: C_22  and  N_19 
REMARK    6  A    between atoms: C_31  and  C_21 
REMARK    7  A    between atoms: C_23  and  C_22 
REMARK    8  A    between atoms: O_30  and  C_24 
REMARK    9  A    between atoms: C_32  and  C_31 
ROOT
ATOM      1  N   UNL d   1     -44.598   9.653  23.698  0.00  0.00    -0.195 NA
ATOM      2  C   UNL d   1     -45.074  10.317  23.599  0.00  0.00     0.086 C 
ATOM      3  C   UNL d   1     -45.563  10.978  23.509  0.00  0.00     0.170 C 
ENDROOT
BRANCH   3   4
ATOM      4  S   UNL d   1     -45.319  11.607  23.037  0.00  0.00    -0.060 SA
BRANCH   4   5
ATOM      5  C   UNL d   1     -45.825  12.278  22.933  0.00  0.00     0.178 A 
ATOM      6  N   UNL d   1     -45.498  12.986  22.706  0.00  0.00    -0.253 N 
ATOM      7  C   UNL d   1     -45.984  13.650  22.602  0.00  0.00     0.268 A 
ATOM      8  C   UNL d   1     -46.806  13.597  22.729  0.00  0.00     0.076 A 
ATOM      9  O   UNL d   1     -45.654  14.367  22.372  0.00  0.00    -0.267 OA
ATOM     10  C   UNL d   1     -47.289  14.259  22.625  0.00  0.00     0.033 A 
ATOM     11  C   UNL d   1     -47.132  12.889  22.957  0.00  0.00     0.090 A 
ATOM     12  C   UNL d   1     -48.121  14.211  22.752  0.00  0.00     0.119 A 
ATOM     13  O   UNL d   1     -48.753  14.769  22.696  0.00  0.00    -0.300 OA
ATOM     14  C   UNL d   1     -48.444  13.501  22.980  0.00  0.00     0.121 A 
ATOM     15  C   UNL d   1     -49.471  14.404  22.889  0.00  0.00     0.304 A 
ATOM     16  O   UNL d   1     -49.272  13.624  23.062  0.00  0.00    -0.299 OA
ATOM     17  C   UNL d   1     -47.953  12.837  23.083  0.00  0.00     0.046 A 
ATOM     18  N   UNL d   1     -46.641  12.224  23.060  0.00  0.00    -0.222 NA
BRANCH   6  19
ATOM     19  C   UNL d   1     -44.662  13.032  22.579  0.00  0.00     0.085 C 
BRANCH  19  20
ATOM     20  C   UNL d   1     -44.377  13.094  21.809  0.00  0.00     0.024 C 
BRANCH  20  21
ATOM     21  C   UNL d   1     -43.591  13.324  21.690  0.00  0.00     0.064 C 
BRANCH  21  22
ATOM     22  C   UNL d   1     -43.189  13.072  21.017  0.00  0.00     0.279 C 
ATOM     23  N   UNL d   1     -42.467  13.415  20.819  0.00  0.00    -0.206 NA
ATOM     24  O   UNL d   1     -43.511  12.475  20.541  0.00  0.00    -0.265 OA
BRANCH  23  25
ATOM     25  C   UNL d   1     -42.151  14.006  21.293  0.00  0.00     0.102 C 
BRANCH  25  26
ATOM     26  C   UNL d   1     -41.458  14.398  21.047  0.00  0.00     0.019 A 
ATOM     27  C   UNL d   1     -40.762  13.990  20.975  0.00  0.00     0.004 A 
ATOM     28  C   UNL d   1     -40.084  14.382  20.732  0.00  0.00     0.024 A 
ATOM     29  C   UNL d   1     -40.101  15.186  20.561  0.00  0.00     0.094 A 
ATOM     30  C   UNL d   1     -40.811  15.597  20.636  0.00  0.00     0.024 A 
ATOM     31  C   UNL d   1     -41.503  15.205  20.882  0.00  0.00     0.004 A 
BRANCH  29  32
ATOM     32  O   UNL d   1     -39.422  15.581  20.318  0.00  0.00    -0.328 OA
ATOM     33  C   UNL d   1     -39.363  15.814  19.529  0.00  0.00     0.181 C 
ENDBRANCH  29  32
ENDBRANCH  25  26
ENDBRANCH  23  25
ENDBRANCH  21  22
ENDBRANCH  20  21
ENDBRANCH  19  20
ENDBRANCH   6  19
ENDBRANCH   4   5
ENDBRANCH   3   4
TORSDOF 9
ENDMDL
