MODEL 1
REMARK VINA RESULT:      75.1      0.000      0.000
REMARK  6 active torsions:
REMARK  status: ('A' for Active; 'I' for Inactive)
REMARK    1  A    between atoms: C_18  and  N_1 
REMARK    2  A    between atoms: S_7  and  C_2 
REMARK    3  A    between atoms: C_20  and  S_7 
REMARK    4  A    between atoms: C_10  and  C_20 
REMARK       I    between atoms: N_13  and  C_10 
REMARK    5  A    between atoms: C_16  and  N_13 
REMARK    6  A    between atoms: C_21  and  C_18 
ROOT
ATOM      1  N   UNL d   1      58.769  49.434  51.137  0.00  0.00    -0.253 N 
ATOM      2  C   UNL d   1      59.245  49.567  50.413  0.00  0.00     0.182 A 
ATOM      3  C   UNL d   1      57.970  49.401  51.085  0.00  0.00     0.268 A 
ATOM      4  N   UNL d   1      58.868  49.650  49.722  0.00  0.00    -0.222 NA
ATOM      5  C   UNL d   1      57.600  49.489  50.369  0.00  0.00     0.074 A 
ATOM      6  C   UNL d   1      58.053  49.616  49.670  0.00  0.00     0.088 A 
ATOM      7  O   UNL d   1      57.534  49.270  51.814  0.00  0.00    -0.267 OA
ATOM      8  C   UNL d   1      56.779  49.454  50.323  0.00  0.00     0.006 A 
ATOM      9  C   UNL d   1      57.667  49.703  48.954  0.00  0.00     0.019 A 
ATOM     10  C   UNL d   1      56.408  49.541  49.610  0.00  0.00     0.000 A 
ATOM     11  C   UNL d   1      56.843  49.667  48.913  0.00  0.00     0.002 A 
ENDROOT
BRANCH   2  12
ATOM     12  S   UNL d   1      60.080  49.604  50.451  0.00  0.00    -0.044 SA
BRANCH  12  13
ATOM     13  C   UNL d   1      60.557  48.888  50.496  0.00  0.00     0.101 C 
BRANCH  13  14
ATOM     14  C   UNL d   1      61.384  48.951  50.474  0.00  0.00     0.286 C 
ATOM     15  N   UNL d   1      61.858  48.299  50.563  0.00  0.00    -0.207 NA
ATOM     16  O   UNL d   1      61.728  49.693  50.359  0.00  0.00    -0.265 OA
BRANCH  15  17
ATOM     17  C   UNL d   1      61.514  47.542  50.680  0.00  0.00     0.087 A 
ATOM     18  C   UNL d   1      61.770  46.923  50.190  0.00  0.00     0.045 A 
ATOM     19  C   UNL d   1      61.442  46.169  50.291  0.00  0.00     0.121 A 
ATOM     20  O   UNL d   1      61.579  45.455  49.899  0.00  0.00    -0.299 OA
ATOM     21  C   UNL d   1      60.878  46.047  50.867  0.00  0.00     0.119 A 
ATOM     22  C   UNL d   1      61.077  44.899  50.257  0.00  0.00     0.304 A 
ATOM     23  O   UNL d   1      60.649  45.233  50.839  0.00  0.00    -0.300 OA
ATOM     24  C   UNL d   1      60.625  46.674  51.356  0.00  0.00     0.028 A 
ATOM     25  C   UNL d   1      60.953  47.421  51.252  0.00  0.00     0.021 A 
ENDBRANCH  15  17
ENDBRANCH  13  14
ENDBRANCH  12  13
ENDBRANCH   2  12
BRANCH   1  26
ATOM     26  C   UNL d   1      59.124  49.339  51.901  0.00  0.00     0.085 C 
BRANCH  26  27
ATOM     27  C   UNL d   1      58.746  49.621  52.581  0.00  0.00     0.019 C 
ATOM     28  C   UNL d   1      59.158  49.705  53.273  0.00  0.00     0.002 C 
ENDBRANCH  26  27
ENDBRANCH   1  26
TORSDOF 6
ENDMDL
