MODEL 1
REMARK VINA RESULT:     -10.8      0.000      0.000
REMARK  2 active torsions:
REMARK  status: ('A' for Active; 'I' for Inactive)
REMARK    1  A    between atoms: C_4  and  C_1 
REMARK    2  A    between atoms: C_8  and  C_2 
REMARK       I    between atoms: N_7  and  C_4 
ROOT
ATOM      1  C   UNL d   1      53.174  32.182  53.277  0.00  0.00     0.081 A 
ATOM      2  C   UNL d   1      52.410  32.408  53.125  0.00  0.00     0.104 A 
ATOM      3  C   UNL d   1      53.220  31.365  53.331  0.00  0.00     0.033 A 
ATOM      4  O   UNL d   1      51.946  31.711  53.079  0.00  0.00    -0.307 OA
ATOM      5  C   UNL d   1      52.450  31.070  53.207  0.00  0.00     0.100 A 
ATOM      6  C   UNL d   1      53.840  30.842  53.473  0.00  0.00     0.044 A 
ATOM      7  C   UNL d   1      52.315  30.257  53.227  0.00  0.00     0.028 A 
ATOM      8  C   UNL d   1      53.708  30.023  53.494  0.00  0.00     0.196 A 
ATOM      9  C   UNL d   1      52.939  29.728  53.370  0.00  0.00     0.044 A 
ATOM     10  O   UNL d   1      54.324  29.513  53.635  0.00  0.00    -0.287 OA
ENDROOT
BRANCH   1  11
ATOM     11  C   UNL d   1      53.825  32.702  53.367  0.00  0.00     0.267 C 
ATOM     12  N   UNL d   1      54.108  32.880  54.110  0.00  0.00    -0.268 N 
ATOM     13  C   UNL d   1      54.759  33.400  54.201  0.00  0.00     0.110 A 
ATOM     14  C   UNL d   1      53.759  32.552  54.793  0.00  0.00     0.110 A 
ATOM     15  C   UNL d   1      55.039  33.575  54.956  0.00  0.00     0.142 A 
ATOM     16  O   UNL d   1      54.694  33.251  55.626  0.00  0.00    -0.300 OA
ATOM     17  C   UNL d   1      54.046  32.732  55.541  0.00  0.00     0.142 A 
ATOM     18  O   UNL d   1      54.170  33.026  52.698  0.00  0.00    -0.267 OA
ENDBRANCH   1  11
BRANCH   2  19
ATOM     19  C   UNL d   1      52.127  33.186  53.031  0.00  0.00     0.023 A 
ATOM     20  C   UNL d   1      52.287  33.584  52.345  0.00  0.00     0.002 A 
ATOM     21  C   UNL d   1      52.004  34.362  52.251  0.00  0.00     0.000 A 
ATOM     22  C   UNL d   1      51.567  34.723  52.844  0.00  0.00     0.000 A 
ATOM     23  C   UNL d   1      51.406  34.312  53.541  0.00  0.00     0.000 A 
ATOM     24  C   UNL d   1      51.688  33.538  53.635  0.00  0.00     0.002 A 
ENDBRANCH   2  19
TORSDOF 2
ENDMDL
MODEL 2
REMARK VINA RESULT:     -10.2      1.033      2.583
REMARK  2 active torsions:
REMARK  status: ('A' for Active; 'I' for Inactive)
REMARK    1  A    between atoms: C_4  and  C_1 
REMARK    2  A    between atoms: C_8  and  C_2 
REMARK       I    between atoms: N_7  and  C_4 
ROOT
ATOM      1  C   UNL d   1      53.460  31.984  53.585  0.00  0.00     0.081 A 
ATOM      2  C   UNL d   1      53.881  32.077  54.272  0.00  0.00     0.104 A 
ATOM      3  C   UNL d   1      53.237  31.201  53.495  0.00  0.00     0.033 A 
ATOM      4  O   UNL d   1      53.932  31.324  54.638  0.00  0.00    -0.307 OA
ATOM      5  C   UNL d   1      53.533  30.787  54.155  0.00  0.00     0.100 A 
ATOM      6  C   UNL d   1      52.811  30.796  52.916  0.00  0.00     0.044 A 
ATOM      7  C   UNL d   1      53.398  29.976  54.225  0.00  0.00     0.028 A 
ATOM      8  C   UNL d   1      52.673  29.981  52.984  0.00  0.00     0.196 A 
ATOM      9  C   UNL d   1      52.969  29.567  53.643  0.00  0.00     0.044 A 
ATOM     10  O   UNL d   1      52.253  29.589  52.410  0.00  0.00    -0.287 OA
ENDROOT
BRANCH   1  11
ATOM     11  C   UNL d   1      53.276  32.596  53.042  0.00  0.00     0.267 C 
ATOM     12  N   UNL d   1      52.534  32.931  53.038  0.00  0.00    -0.268 N 
ATOM     13  C   UNL d   1      52.349  33.543  52.496  0.00  0.00     0.110 A 
ATOM     14  C   UNL d   1      51.943  32.675  53.570  0.00  0.00     0.110 A 
ATOM     15  C   UNL d   1      51.594  33.876  52.499  0.00  0.00     0.142 A 
ATOM     16  O   UNL d   1      51.017  33.623  53.023  0.00  0.00    -0.300 OA
ATOM     17  C   UNL d   1      51.195  33.014  53.565  0.00  0.00     0.142 A 
ATOM     18  O   UNL d   1      53.853  32.850  52.519  0.00  0.00    -0.267 OA
ENDBRANCH   1  11
BRANCH   2  19
ATOM     19  C   UNL d   1      54.208  32.783  54.568  0.00  0.00     0.023 A 
ATOM     20  C   UNL d   1      54.879  33.081  54.228  0.00  0.00     0.002 A 
ATOM     21  C   UNL d   1      55.206  33.788  54.525  0.00  0.00     0.000 A 
ATOM     22  C   UNL d   1      54.854  34.181  55.154  0.00  0.00     0.000 A 
ATOM     23  C   UNL d   1      54.169  33.872  55.496  0.00  0.00     0.000 A 
ATOM     24  C   UNL d   1      53.844  33.168  55.201  0.00  0.00     0.002 A 
ENDBRANCH   2  19
TORSDOF 2
ENDMDL
MODEL 3
REMARK VINA RESULT:      -9.9      0.906      3.021
REMARK  2 active torsions:
REMARK  status: ('A' for Active; 'I' for Inactive)
REMARK    1  A    between atoms: C_4  and  C_1 
REMARK    2  A    between atoms: C_8  and  C_2 
REMARK       I    between atoms: N_7  and  C_4 
ROOT
ATOM      1  C   UNL d   1      52.851  32.630  53.285  0.00  0.00     0.081 A 
ATOM      2  C   UNL d   1      52.476  31.911  53.296  0.00  0.00     0.104 A 
ATOM      3  C   UNL d   1      52.299  33.233  53.227  0.00  0.00     0.033 A 
ATOM      4  O   UNL d   1      51.652  32.056  53.244  0.00  0.00    -0.307 OA
ATOM      5  C   UNL d   1      51.548  32.873  53.202  0.00  0.00     0.100 A 
ATOM      6  C   UNL d   1      52.360  34.055  53.194  0.00  0.00     0.044 A 
ATOM      7  C   UNL d   1      50.871  33.341  53.143  0.00  0.00     0.028 A 
ATOM      8  C   UNL d   1      51.681  34.528  53.135  0.00  0.00     0.196 A 
ATOM      9  C   UNL d   1      50.930  34.169  53.109  0.00  0.00     0.044 A 
ATOM     10  O   UNL d   1      51.749  35.336  53.102  0.00  0.00    -0.287 OA
ENDROOT
BRANCH   1  11
ATOM     11  C   UNL d   1      53.680  32.746  53.325  0.00  0.00     0.267 C 
ATOM     12  N   UNL d   1      54.027  32.988  54.021  0.00  0.00    -0.268 N 
ATOM     13  C   UNL d   1      54.856  33.105  54.063  0.00  0.00     0.110 A 
ATOM     14  C   UNL d   1      53.568  33.125  54.705  0.00  0.00     0.110 A 
ATOM     15  C   UNL d   1      55.198  33.350  54.771  0.00  0.00     0.142 A 
ATOM     16  O   UNL d   1      54.745  33.484  55.442  0.00  0.00    -0.300 OA
ATOM     17  C   UNL d   1      53.919  33.369  55.406  0.00  0.00     0.142 A 
ATOM     18  O   UNL d   1      54.133  32.612  52.655  0.00  0.00    -0.267 OA
ENDBRANCH   1  11
BRANCH   2  19
ATOM     19  C   UNL d   1      52.834  31.160  53.350  0.00  0.00     0.023 A 
ATOM     20  C   UNL d   1      53.152  30.826  52.685  0.00  0.00     0.002 A 
ATOM     21  C   UNL d   1      53.510  30.075  52.739  0.00  0.00     0.000 A 
ATOM     22  C   UNL d   1      53.541  29.676  53.456  0.00  0.00     0.000 A 
ATOM     23  C   UNL d   1      53.215  30.023  54.130  0.00  0.00     0.000 A 
ATOM     24  C   UNL d   1      52.859  30.770  54.077  0.00  0.00     0.002 A 
ENDBRANCH   2  19
TORSDOF 2
ENDMDL
MODEL 4
REMARK VINA RESULT:      -9.3      1.121      3.512
REMARK  2 active torsions:
REMARK  status: ('A' for Active; 'I' for Inactive)
REMARK    1  A    between atoms: C_4  and  C_1 
REMARK    2  A    between atoms: C_8  and  C_2 
REMARK       I    between atoms: N_7  and  C_4 
ROOT
ATOM      1  C   UNL d   1      53.361  32.605  53.704  0.00  0.00     0.081 A 
ATOM      2  C   UNL d   1      53.463  31.841  53.956  0.00  0.00     0.104 A 
ATOM      3  C   UNL d   1      53.696  33.125  54.242  0.00  0.00     0.033 A 
ATOM      4  O   UNL d   1      53.880  31.869  54.683  0.00  0.00    -0.307 OA
ATOM      5  C   UNL d   1      54.021  32.664  54.855  0.00  0.00     0.100 A 
ATOM      6  C   UNL d   1      53.757  33.947  54.271  0.00  0.00     0.044 A 
ATOM      7  C   UNL d   1      54.402  33.033  55.487  0.00  0.00     0.028 A 
ATOM      8  C   UNL d   1      54.139  34.321  54.906  0.00  0.00     0.196 A 
ATOM      9  C   UNL d   1      54.464  33.860  55.519  0.00  0.00     0.044 A 
ATOM     10  O   UNL d   1      54.195  35.130  54.928  0.00  0.00    -0.287 OA
ENDROOT
BRANCH   1  11
ATOM     11  C   UNL d   1      52.971  32.836  52.999  0.00  0.00     0.267 C 
ATOM     12  N   UNL d   1      52.215  33.138  53.028  0.00  0.00    -0.268 N 
ATOM     13  C   UNL d   1      51.825  33.369  52.323  0.00  0.00     0.110 A 
ATOM     14  C   UNL d   1      51.815  33.225  53.755  0.00  0.00     0.110 A 
ATOM     15  C   UNL d   1      51.060  33.674  52.362  0.00  0.00     0.142 A 
ATOM     16  O   UNL d   1      50.669  33.758  53.078  0.00  0.00    -0.300 OA
ATOM     17  C   UNL d   1      51.053  33.530  53.783  0.00  0.00     0.142 A 
ATOM     18  O   UNL d   1      53.362  32.751  52.283  0.00  0.00    -0.267 OA
ENDBRANCH   1  11
BRANCH   2  19
ATOM     19  C   UNL d   1      53.207  31.148  53.571  0.00  0.00     0.023 A 
ATOM     20  C   UNL d   1      53.616  30.878  52.928  0.00  0.00     0.002 A 
ATOM     21  C   UNL d   1      53.360  30.185  52.543  0.00  0.00     0.000 A 
ATOM     22  C   UNL d   1      52.699  29.778  52.811  0.00  0.00     0.000 A 
ATOM     23  C   UNL d   1      52.285  30.058  53.468  0.00  0.00     0.000 A 
ATOM     24  C   UNL d   1      52.541  30.748  53.851  0.00  0.00     0.002 A 
ENDBRANCH   2  19
TORSDOF 2
ENDMDL
MODEL 5
REMARK VINA RESULT:      -9.1      1.490      1.998
REMARK  2 active torsions:
REMARK  status: ('A' for Active; 'I' for Inactive)
REMARK    1  A    between atoms: C_4  and  C_1 
REMARK    2  A    between atoms: C_8  and  C_2 
REMARK       I    between atoms: N_7  and  C_4 
ROOT
ATOM      1  C   UNL d   1      52.561  33.546  53.073  0.00  0.00     0.081 A 
ATOM      2  C   UNL d   1      51.816  33.271  52.909  0.00  0.00     0.104 A 
ATOM      3  C   UNL d   1      53.073  32.917  53.192  0.00  0.00     0.033 A 
ATOM      4  O   UNL d   1      51.849  32.433  52.924  0.00  0.00    -0.307 OA
ATOM      5  C   UNL d   1      52.627  32.220  53.099  0.00  0.00     0.100 A 
ATOM      6  C   UNL d   1      53.877  32.867  53.371  0.00  0.00     0.044 A 
ATOM      7  C   UNL d   1      52.992  31.485  53.186  0.00  0.00     0.028 A 
ATOM      8  C   UNL d   1      54.247  32.130  53.460  0.00  0.00     0.196 A 
ATOM      9  C   UNL d   1      53.800  31.433  53.366  0.00  0.00     0.044 A 
ATOM     10  O   UNL d   1      55.038  32.089  53.636  0.00  0.00    -0.287 OA
ENDROOT
BRANCH   1  11
ATOM     11  C   UNL d   1      52.782  34.354  53.115  0.00  0.00     0.267 C 
ATOM     12  N   UNL d   1      52.911  34.706  53.838  0.00  0.00    -0.268 N 
ATOM     13  C   UNL d   1      53.132  35.514  53.881  0.00  0.00     0.110 A 
ATOM     14  C   UNL d   1      52.828  34.275  54.548  0.00  0.00     0.110 A 
ATOM     15  C   UNL d   1      53.260  35.862  54.617  0.00  0.00     0.142 A 
ATOM     16  O   UNL d   1      53.178  35.436  55.313  0.00  0.00    -0.300 OA
ATOM     17  C   UNL d   1      52.958  34.631  55.276  0.00  0.00     0.142 A 
ATOM     18  O   UNL d   1      52.865  34.780  52.420  0.00  0.00    -0.267 OA
ENDBRANCH   1  11
BRANCH   2  19
ATOM     19  C   UNL d   1      51.136  33.726  52.754  0.00  0.00     0.023 A 
ATOM     20  C   UNL d   1      50.596  33.843  53.345  0.00  0.00     0.002 A 
ATOM     21  C   UNL d   1      49.916  34.299  53.190  0.00  0.00     0.000 A 
ATOM     22  C   UNL d   1      49.792  34.628  52.448  0.00  0.00     0.000 A 
ATOM     23  C   UNL d   1      50.348  34.505  51.850  0.00  0.00     0.000 A 
ATOM     24  C   UNL d   1      51.024  34.051  52.004  0.00  0.00     0.002 A 
ENDBRANCH   2  19
TORSDOF 2
ENDMDL
MODEL 6
REMARK VINA RESULT:      -8.9      1.173      2.776
REMARK  2 active torsions:
REMARK  status: ('A' for Active; 'I' for Inactive)
REMARK    1  A    between atoms: C_4  and  C_1 
REMARK    2  A    between atoms: C_8  and  C_2 
REMARK       I    between atoms: N_7  and  C_4 
ROOT
ATOM      1  C   UNL d   1      53.100  33.428  53.595  0.00  0.00     0.081 A 
ATOM      2  C   UNL d   1      52.455  33.909  53.699  0.00  0.00     0.104 A 
ATOM      3  C   UNL d   1      53.673  33.601  54.155  0.00  0.00     0.033 A 
ATOM      4  O   UNL d   1      52.620  34.411  54.351  0.00  0.00    -0.307 OA
ATOM      5  C   UNL d   1      53.372  34.217  54.628  0.00  0.00     0.100 A 
ATOM      6  C   UNL d   1      54.423  33.295  54.309  0.00  0.00     0.044 A 
ATOM      7  C   UNL d   1      53.827  34.517  55.248  0.00  0.00     0.028 A 
ATOM      8  C   UNL d   1      54.883  33.594  54.932  0.00  0.00     0.196 A 
ATOM      9  C   UNL d   1      54.582  34.210  55.405  0.00  0.00     0.044 A 
ATOM     10  O   UNL d   1      55.620  33.288  55.079  0.00  0.00    -0.287 OA
ENDROOT
BRANCH   1  11
ATOM     11  C   UNL d   1      53.174  32.838  53.004  0.00  0.00     0.267 C 
ATOM     12  N   UNL d   1      53.094  32.051  53.197  0.00  0.00    -0.268 N 
ATOM     13  C   UNL d   1      53.168  31.461  52.607  0.00  0.00     0.110 A 
ATOM     14  C   UNL d   1      52.936  31.815  53.982  0.00  0.00     0.110 A 
ATOM     15  C   UNL d   1      53.085  30.666  52.812  0.00  0.00     0.142 A 
ATOM     16  O   UNL d   1      52.930  30.437  53.584  0.00  0.00    -0.300 OA
ATOM     17  C   UNL d   1      52.855  31.021  54.176  0.00  0.00     0.142 A 
ATOM     18  O   UNL d   1      53.329  33.067  52.232  0.00  0.00    -0.267 OA
ENDBRANCH   1  11
BRANCH   2  19
ATOM     19  C   UNL d   1      51.755  33.913  53.249  0.00  0.00     0.023 A 
ATOM     20  C   UNL d   1      51.759  34.254  52.515  0.00  0.00     0.002 A 
ATOM     21  C   UNL d   1      51.058  34.258  52.065  0.00  0.00     0.000 A 
ATOM     22  C   UNL d   1      50.369  33.921  52.359  0.00  0.00     0.000 A 
ATOM     23  C   UNL d   1      50.371  33.575  53.108  0.00  0.00     0.000 A 
ATOM     24  C   UNL d   1      51.069  33.571  53.556  0.00  0.00     0.002 A 
ENDBRANCH   2  19
TORSDOF 2
ENDMDL
MODEL 7
REMARK VINA RESULT:      -8.8      1.160      3.496
REMARK  2 active torsions:
REMARK  status: ('A' for Active; 'I' for Inactive)
REMARK    1  A    between atoms: C_4  and  C_1 
REMARK    2  A    between atoms: C_8  and  C_2 
REMARK       I    between atoms: N_7  and  C_4 
ROOT
ATOM      1  C   UNL d   1      52.787  33.421  53.322  0.00  0.00     0.081 A 
ATOM      2  C   UNL d   1      53.006  33.797  54.006  0.00  0.00     0.104 A 
ATOM      3  C   UNL d   1      52.091  33.745  53.034  0.00  0.00     0.033 A 
ATOM      4  O   UNL d   1      52.430  34.386  54.165  0.00  0.00    -0.307 OA
ATOM      5  C   UNL d   1      51.867  34.349  53.562  0.00  0.00     0.100 A 
ATOM      6  C   UNL d   1      51.624  33.586  52.373  0.00  0.00     0.044 A 
ATOM      7  C   UNL d   1      51.181  34.784  53.421  0.00  0.00     0.028 A 
ATOM      8  C   UNL d   1      50.933  34.021  52.228  0.00  0.00     0.196 A 
ATOM      9  C   UNL d   1      50.709  34.625  52.756  0.00  0.00     0.044 A 
ATOM     10  O   UNL d   1      50.478  33.859  51.575  0.00  0.00    -0.287 OA
ENDROOT
BRANCH   1  11
ATOM     11  C   UNL d   1      53.206  32.793  52.958  0.00  0.00     0.267 C 
ATOM     12  N   UNL d   1      52.939  32.027  53.027  0.00  0.00    -0.268 N 
ATOM     13  C   UNL d   1      53.357  31.398  52.664  0.00  0.00     0.110 A 
ATOM     14  C   UNL d   1      52.247  31.851  53.460  0.00  0.00     0.110 A 
ATOM     15  C   UNL d   1      53.079  30.626  52.740  0.00  0.00     0.142 A 
ATOM     16  O   UNL d   1      52.399  30.456  53.165  0.00  0.00    -0.300 OA
ATOM     17  C   UNL d   1      51.979  31.078  53.530  0.00  0.00     0.142 A 
ATOM     18  O   UNL d   1      53.886  32.963  52.532  0.00  0.00    -0.267 OA
ENDBRANCH   1  11
BRANCH   2  19
ATOM     19  C   UNL d   1      53.677  33.637  54.473  0.00  0.00     0.023 A 
ATOM     20  C   UNL d   1      54.397  33.925  54.242  0.00  0.00     0.002 A 
ATOM     21  C   UNL d   1      55.068  33.765  54.709  0.00  0.00     0.000 A 
ATOM     22  C   UNL d   1      55.003  33.321  55.397  0.00  0.00     0.000 A 
ATOM     23  C   UNL d   1      54.266  33.031  55.627  0.00  0.00     0.000 A 
ATOM     24  C   UNL d   1      53.598  33.190  55.162  0.00  0.00     0.002 A 
ENDBRANCH   2  19
TORSDOF 2
ENDMDL
MODEL 8
REMARK VINA RESULT:      -8.4      1.654      2.764
REMARK  2 active torsions:
REMARK  status: ('A' for Active; 'I' for Inactive)
REMARK    1  A    between atoms: C_4  and  C_1 
REMARK    2  A    between atoms: C_8  and  C_2 
REMARK       I    between atoms: N_7  and  C_4 
ROOT
ATOM      1  C   UNL d   1      52.891  33.260  53.327  0.00  0.00     0.081 A 
ATOM      2  C   UNL d   1      53.252  33.568  53.985  0.00  0.00     0.104 A 
ATOM      3  C   UNL d   1      53.009  32.449  53.296  0.00  0.00     0.033 A 
ATOM      4  O   UNL d   1      53.616  32.932  54.393  0.00  0.00    -0.307 OA
ATOM      5  C   UNL d   1      53.463  32.244  53.964  0.00  0.00     0.100 A 
ATOM      6  C   UNL d   1      52.775  31.863  52.765  0.00  0.00     0.044 A 
ATOM      7  C   UNL d   1      53.674  31.456  54.089  0.00  0.00     0.028 A 
ATOM      8  C   UNL d   1      52.986  31.070  52.888  0.00  0.00     0.196 A 
ATOM      9  C   UNL d   1      53.440  30.865  53.556  0.00  0.00     0.044 A 
ATOM     10  O   UNL d   1      52.752  30.499  52.361  0.00  0.00    -0.287 OA
ENDROOT
BRANCH   1  11
ATOM     11  C   UNL d   1      52.460  33.700  52.758  0.00  0.00     0.267 C 
ATOM     12  N   UNL d   1      51.647  33.728  52.791  0.00  0.00    -0.268 N 
ATOM     13  C   UNL d   1      51.216  34.168  52.223  0.00  0.00     0.110 A 
ATOM     14  C   UNL d   1      51.227  33.322  53.387  0.00  0.00     0.110 A 
ATOM     15  C   UNL d   1      50.393  34.190  52.265  0.00  0.00     0.142 A 
ATOM     16  O   UNL d   1      49.982  33.790  52.851  0.00  0.00    -0.300 OA
ATOM     17  C   UNL d   1      50.407  33.351  53.420  0.00  0.00     0.142 A 
ATOM     18  O   UNL d   1      52.870  34.100  52.171  0.00  0.00    -0.267 OA
ENDBRANCH   1  11
BRANCH   2  19
ATOM     19  C   UNL d   1      53.265  34.367  54.221  0.00  0.00     0.023 A 
ATOM     20  C   UNL d   1      53.668  34.905  53.771  0.00  0.00     0.002 A 
ATOM     21  C   UNL d   1      53.681  35.704  54.007  0.00  0.00     0.000 A 
ATOM     22  C   UNL d   1      53.291  35.946  54.688  0.00  0.00     0.000 A 
ATOM     23  C   UNL d   1      52.882  35.391  55.143  0.00  0.00     0.000 A 
ATOM     24  C   UNL d   1      52.869  34.597  54.908  0.00  0.00     0.002 A 
ENDBRANCH   2  19
TORSDOF 2
ENDMDL
