MODEL 1
REMARK VINA RESULT:      49.9      0.000      0.000
REMARK  3 active torsions:
REMARK  status: ('A' for Active; 'I' for Inactive)
REMARK    1  A    between atoms: N_3  and  C_1 
REMARK       I    between atoms: C_5  and  N_3 
REMARK    2  A    between atoms: C_4  and  C_5 
REMARK    3  A    between atoms: C_12  and  C_6 
ROOT
ATOM      1  C   UNL d   1     -49.487  27.871  34.365  0.00  0.00     0.249 A 
ATOM      2  N   UNL d   1     -49.767  27.099  34.471  0.00  0.00    -0.210 NA
ATOM      3  C   UNL d   1     -50.239  26.905  33.811  0.00  0.00     0.091 A 
ATOM      4  S   UNL d   1     -49.776  28.165  33.652  0.00  0.00    -0.033 SA
ATOM      5  C   UNL d   1     -50.247  27.558  33.306  0.00  0.00     0.059 A 
ENDROOT
BRANCH   1   6
ATOM      6  N   UNL d   1     -48.999  28.278  34.890  0.00  0.00    -0.337 NA
ATOM      7  C   UNL d   1     -48.644  28.542  35.587  0.00  0.00     0.355 C 
ATOM      8  O   UNL d   1     -48.886  28.236  36.321  0.00  0.00    -0.249 OA
BRANCH   7   9
ATOM      9  C   UNL d   1     -48.043  29.114  35.558  0.00  0.00     0.197 A 
ATOM     10  O   UNL d   1     -48.112  29.917  35.780  0.00  0.00    -0.205 OA
ATOM     11  N   UNL d   1     -47.377  30.280  35.660  0.00  0.00    -0.124 NA
ATOM     12  C   UNL d   1     -46.853  29.708  35.365  0.00  0.00     0.130 A 
ATOM     13  C   UNL d   1     -47.259  28.986  35.300  0.00  0.00     0.056 A 
ENDBRANCH   7   9
ENDBRANCH   1   6
BRANCH   3  14
ATOM     14  C   UNL d   1     -50.627  26.194  33.686  0.00  0.00     0.018 A 
ATOM     15  C   UNL d   1     -51.435  26.140  33.805  0.00  0.00     0.002 A 
ATOM     16  C   UNL d   1     -51.826  25.426  33.680  0.00  0.00     0.000 A 
ATOM     17  C   UNL d   1     -51.398  24.766  33.433  0.00  0.00     0.000 A 
ATOM     18  C   UNL d   1     -50.584  24.815  33.311  0.00  0.00     0.000 A 
ATOM     19  C   UNL d   1     -51.786  24.045  33.306  0.00  0.00     0.000 C 
ATOM     20  C   UNL d   1     -50.195  25.536  33.438  0.00  0.00     0.002 A 
ENDBRANCH   3  14
TORSDOF 3
ENDMDL
