MODEL 1
REMARK VINA RESULT:      -7.6      0.000      0.000
REMARK  2 active torsions:
REMARK  status: ('A' for Active; 'I' for Inactive)
REMARK    1  A    between atoms: S_2  and  N_1 
REMARK    2  A    between atoms: C_8  and  S_2 
ROOT
ATOM      1  S   UNL d   1     -48.515  14.314  22.736  0.00  0.00     0.273 S 
ATOM      2  O   UNL d   1     -48.704  13.728  23.279  0.00  0.00    -0.200 OA
ATOM      3  O   UNL d   1     -48.334  14.906  22.191  0.00  0.00    -0.200 OA
ENDROOT
BRANCH   1   4
ATOM      4  N   UNL d   1     -49.277  14.619  22.828  0.00  0.00    -0.207 N 
ATOM      5  C   UNL d   1     -49.360  15.154  23.456  0.00  0.00     0.148 A 
ATOM      6  N   UNL d   1     -50.047  15.557  23.697  0.00  0.00    -0.198 NA
ATOM      7  C   UNL d   1     -50.793  15.528  23.383  0.00  0.00     0.066 A 
ATOM      8  C   UNL d   1     -49.942  14.918  22.948  0.00  0.00     0.169 A 
ATOM      9  C   UNL d   1     -51.064  15.091  22.744  0.00  0.00     0.066 A 
ATOM     10  N   UNL d   1     -50.642  14.570  22.259  0.00  0.00    -0.198 NA
ATOM     11  C   UNL d   1     -49.849  14.363  22.299  0.00  0.00     0.148 A 
ENDBRANCH   1   4
BRANCH   1  12
ATOM     12  C   UNL d   1     -47.756  14.003  22.650  0.00  0.00     0.104 A 
ATOM     13  C   UNL d   1     -47.101  14.442  22.894  0.00  0.00     0.013 A 
ATOM     14  C   UNL d   1     -46.342  14.131  22.809  0.00  0.00     0.001 A 
ATOM     15  C   UNL d   1     -46.238  13.381  22.479  0.00  0.00     0.000 A 
ATOM     16  C   UNL d   1     -46.893  12.943  22.234  0.00  0.00     0.001 A 
ATOM     17  C   UNL d   1     -45.475  13.077  22.396  0.00  0.00     0.000 C 
ATOM     18  C   UNL d   1     -47.653  13.254  22.320  0.00  0.00     0.013 A 
ENDBRANCH   1  12
TORSDOF 2
ENDMDL
MODEL 2
REMARK VINA RESULT:      -7.4      1.852      2.234
REMARK  2 active torsions:
REMARK  status: ('A' for Active; 'I' for Inactive)
REMARK    1  A    between atoms: S_2  and  N_1 
REMARK    2  A    between atoms: C_8  and  S_2 
ROOT
ATOM      1  S   UNL d   1     -48.453  12.632  22.983  0.00  0.00     0.273 S 
ATOM      2  O   UNL d   1     -48.415  13.084  23.668  0.00  0.00    -0.200 OA
ATOM      3  O   UNL d   1     -48.500  12.177  22.297  0.00  0.00    -0.200 OA
ENDROOT
BRANCH   1   4
ATOM      4  N   UNL d   1     -49.238  12.455  23.165  0.00  0.00    -0.207 N 
ATOM      5  C   UNL d   1     -49.358  11.689  23.462  0.00  0.00     0.148 A 
ATOM      6  N   UNL d   1     -50.075  11.339  23.697  0.00  0.00    -0.198 NA
ATOM      7  C   UNL d   1     -50.822  11.653  23.694  0.00  0.00     0.066 A 
ATOM      8  C   UNL d   1     -49.926  12.252  23.342  0.00  0.00     0.169 A 
ATOM      9  C   UNL d   1     -51.064  12.400  23.459  0.00  0.00     0.066 A 
ATOM     10  N   UNL d   1     -50.605  13.022  23.164  0.00  0.00    -0.198 NA
ATOM     11  C   UNL d   1     -49.795  13.043  23.035  0.00  0.00     0.148 A 
ENDBRANCH   1   4
BRANCH   1  12
ATOM     12  C   UNL d   1     -47.668  12.815  22.808  0.00  0.00     0.104 A 
ATOM     13  C   UNL d   1     -47.478  13.175  22.091  0.00  0.00     0.013 A 
ATOM     14  C   UNL d   1     -46.693  13.358  21.916  0.00  0.00     0.001 A 
ATOM     15  C   UNL d   1     -46.097  13.179  22.459  0.00  0.00     0.000 A 
ATOM     16  C   UNL d   1     -46.287  12.818  23.177  0.00  0.00     0.001 A 
ATOM     17  C   UNL d   1     -45.314  13.365  22.276  0.00  0.00     0.000 C 
ATOM     18  C   UNL d   1     -47.073  12.636  23.352  0.00  0.00     0.013 A 
ENDBRANCH   1  12
TORSDOF 2
ENDMDL
