MODEL 1
REMARK VINA RESULT:     128.9      0.000      0.000
REMARK  5 active torsions:
REMARK  status: ('A' for Active; 'I' for Inactive)
REMARK    1  A    between atoms: N_8  and  S_1 
REMARK    2  A    between atoms: C_18  and  S_1 
REMARK    3  A    between atoms: C_13  and  C_3 
REMARK    4  A    between atoms: C_5  and  C_11 
REMARK    5  A    between atoms: C_17  and  N_8 
ROOT
ATOM      1  N   UNL d   1      61.048  47.331  49.830  0.00  0.00    -0.246 NA
ATOM      2  C   UNL d   1      61.000  45.913  50.681  0.00  0.00     0.003 A 
ATOM      3  C   UNL d   1      61.545  46.012  50.067  0.00  0.00     0.018 A 
ATOM      4  C   UNL d   1      60.502  47.235  50.443  0.00  0.00     0.081 A 
ATOM      5  C   UNL d   1      60.479  46.528  50.867  0.00  0.00     0.019 A 
ATOM      6  C   UNL d   1      61.568  46.719  49.643  0.00  0.00     0.081 A 
ATOM      7  C   UNL d   1      62.065  45.397  49.882  0.00  0.00     0.002 A 
ATOM      8  C   UNL d   1      62.113  46.815  49.031  0.00  0.00     0.019 A 
ATOM      9  C   UNL d   1      62.610  45.496  49.268  0.00  0.00     0.000 A 
ATOM     10  C   UNL d   1      62.634  46.202  48.843  0.00  0.00     0.002 A 
ATOM     11  C   UNL d   1      63.089  44.901  49.113  0.00  0.00     0.000 C 
ENDROOT
BRANCH   4  12
ATOM     12  C   UNL d   1      59.982  47.847  50.630  0.00  0.00     0.018 A 
ATOM     13  C   UNL d   1      60.271  48.605  50.774  0.00  0.00     0.003 A 
ATOM     14  C   UNL d   1      59.750  49.216  50.961  0.00  0.00     0.020 A 
ATOM     15  C   UNL d   1      58.939  49.069  51.003  0.00  0.00     0.094 A 
ATOM     16  C   UNL d   1      58.650  48.311  50.859  0.00  0.00     0.020 A 
ATOM     17  C   UNL d   1      59.171  47.699  50.671  0.00  0.00     0.003 A 
BRANCH  15  18
ATOM     18  N   UNL d   1      58.418  49.681  51.190  0.00  0.00    -0.158 NA
BRANCH  18  19
ATOM     19  S   UNL d   1      57.621  49.518  51.324  0.00  0.00     0.286 S 
ATOM     20  O   UNL d   1      56.873  49.366  51.448  0.00  0.00    -0.198 OA
ATOM     21  O   UNL d   1      57.790  49.330  52.111  0.00  0.00    -0.198 OA
BRANCH  19  22
ATOM     22  C   UNL d   1      57.451  49.705  50.538  0.00  0.00     0.117 C 
ATOM     23  C   UNL d   1      56.639  49.588  50.455  0.00  0.00     0.014 C 
ENDBRANCH  19  22
ENDBRANCH  18  19
ENDBRANCH  15  18
ENDBRANCH   4  12
BRANCH   2  24
ATOM     24  C   UNL d   1      60.977  45.216  51.100  0.00  0.00     0.000 A 
ATOM     25  C   UNL d   1      61.372  45.155  51.820  0.00  0.00     0.000 A 
ATOM     26  C   UNL d   1      61.349  44.447  52.246  0.00  0.00     0.000 A 
ATOM     27  C   UNL d   1      60.929  43.800  51.951  0.00  0.00     0.000 A 
ATOM     28  C   UNL d   1      60.533  43.863  51.228  0.00  0.00     0.000 A 
ATOM     29  C   UNL d   1      60.557  44.571  50.803  0.00  0.00     0.000 A 
ENDBRANCH   2  24
TORSDOF 5
ENDMDL
