MODEL 1
REMARK VINA RESULT:      -9.1      0.000      0.000
REMARK  6 active torsions:
REMARK  status: ('A' for Active; 'I' for Inactive)
REMARK    1  A    between atoms: N_3  and  S_1 
REMARK    2  A    between atoms: C_11  and  S_1 
REMARK    3  A    between atoms: C_2  and  N_3 
REMARK    4  A    between atoms: C_5  and  C_7 
REMARK       I    between atoms: C_7  and  N_12 
REMARK    5  A    between atoms: C_27  and  C_9 
REMARK    6  A    between atoms: N_12  and  C_20 
ROOT
ATOM      1  C   UNL d   1     -47.342  13.923  22.772  0.00  0.00     0.105 A 
ATOM      2  C   UNL d   1     -47.538  13.699  22.003  0.00  0.00     0.015 A 
ATOM      3  C   UNL d   1     -47.872  14.348  23.230  0.00  0.00     0.015 A 
ATOM      4  C   UNL d   1     -48.809  14.335  22.157  0.00  0.00     0.085 A 
ATOM      5  C   UNL d   1     -48.279  13.910  21.700  0.00  0.00     0.020 A 
ATOM      6  C   UNL d   1     -48.605  14.554  22.924  0.00  0.00     0.020 A 
ENDROOT
BRANCH   1   7
ATOM      7  S   UNL d   1     -46.592  13.712  23.085  0.00  0.00     0.287 S 
ATOM      8  O   UNL d   1     -46.465  14.500  23.301  0.00  0.00    -0.198 OA
ATOM      9  O   UNL d   1     -45.857  13.490  23.389  0.00  0.00    -0.198 OA
BRANCH   7  10
ATOM     10  N   UNL d   1     -46.731  12.922  22.864  0.00  0.00    -0.130 NA
BRANCH  10  11
ATOM     11  C   UNL d   1     -46.173  12.334  23.038  0.00  0.00     0.227 A 
ATOM     12  S   UNL d   1     -46.347  11.607  23.331  0.00  0.00    -0.025 SA
ATOM     13  C   UNL d   1     -45.617  11.186  23.427  0.00  0.00     0.135 A 
ATOM     14  N   UNL d   1     -45.002  11.692  23.178  0.00  0.00    -0.139 NA
ATOM     15  N   UNL d   1     -45.371  12.407  22.938  0.00  0.00    -0.120 NA
BRANCH  13  16
ATOM     16  C   UNL d   1     -45.427  10.436  23.696  0.00  0.00     0.028 C 
ATOM     17  C   UNL d   1     -44.633  10.183  23.653  0.00  0.00     0.002 C 
ENDBRANCH  13  16
ENDBRANCH  10  11
ENDBRANCH   7  10
ENDBRANCH   1   7
BRANCH   4  18
ATOM     18  N   UNL d   1     -49.561  14.551  21.855  0.00  0.00    -0.208 NA
ATOM     19  C   UNL d   1     -50.215  14.054  21.987  0.00  0.00     0.280 C 
ATOM     20  O   UNL d   1     -50.955  14.255  21.696  0.00  0.00    -0.265 OA
BRANCH  19  21
ATOM     21  C   UNL d   1     -50.116  13.354  22.413  0.00  0.00     0.069 A 
ATOM     22  C   UNL d   1     -50.105  12.631  22.023  0.00  0.00     0.063 A 
ATOM     23  C   UNL d   1     -50.006  11.936  22.446  0.00  0.00     0.023 A 
ATOM     24 CL   UNL d   1     -50.192  12.596  21.211  0.00  0.00    -0.082 Cl
ATOM     25  C   UNL d   1     -49.915  11.944  23.271  0.00  0.00     0.059 A 
ATOM     26  C   UNL d   1     -49.927  12.689  23.664  0.00  0.00     0.012 A 
ATOM     27 CL   UNL d   1     -49.815  11.243  23.698  0.00  0.00    -0.082 Cl
ATOM     28  C   UNL d   1     -50.026  13.383  23.241  0.00  0.00     0.006 A 
ENDBRANCH  19  21
ENDBRANCH   4  18
TORSDOF 6
ENDMDL
MODEL 2
REMARK VINA RESULT:      -8.1      1.464      1.767
REMARK  6 active torsions:
REMARK  status: ('A' for Active; 'I' for Inactive)
REMARK    1  A    between atoms: N_3  and  S_1 
REMARK    2  A    between atoms: C_11  and  S_1 
REMARK    3  A    between atoms: C_2  and  N_3 
REMARK    4  A    between atoms: C_5  and  C_7 
REMARK       I    between atoms: C_7  and  N_12 
REMARK    5  A    between atoms: C_27  and  C_9 
REMARK    6  A    between atoms: N_12  and  C_20 
ROOT
ATOM      1  C   UNL d   1     -47.127  13.109  22.795  0.00  0.00     0.105 A 
ATOM      2  C   UNL d   1     -47.388  13.733  23.268  0.00  0.00     0.015 A 
ATOM      3  C   UNL d   1     -47.481  12.958  22.072  0.00  0.00     0.015 A 
ATOM      4  C   UNL d   1     -48.369  14.052  22.278  0.00  0.00     0.085 A 
ATOM      5  C   UNL d   1     -48.015  14.204  23.001  0.00  0.00     0.020 A 
ATOM      6  C   UNL d   1     -48.101  13.428  21.813  0.00  0.00     0.020 A 
ENDROOT
BRANCH   1   7
ATOM      7  S   UNL d   1     -46.492  12.628  23.061  0.00  0.00     0.287 S 
ATOM      8  O   UNL d   1     -47.007  12.240  23.577  0.00  0.00    -0.198 OA
ATOM      9  O   UNL d   1     -45.858  12.163  23.312  0.00  0.00    -0.198 OA
BRANCH   7  10
ATOM     10  N   UNL d   1     -45.981  13.026  22.537  0.00  0.00    -0.130 NA
BRANCH  10  11
ATOM     11  C   UNL d   1     -45.224  12.728  22.383  0.00  0.00     0.227 A 
ATOM     12  S   UNL d   1     -44.739  12.984  21.797  0.00  0.00    -0.025 SA
ATOM     13  C   UNL d   1     -44.023  12.531  21.837  0.00  0.00     0.135 A 
ATOM     14  N   UNL d   1     -44.102  11.994  22.471  0.00  0.00    -0.139 NA
ATOM     15  N   UNL d   1     -44.862  12.134  22.800  0.00  0.00    -0.120 NA
BRANCH  13  16
ATOM     16  C   UNL d   1     -43.329  12.528  21.401  0.00  0.00     0.028 C 
ATOM     17  C   UNL d   1     -42.934  13.250  21.271  0.00  0.00     0.002 C 
ENDBRANCH  13  16
ENDBRANCH  10  11
ENDBRANCH   7  10
ENDBRANCH   1   7
BRANCH   4  18
ATOM     18  N   UNL d   1     -49.003  14.526  22.002  0.00  0.00    -0.208 NA
ATOM     19  C   UNL d   1     -49.787  14.275  22.125  0.00  0.00     0.280 C 
ATOM     20  O   UNL d   1     -50.416  14.730  21.860  0.00  0.00    -0.265 OA
BRANCH  19  21
ATOM     21  C   UNL d   1     -49.930  13.562  22.517  0.00  0.00     0.069 A 
ATOM     22  C   UNL d   1     -50.226  13.564  23.283  0.00  0.00     0.063 A 
ATOM     23  C   UNL d   1     -50.367  12.857  23.672  0.00  0.00     0.023 A 
ATOM     24 CL   UNL d   1     -50.382  14.269  23.666  0.00  0.00    -0.082 Cl
ATOM     25  C   UNL d   1     -50.217  12.128  23.306  0.00  0.00     0.059 A 
ATOM     26  C   UNL d   1     -49.914  12.133  22.520  0.00  0.00     0.012 A 
ATOM     27 CL   UNL d   1     -50.360  11.414  23.698  0.00  0.00    -0.082 Cl
ATOM     28  C   UNL d   1     -49.772  12.840  22.131  0.00  0.00     0.006 A 
ENDBRANCH  19  21
ENDBRANCH   4  18
TORSDOF 6
ENDMDL
MODEL 3
REMARK VINA RESULT:      -7.4      2.141      4.647
REMARK  6 active torsions:
REMARK  status: ('A' for Active; 'I' for Inactive)
REMARK    1  A    between atoms: N_3  and  S_1 
REMARK    2  A    between atoms: C_11  and  S_1 
REMARK    3  A    between atoms: C_2  and  N_3 
REMARK    4  A    between atoms: C_5  and  C_7 
REMARK       I    between atoms: C_7  and  N_12 
REMARK    5  A    between atoms: C_27  and  C_9 
REMARK    6  A    between atoms: N_12  and  C_20 
ROOT
ATOM      1  C   UNL d   1     -48.798  11.653  22.921  0.00  0.00     0.105 A 
ATOM      2  C   UNL d   1     -48.338  11.668  22.236  0.00  0.00     0.015 A 
ATOM      3  C   UNL d   1     -48.458  11.484  23.647  0.00  0.00     0.015 A 
ATOM      4  C   UNL d   1     -47.188  11.341  23.019  0.00  0.00     0.085 A 
ATOM      5  C   UNL d   1     -47.527  11.510  22.293  0.00  0.00     0.020 A 
ATOM      6  C   UNL d   1     -47.654  11.329  23.697  0.00  0.00     0.020 A 
ENDROOT
BRANCH   1   7
ATOM      7  S   UNL d   1     -49.620  11.812  22.869  0.00  0.00     0.287 S 
ATOM      8  O   UNL d   1     -49.777  11.121  23.293  0.00  0.00    -0.198 OA
ATOM      9  O   UNL d   1     -50.426  11.983  22.810  0.00  0.00    -0.198 OA
BRANCH   7  10
ATOM     10  N   UNL d   1     -49.451  12.507  22.443  0.00  0.00    -0.130 NA
BRANCH  10  11
ATOM     11  C   UNL d   1     -50.018  13.108  22.379  0.00  0.00     0.227 A 
ATOM     12  S   UNL d   1     -50.068  13.747  22.862  0.00  0.00    -0.025 SA
ATOM     13  C   UNL d   1     -50.724  14.217  22.601  0.00  0.00     0.135 A 
ATOM     14  N   UNL d   1     -51.062  13.832  21.943  0.00  0.00    -0.139 NA
ATOM     15  N   UNL d   1     -50.605  13.138  21.820  0.00  0.00    -0.120 NA
BRANCH  13  16
ATOM     16  C   UNL d   1     -51.054  14.922  22.859  0.00  0.00     0.028 C 
ATOM     17  C   UNL d   1     -50.563  15.481  23.235  0.00  0.00     0.002 C 
ENDBRANCH  13  16
ENDBRANCH  10  11
ENDBRANCH   7  10
ENDBRANCH   1   7
BRANCH   4  18
ATOM     18  N   UNL d   1     -46.367  11.180  23.083  0.00  0.00    -0.208 NA
ATOM     19  C   UNL d   1     -45.824  11.811  23.098  0.00  0.00     0.280 C 
ATOM     20  O   UNL d   1     -45.020  11.665  23.161  0.00  0.00    -0.265 OA
BRANCH  19  21
ATOM     21  C   UNL d   1     -46.101  12.588  23.051  0.00  0.00     0.069 A 
ATOM     22  C   UNL d   1     -45.974  13.030  22.371  0.00  0.00     0.063 A 
ATOM     23  C   UNL d   1     -46.248  13.801  22.324  0.00  0.00     0.023 A 
ATOM     24 CL   UNL d   1     -45.573  12.709  21.735  0.00  0.00    -0.082 Cl
ATOM     25  C   UNL d   1     -46.658  14.150  22.955  0.00  0.00     0.059 A 
ATOM     26  C   UNL d   1     -46.785  13.691  23.649  0.00  0.00     0.012 A 
ATOM     27 CL   UNL d   1     -46.936  14.928  22.907  0.00  0.00    -0.082 Cl
ATOM     28  C   UNL d   1     -46.511  12.920  23.696  0.00  0.00     0.006 A 
ENDBRANCH  19  21
ENDBRANCH   4  18
TORSDOF 6
ENDMDL
