MODEL 1
REMARK VINA RESULT:      75.0      0.000      0.000
REMARK  4 active torsions:
REMARK  status: ('A' for Active; 'I' for Inactive)
REMARK    1  A    between atoms: C_10  and  C_2 
REMARK    2  A    between atoms: C_9  and  C_4 
REMARK    3  A    between atoms: C_8  and  N_6 
REMARK    4  A    between atoms: N_7  and  C_9 
ROOT
ATOM      1  N   UNL d   1      59.338  49.579  51.355  0.00  0.00    -0.301 N 
ATOM      2  N   UNL d   1      57.827  49.662  50.705  0.00  0.00    -0.297 N 
ATOM      3  C   UNL d   1      58.681  49.666  51.845  0.00  0.00     0.100 A 
ATOM      4  C   UNL d   1      59.242  49.534  50.541  0.00  0.00     0.100 A 
ATOM      5  C   UNL d   1      57.925  49.707  51.520  0.00  0.00     0.100 A 
ATOM      6  C   UNL d   1      58.484  49.575  50.212  0.00  0.00     0.100 A 
ENDROOT
BRANCH   2   7
ATOM      7  C   UNL d   1      57.074  49.702  50.375  0.00  0.00     0.127 C 
BRANCH   7   8
ATOM      8  C   UNL d   1      56.763  49.043  49.995  0.00  0.00     0.222 A 
ATOM      9  N   UNL d   1      56.171  49.036  49.414  0.00  0.00    -0.119 NA
ATOM     10  N   UNL d   1      56.036  48.253  49.193  0.00  0.00    -0.121 NA
ATOM     11  C   UNL d   1      56.543  47.772  49.637  0.00  0.00     0.204 A 
ATOM     12  O   UNL d   1      56.992  48.257  50.133  0.00  0.00    -0.267 OA
BRANCH  11  13
ATOM     13  C   UNL d   1      56.588  46.948  49.589  0.00  0.00     0.043 A 
ATOM     14  C   UNL d   1      56.331  46.561  48.910  0.00  0.00     0.004 A 
ATOM     15  C   UNL d   1      56.375  45.738  48.862  0.00  0.00     0.000 A 
ATOM     16  C   UNL d   1      56.677  45.305  49.493  0.00  0.00     0.000 A 
ATOM     17  C   UNL d   1      56.937  45.703  50.181  0.00  0.00     0.000 A 
ATOM     18  C   UNL d   1      56.888  46.522  50.219  0.00  0.00     0.004 A 
ENDBRANCH  11  13
ENDBRANCH   7   8
ENDBRANCH   2   7
BRANCH   1  19
ATOM     19  C   UNL d   1      60.094  49.538  51.680  0.00  0.00     0.064 A 
ATOM     20  C   UNL d   1      60.755  49.516  51.186  0.00  0.00     0.020 A 
ATOM     21  C   UNL d   1      61.513  49.475  51.515  0.00  0.00     0.031 A 
ATOM     22  C   UNL d   1      61.612  49.455  52.337  0.00  0.00     0.140 A 
ATOM     23  C   UNL d   1      60.943  49.478  52.821  0.00  0.00     0.031 A 
ATOM     24  F   UNL d   1      62.347  49.414  52.704  0.00  0.00    -0.204 F 
ATOM     25  C   UNL d   1      60.187  49.519  52.496  0.00  0.00     0.020 A 
ENDBRANCH   1  19
TORSDOF 4
ENDMDL
