MODEL 1
REMARK VINA RESULT:      52.3      0.000      0.000
REMARK  5 active torsions:
REMARK  status: ('A' for Active; 'I' for Inactive)
REMARK    1  A    between atoms: N_7  and  C_1 
REMARK    2  A    between atoms: C_14  and  N_4 
REMARK    3  A    between atoms: S_5  and  N_8 
REMARK    4  A    between atoms: C_13  and  S_5 
REMARK       I    between atoms: C_9  and  N_7 
REMARK    5  A    between atoms: C_15  and  C_9 
ROOT
ATOM      1  N   UNL d   1     -54.889-101.242 -41.788  0.00  0.00    -0.202 NA
ATOM      2  C   UNL d   1     -54.806-101.970 -41.391  0.00  0.00     0.279 C 
ATOM      3  O   UNL d   1     -54.724-102.676 -41.823  0.00  0.00    -0.265 OA
ENDROOT
BRANCH   2   4
ATOM      4  C   UNL d   1     -54.804-101.997 -40.568  0.00  0.00     0.061 A 
ATOM      5  C   UNL d   1     -54.753-102.715 -40.163  0.00  0.00     0.025 A 
ATOM      6  C   UNL d   1     -54.751-102.733 -39.340  0.00  0.00     0.092 A 
ATOM      7  N   UNL d   1     -54.801-102.033 -38.912  0.00  0.00    -0.229 N 
ATOM      8  C   UNL d   1     -54.852-101.301 -39.308  0.00  0.00     0.092 A 
ATOM      9  C   UNL d   1     -54.854-101.283 -40.128  0.00  0.00     0.025 A 
BRANCH   7  10
ATOM     10  S   UNL d   1     -54.799-102.055 -38.075  0.00  0.00     0.271 S 
ATOM     11  O   UNL d   1     -54.732-102.880 -38.097  0.00  0.00    -0.200 OA
ATOM     12  O   UNL d   1     -54.866-101.225 -38.070  0.00  0.00    -0.200 OA
BRANCH  10  13
ATOM     13  C   UNL d   1     -54.798-102.069 -37.252  0.00  0.00     0.104 A 
ATOM     14  C   UNL d   1     -54.720-101.366 -36.825  0.00  0.00     0.013 A 
ATOM     15  C   UNL d   1     -54.719-101.378 -36.001  0.00  0.00     0.001 A 
ATOM     16  C   UNL d   1     -54.796-102.099 -35.600  0.00  0.00     0.000 A 
ATOM     17  C   UNL d   1     -54.873-102.806 -36.026  0.00  0.00     0.001 A 
ATOM     18  C   UNL d   1     -54.874-102.788 -36.858  0.00  0.00     0.013 A 
ENDBRANCH  10  13
ENDBRANCH   7  10
ENDBRANCH   2   4
BRANCH   1  19
ATOM     19  C   UNL d   1     -54.891-101.220 -42.611  0.00  0.00     0.160 A 
ATOM     20  C   UNL d   1     -54.839-100.542 -43.076  0.00  0.00     0.298 A 
ATOM     21  N   UNL d   1     -54.861-100.774 -43.864  0.00  0.00    -0.209 N 
ATOM     22  O   UNL d   1     -54.777 -99.772 -42.797  0.00  0.00    -0.263 OA
ATOM     23  N   UNL d   1     -54.925-101.591 -43.886  0.00  0.00    -0.238 N 
ATOM     24  C   UNL d   1     -54.944-101.869 -43.112  0.00  0.00     0.104 A 
ATOM     25  C   UNL d   1     -54.965-102.053 -44.566  0.00  0.00     0.120 C 
ATOM     26  C   UNL d   1     -55.006-102.658 -42.880  0.00  0.00     0.022 C 
BRANCH  21  27
ATOM     27  C   UNL d   1     -54.823-100.270 -44.514  0.00  0.00     0.085 A 
ATOM     28  C   UNL d   1     -54.847 -99.457 -44.391  0.00  0.00     0.019 A 
ATOM     29  C   UNL d   1     -54.810 -98.947 -45.038  0.00  0.00     0.002 A 
ATOM     30  C   UNL d   1     -54.750 -99.255 -45.805  0.00  0.00     0.000 A 
ATOM     31  C   UNL d   1     -54.727-100.075 -45.921  0.00  0.00     0.002 A 
ATOM     32  C   UNL d   1     -54.764-100.581 -45.275  0.00  0.00     0.019 A 
ENDBRANCH  21  27
ENDBRANCH   1  19
TORSDOF 5
ENDMDL
