MODEL 1
REMARK VINA RESULT:      -6.4      0.000      0.000
REMARK  8 active torsions:
REMARK  status: ('A' for Active; 'I' for Inactive)
REMARK    1  A    between atoms: C_2  and  S_1 
REMARK    2  A    between atoms: N_11  and  S_1 
REMARK    3  A    between atoms: C_10  and  C_3 
REMARK    4  A    between atoms: N_6  and  C_18 
REMARK    5  A    between atoms: C_20  and  N_11 
REMARK    6  A    between atoms: O_17  and  C_12 
REMARK    7  A    between atoms: C_18  and  C_19 
REMARK    8  A    between atoms: C_19  and  C_20 
ROOT
ATOM      1  C   UNL d   1     -48.328  13.737  22.775  0.00  0.00     0.105 A 
ATOM      2  C   UNL d   1     -49.743  13.555  22.845  0.00  0.00     0.000 A 
ATOM      3  C   UNL d   1     -48.983  13.238  22.839  0.00  0.00     0.011 A 
ATOM      4  C   UNL d   1     -49.849  14.372  22.787  0.00  0.00     0.090 A 
ATOM      5  C   UNL d   1     -48.433  14.558  22.717  0.00  0.00     0.015 A 
ATOM      6  C   UNL d   1     -49.193  14.876  22.722  0.00  0.00     0.025 A 
ENDROOT
BRANCH   1   7
ATOM      7  S   UNL d   1     -47.568  13.420  22.769  0.00  0.00     0.285 S 
ATOM      8  O   UNL d   1     -47.653  13.231  21.972  0.00  0.00    -0.198 OA
ATOM      9  O   UNL d   1     -47.482  13.610  23.567  0.00  0.00    -0.198 OA
BRANCH   7  10
ATOM     10  N   UNL d   1     -46.804  13.101  22.763  0.00  0.00    -0.157 NA
BRANCH  10  11
ATOM     11  C   UNL d   1     -46.676  12.332  23.047  0.00  0.00     0.114 C 
BRANCH  11  12
ATOM     12  C   UNL d   1     -45.906  12.057  23.149  0.00  0.00     0.041 C 
BRANCH  12  13
ATOM     13  C   UNL d   1     -45.764  11.260  23.311  0.00  0.00     0.083 C 
BRANCH  13  14
ATOM     14  N   UNL d   1     -44.994  10.964  23.319  0.00  0.00    -0.285 N 
ATOM     15  C   UNL d   1     -44.344  11.312  22.951  0.00  0.00     0.183 A 
ATOM     16  N   UNL d   1     -43.688  10.830  23.101  0.00  0.00    -0.222 NA
ATOM     17  C   UNL d   1     -43.937  10.192  23.559  0.00  0.00     0.120 A 
ATOM     18  C   UNL d   1     -44.749  10.277  23.693  0.00  0.00     0.102 A 
ENDBRANCH  13  14
ENDBRANCH  12  13
ENDBRANCH  11  12
ENDBRANCH  10  11
ENDBRANCH   7  10
ENDBRANCH   1   7
BRANCH   2  19
ATOM     19  C   UNL d   1     -50.396  13.059  22.909  0.00  0.00     0.021 C 
ATOM     20  C   UNL d   1     -51.046  12.563  22.970  0.00  0.00     0.004 C 
ATOM     21  C   UNL d   1     -50.492  13.285  23.694  0.00  0.00     0.004 C 
ATOM     22  C   UNL d   1     -50.306  12.826  22.121  0.00  0.00     0.004 C 
ENDBRANCH   2  19
BRANCH   4  23
ATOM     23  O   UNL d   1     -50.610  14.690  22.793  0.00  0.00    -0.328 OA
ATOM     24  C   UNL d   1     -50.717  15.502  22.894  0.00  0.00     0.181 C 
ENDBRANCH   4  23
TORSDOF 8
ENDMDL
MODEL 2
REMARK VINA RESULT:      -6.3      1.232      1.529
REMARK  8 active torsions:
REMARK  status: ('A' for Active; 'I' for Inactive)
REMARK    1  A    between atoms: C_2  and  S_1 
REMARK    2  A    between atoms: N_11  and  S_1 
REMARK    3  A    between atoms: C_10  and  C_3 
REMARK    4  A    between atoms: N_6  and  C_18 
REMARK    5  A    between atoms: C_20  and  N_11 
REMARK    6  A    between atoms: O_17  and  C_12 
REMARK    7  A    between atoms: C_18  and  C_19 
REMARK    8  A    between atoms: C_19  and  C_20 
ROOT
ATOM      1  C   UNL d   1     -48.293  14.240  22.830  0.00  0.00     0.105 A 
ATOM      2  C   UNL d   1     -49.608  13.782  22.512  0.00  0.00     0.000 A 
ATOM      3  C   UNL d   1     -48.793  13.661  22.518  0.00  0.00     0.011 A 
ATOM      4  C   UNL d   1     -49.923  14.482  22.818  0.00  0.00     0.090 A 
ATOM      5  C   UNL d   1     -48.608  14.944  23.137  0.00  0.00     0.015 A 
ATOM      6  C   UNL d   1     -49.423  15.064  23.131  0.00  0.00     0.025 A 
ENDROOT
BRANCH   1   7
ATOM      7  S   UNL d   1     -47.478  14.120  22.836  0.00  0.00     0.285 S 
ATOM      8  O   UNL d   1     -47.574  13.493  23.361  0.00  0.00    -0.198 OA
ATOM      9  O   UNL d   1     -47.381  14.747  22.310  0.00  0.00    -0.198 OA
BRANCH   7  10
ATOM     10  N   UNL d   1     -46.659  13.999  22.842  0.00  0.00    -0.157 NA
BRANCH  10  11
ATOM     11  C   UNL d   1     -46.322  13.432  22.337  0.00  0.00     0.114 C 
BRANCH  11  12
ATOM     12  C   UNL d   1     -45.506  13.319  22.336  0.00  0.00     0.041 C 
BRANCH  12  13
ATOM     13  C   UNL d   1     -45.137  12.937  21.704  0.00  0.00     0.083 C 
BRANCH  13  14
ATOM     14  N   UNL d   1     -44.350  12.698  21.761  0.00  0.00    -0.285 N 
ATOM     15  C   UNL d   1     -44.064  12.109  22.261  0.00  0.00     0.183 A 
ATOM     16  N   UNL d   1     -43.247  12.053  22.136  0.00  0.00    -0.222 NA
ATOM     17  C   UNL d   1     -43.037  12.606  21.562  0.00  0.00     0.120 A 
ATOM     18  C   UNL d   1     -43.723  13.005  21.330  0.00  0.00     0.102 A 
ENDBRANCH  13  14
ENDBRANCH  12  13
ENDBRANCH  11  12
ENDBRANCH  10  11
ENDBRANCH   7  10
ENDBRANCH   1   7
BRANCH   2  19
ATOM     19  C   UNL d   1     -50.107  13.206  22.203  0.00  0.00     0.021 C 
ATOM     20  C   UNL d   1     -50.605  12.634  21.891  0.00  0.00     0.004 C 
ATOM     21  C   UNL d   1     -50.178  12.866  22.948  0.00  0.00     0.004 C 
ATOM     22  C   UNL d   1     -50.041  13.542  21.451  0.00  0.00     0.004 C 
ENDBRANCH   2  19
BRANCH   4  23
ATOM     23  O   UNL d   1     -50.739  14.602  22.812  0.00  0.00    -0.328 OA
ATOM     24  C   UNL d   1     -51.058  15.281  23.159  0.00  0.00     0.181 C 
ENDBRANCH   4  23
TORSDOF 8
ENDMDL
MODEL 3
REMARK VINA RESULT:      -4.7      8.915      9.747
REMARK  8 active torsions:
REMARK  status: ('A' for Active; 'I' for Inactive)
REMARK    1  A    between atoms: C_2  and  S_1 
REMARK    2  A    between atoms: N_11  and  S_1 
REMARK    3  A    between atoms: C_10  and  C_3 
REMARK    4  A    between atoms: N_6  and  C_18 
REMARK    5  A    between atoms: C_20  and  N_11 
REMARK    6  A    between atoms: O_17  and  C_12 
REMARK    7  A    between atoms: C_18  and  C_19 
REMARK    8  A    between atoms: C_19  and  C_20 
ROOT
ATOM      1  C   UNL d   1     -39.906  15.363  18.785  0.00  0.00     0.105 A 
ATOM      2  C   UNL d   1     -39.742  15.206  17.375  0.00  0.00     0.000 A 
ATOM      3  C   UNL d   1     -39.447  15.128  18.140  0.00  0.00     0.011 A 
ATOM      4  C   UNL d   1     -40.498  15.518  17.255  0.00  0.00     0.090 A 
ATOM      5  C   UNL d   1     -40.665  15.677  18.667  0.00  0.00     0.015 A 
ATOM      6  C   UNL d   1     -40.960  15.755  17.902  0.00  0.00     0.025 A 
ENDROOT
BRANCH   1   7
ATOM      7  S   UNL d   1     -39.610  15.285  19.550  0.00  0.00     0.285 S 
ATOM      8  O   UNL d   1     -40.116  14.648  19.681  0.00  0.00    -0.198 OA
ATOM      9  O   UNL d   1     -39.104  15.922  19.419  0.00  0.00    -0.198 OA
BRANCH   7  10
ATOM     10  N   UNL d   1     -39.313  15.207  20.319  0.00  0.00    -0.157 NA
BRANCH  10  11
ATOM     11  C   UNL d   1     -39.503  14.536  20.768  0.00  0.00     0.114 C 
BRANCH  11  12
ATOM     12  C   UNL d   1     -39.003  14.296  21.377  0.00  0.00     0.041 C 
BRANCH  12  13
ATOM     13  C   UNL d   1     -39.312  13.986  22.078  0.00  0.00     0.083 C 
BRANCH  13  14
ATOM     14  N   UNL d   1     -38.811  13.727  22.679  0.00  0.00    -0.285 N 
ATOM     15  C   UNL d   1     -38.662  12.941  22.872  0.00  0.00     0.183 A 
ATOM     16  N   UNL d   1     -38.129  12.938  23.506  0.00  0.00    -0.222 NA
ATOM     17  C   UNL d   1     -37.955  13.720  23.698  0.00  0.00     0.120 A 
ATOM     18  C   UNL d   1     -38.379  14.209  23.183  0.00  0.00     0.102 A 
ENDBRANCH  13  14
ENDBRANCH  12  13
ENDBRANCH  11  12
ENDBRANCH  10  11
ENDBRANCH   7  10
ENDBRANCH   1   7
BRANCH   2  19
ATOM     19  C   UNL d   1     -39.287  14.972  16.731  0.00  0.00     0.021 C 
ATOM     20  C   UNL d   1     -38.833  14.737  16.090  0.00  0.00     0.004 C 
ATOM     21  C   UNL d   1     -38.932  15.714  16.714  0.00  0.00     0.004 C 
ATOM     22  C   UNL d   1     -39.639  14.225  16.743  0.00  0.00     0.004 C 
ENDBRANCH   2  19
BRANCH   4  23
ATOM     23  O   UNL d   1     -40.794  15.596  16.489  0.00  0.00    -0.328 OA
ATOM     24  C   UNL d   1     -41.583  15.810  16.372  0.00  0.00     0.181 C 
ENDBRANCH   4  23
TORSDOF 8
ENDMDL
MODEL 4
REMARK VINA RESULT:      -3.9      6.226      8.654
REMARK  8 active torsions:
REMARK  status: ('A' for Active; 'I' for Inactive)
REMARK    1  A    between atoms: C_2  and  S_1 
REMARK    2  A    between atoms: N_11  and  S_1 
REMARK    3  A    between atoms: C_10  and  C_3 
REMARK    4  A    between atoms: N_6  and  C_18 
REMARK    5  A    between atoms: C_20  and  N_11 
REMARK    6  A    between atoms: O_17  and  C_12 
REMARK    7  A    between atoms: C_18  and  C_19 
REMARK    8  A    between atoms: C_19  and  C_20 
ROOT
ATOM      1  C   UNL d   1     -40.295  14.726  19.976  0.00  0.00     0.105 A 
ATOM      2  C   UNL d   1     -39.963  15.017  18.618  0.00  0.00     0.000 A 
ATOM      3  C   UNL d   1     -40.494  14.721  19.174  0.00  0.00     0.011 A 
ATOM      4  C   UNL d   1     -39.234  15.318  18.863  0.00  0.00     0.090 A 
ATOM      5  C   UNL d   1     -39.564  15.028  20.224  0.00  0.00     0.015 A 
ATOM      6  C   UNL d   1     -39.033  15.324  19.668  0.00  0.00     0.025 A 
ENDROOT
BRANCH   1   7
ATOM      7  S   UNL d   1     -40.826  14.429  20.533  0.00  0.00     0.285 S 
ATOM      8  O   UNL d   1     -41.190  15.167  20.578  0.00  0.00    -0.198 OA
ATOM      9  O   UNL d   1     -40.461  13.692  20.487  0.00  0.00    -0.198 OA
BRANCH   7  10
ATOM     10  N   UNL d   1     -41.359  14.132  21.092  0.00  0.00    -0.157 NA
BRANCH  10  11
ATOM     11  C   UNL d   1     -41.918  13.562  20.866  0.00  0.00     0.114 C 
BRANCH  11  12
ATOM     12  C   UNL d   1     -42.629  13.501  21.276  0.00  0.00     0.041 C 
BRANCH  12  13
ATOM     13  C   UNL d   1     -43.046  12.788  21.291  0.00  0.00     0.083 C 
BRANCH  13  14
ATOM     14  N   UNL d   1     -43.764  12.731  21.691  0.00  0.00    -0.285 N 
ATOM     15  C   UNL d   1     -43.948  12.171  22.266  0.00  0.00     0.183 A 
ATOM     16  N   UNL d   1     -44.724  12.318  22.517  0.00  0.00    -0.222 NA
ATOM     17  C   UNL d   1     -45.011  12.966  22.096  0.00  0.00     0.120 A 
ATOM     18  C   UNL d   1     -44.413  13.221  21.584  0.00  0.00     0.102 A 
ENDBRANCH  13  14
ENDBRANCH  12  13
ENDBRANCH  11  12
ENDBRANCH  10  11
ENDBRANCH   7  10
ENDBRANCH   1   7
BRANCH   2  19
ATOM     19  C   UNL d   1     -40.159  15.013  17.819  0.00  0.00     0.021 C 
ATOM     20  C   UNL d   1     -40.355  15.011  17.023  0.00  0.00     0.004 C 
ATOM     21  C   UNL d   1     -39.818  14.268  17.739  0.00  0.00     0.004 C 
ATOM     22  C   UNL d   1     -40.503  15.760  17.891  0.00  0.00     0.004 C 
ENDBRANCH   2  19
BRANCH   4  23
ATOM     23  O   UNL d   1     -38.703  15.615  18.306  0.00  0.00    -0.328 OA
ATOM     24  C   UNL d   1     -37.976  15.922  18.552  0.00  0.00     0.181 C 
ENDBRANCH   4  23
TORSDOF 8
ENDMDL
MODEL 5
REMARK VINA RESULT:      -3.5      4.626      7.405
REMARK  8 active torsions:
REMARK  status: ('A' for Active; 'I' for Inactive)
REMARK    1  A    between atoms: C_2  and  S_1 
REMARK    2  A    between atoms: N_11  and  S_1 
REMARK    3  A    between atoms: C_10  and  C_3 
REMARK    4  A    between atoms: N_6  and  C_18 
REMARK    5  A    between atoms: C_20  and  N_11 
REMARK    6  A    between atoms: O_17  and  C_12 
REMARK    7  A    between atoms: C_18  and  C_19 
REMARK    8  A    between atoms: C_19  and  C_20 
ROOT
ATOM      1  C   UNL d   1     -41.875  13.721  20.772  0.00  0.00     0.105 A 
ATOM      2  C   UNL d   1     -40.701  14.530  20.868  0.00  0.00     0.000 A 
ATOM      3  C   UNL d   1     -41.316  14.119  21.232  0.00  0.00     0.011 A 
ATOM      4  C   UNL d   1     -40.647  14.544  20.044  0.00  0.00     0.090 A 
ATOM      5  C   UNL d   1     -41.821  13.734  19.944  0.00  0.00     0.015 A 
ATOM      6  C   UNL d   1     -41.207  14.146  19.580  0.00  0.00     0.025 A 
ENDROOT
BRANCH   1   7
ATOM      7  S   UNL d   1     -42.489  13.310  21.136  0.00  0.00     0.285 S 
ATOM      8  O   UNL d   1     -42.725  14.000  21.518  0.00  0.00    -0.198 OA
ATOM      9  O   UNL d   1     -42.252  12.619  20.754  0.00  0.00    -0.198 OA
BRANCH   7  10
ATOM     10  N   UNL d   1     -43.106  12.896  21.502  0.00  0.00    -0.157 NA
BRANCH  10  11
ATOM     11  C   UNL d   1     -43.876  13.206  21.486  0.00  0.00     0.114 C 
BRANCH  11  12
ATOM     12  C   UNL d   1     -44.470  12.846  21.928  0.00  0.00     0.041 C 
BRANCH  12  13
ATOM     13  C   UNL d   1     -45.225  13.180  21.968  0.00  0.00     0.083 C 
BRANCH  13  14
ATOM     14  N   UNL d   1     -45.746  12.968  22.570  0.00  0.00    -0.285 N 
ATOM     15  C   UNL d   1     -45.683  12.296  23.043  0.00  0.00     0.183 A 
ATOM     16  N   UNL d   1     -46.322  12.305  23.571  0.00  0.00    -0.222 NA
ATOM     17  C   UNL d   1     -46.771  12.979  23.419  0.00  0.00     0.120 A 
ATOM     18  C   UNL d   1     -46.412  13.389  22.797  0.00  0.00     0.102 A 
ENDBRANCH  13  14
ENDBRANCH  12  13
ENDBRANCH  11  12
ENDBRANCH  10  11
ENDBRANCH   7  10
ENDBRANCH   1   7
BRANCH   2  19
ATOM     19  C   UNL d   1     -40.144  14.926  21.325  0.00  0.00     0.021 C 
ATOM     20  C   UNL d   1     -39.589  15.324  21.780  0.00  0.00     0.004 C 
ATOM     21  C   UNL d   1     -39.697  14.237  21.378  0.00  0.00     0.004 C 
ATOM     22  C   UNL d   1     -40.586  15.622  21.276  0.00  0.00     0.004 C 
ENDBRANCH   2  19
BRANCH   4  23
ATOM     23  O   UNL d   1     -40.032  14.956  19.680  0.00  0.00    -0.328 OA
ATOM     24  C   UNL d   1     -39.983  14.980  18.855  0.00  0.00     0.181 C 
ENDBRANCH   4  23
TORSDOF 8
ENDMDL
