MODEL 1
REMARK VINA RESULT:      -8.3      0.000      0.000
REMARK  4 active torsions:
REMARK  status: ('A' for Active; 'I' for Inactive)
REMARK    1  A    between atoms: N_8  and  C_2 
REMARK    2  A    between atoms: C_9  and  C_3 
REMARK    3  A    between atoms: C_7  and  N_10 
REMARK    4  A    between atoms: N_10  and  N_8 
ROOT
ATOM      1  N   UNL d   1      51.665  33.248  52.786  0.00  0.00    -0.219 NA
ATOM      2  C   UNL d   1      51.547  34.055  52.792  0.00  0.00     0.215 A 
ATOM      3  C   UNL d   1      52.419  33.121  53.131  0.00  0.00     0.090 A 
ATOM      4  S   UNL d   1      52.206  34.422  53.129  0.00  0.00    -0.045 SA
ATOM      5  C   UNL d   1      52.734  33.847  53.334  0.00  0.00     0.058 A 
ENDROOT
BRANCH   2   6
ATOM      6  N   UNL d   1      50.882  34.450  52.509  0.00  0.00    -0.120 NA
BRANCH   6   7
ATOM      7  N   UNL d   1      50.169  34.377  52.897  0.00  0.00    -0.127 NA
BRANCH   7   8
ATOM      8  C   UNL d   1      49.490  34.737  52.581  0.00  0.00     0.184 A 
ATOM      9  N   UNL d   1      49.130  35.247  53.110  0.00  0.00    -0.224 NA
ATOM     10  C   UNL d   1      48.462  35.705  53.029  0.00  0.00     0.101 A 
ATOM     11  C   UNL d   1      47.971  35.774  52.386  0.00  0.00     0.021 A 
ATOM     12  C   UNL d   1      48.030  35.392  51.649  0.00  0.00     0.002 A 
ATOM     13  C   UNL d   1      48.585  34.862  51.393  0.00  0.00     0.003 A 
ATOM     14  C   UNL d   1      49.253  34.556  51.808  0.00  0.00     0.041 A 
ENDBRANCH   7   8
ENDBRANCH   6   7
ENDBRANCH   2   6
BRANCH   3  15
ATOM     15  C   UNL d   1      52.748  32.358  53.227  0.00  0.00     0.018 A 
ATOM     16  C   UNL d   1      52.429  31.705  52.857  0.00  0.00     0.002 A 
ATOM     17  C   UNL d   1      52.764  30.960  52.961  0.00  0.00     0.011 A 
ATOM     18  C   UNL d   1      53.427  30.872  53.444  0.00  0.00     0.058 A 
ATOM     19  C   UNL d   1      53.761  31.518  53.824  0.00  0.00     0.011 A 
ATOM     20 CL   UNL d   1      53.755  30.109  53.540  0.00  0.00    -0.082 Cl
ATOM     21  C   UNL d   1      53.424  32.271  53.720  0.00  0.00     0.002 A 
ENDBRANCH   3  15
TORSDOF 4
ENDMDL
MODEL 2
REMARK VINA RESULT:      -8.0      1.311      1.759
REMARK  4 active torsions:
REMARK  status: ('A' for Active; 'I' for Inactive)
REMARK    1  A    between atoms: N_8  and  C_2 
REMARK    2  A    between atoms: C_9  and  C_3 
REMARK    3  A    between atoms: C_7  and  N_10 
REMARK    4  A    between atoms: N_10  and  N_8 
ROOT
ATOM      1  N   UNL d   1      51.912  34.220  53.353  0.00  0.00    -0.219 NA
ATOM      2  C   UNL d   1      51.336  33.978  52.830  0.00  0.00     0.215 A 
ATOM      3  C   UNL d   1      52.431  33.568  53.447  0.00  0.00     0.090 A 
ATOM      4  S   UNL d   1      51.488  33.198  52.603  0.00  0.00    -0.045 SA
ATOM      5  C   UNL d   1      52.158  32.954  52.982  0.00  0.00     0.058 A 
ENDROOT
BRANCH   2   6
ATOM      6  N   UNL d   1      50.700  34.429  52.564  0.00  0.00    -0.120 NA
BRANCH   6   7
ATOM      7  N   UNL d   1      49.977  34.373  52.936  0.00  0.00    -0.127 NA
BRANCH   7   8
ATOM      8  C   UNL d   1      49.330  34.805  52.645  0.00  0.00     0.184 A 
ATOM      9  N   UNL d   1      49.019  35.319  53.203  0.00  0.00    -0.224 NA
ATOM     10  C   UNL d   1      48.395  35.837  53.151  0.00  0.00     0.101 A 
ATOM     11  C   UNL d   1      47.907  35.980  52.517  0.00  0.00     0.021 A 
ATOM     12  C   UNL d   1      47.927  35.631  51.762  0.00  0.00     0.002 A 
ATOM     13  C   UNL d   1      48.432  35.068  51.475  0.00  0.00     0.003 A 
ATOM     14  C   UNL d   1      49.074  34.685  51.867  0.00  0.00     0.041 A 
ENDBRANCH   7   8
ENDBRANCH   6   7
ENDBRANCH   2   6
BRANCH   3  15
ATOM     15  C   UNL d   1      53.102  33.594  53.945  0.00  0.00     0.018 A 
ATOM     16  C   UNL d   1      53.241  34.225  54.442  0.00  0.00     0.002 A 
ATOM     17  C   UNL d   1      53.907  34.237  54.927  0.00  0.00     0.011 A 
ATOM     18  C   UNL d   1      54.438  33.606  54.911  0.00  0.00     0.058 A 
ATOM     19  C   UNL d   1      54.313  32.962  54.416  0.00  0.00     0.011 A 
ATOM     20 CL   UNL d   1      55.109  33.632  55.409  0.00  0.00    -0.082 Cl
ATOM     21  C   UNL d   1      53.642  32.949  53.926  0.00  0.00     0.002 A 
ENDBRANCH   3  15
TORSDOF 4
ENDMDL
MODEL 3
REMARK VINA RESULT:      -7.8      1.971      5.160
REMARK  4 active torsions:
REMARK  status: ('A' for Active; 'I' for Inactive)
REMARK    1  A    between atoms: N_8  and  C_2 
REMARK    2  A    between atoms: C_9  and  C_3 
REMARK    3  A    between atoms: C_7  and  N_10 
REMARK    4  A    between atoms: N_10  and  N_8 
ROOT
ATOM      1  N   UNL d   1      51.095  33.493  52.928  0.00  0.00    -0.219 NA
ATOM      2  C   UNL d   1      51.877  33.485  53.157  0.00  0.00     0.215 A 
ATOM      3  C   UNL d   1      50.916  34.290  52.737  0.00  0.00     0.090 A 
ATOM      4  S   UNL d   1      52.180  34.253  53.111  0.00  0.00    -0.045 SA
ATOM      5  C   UNL d   1      51.589  34.739  52.854  0.00  0.00     0.058 A 
ENDROOT
BRANCH   2   6
ATOM      6  N   UNL d   1      52.307  32.825  53.398  0.00  0.00    -0.120 NA
BRANCH   6   7
ATOM      7  N   UNL d   1      52.625  32.321  52.842  0.00  0.00    -0.127 NA
BRANCH   7   8
ATOM      8  C   UNL d   1      52.916  31.579  53.077  0.00  0.00     0.184 A 
ATOM      9  N   UNL d   1      52.495  30.958  52.751  0.00  0.00    -0.224 NA
ATOM     10  C   UNL d   1      52.592  30.154  52.833  0.00  0.00     0.101 A 
ATOM     11  C   UNL d   1      53.145  29.754  53.272  0.00  0.00     0.021 A 
ATOM     12  C   UNL d   1      53.752  30.068  53.747  0.00  0.00     0.002 A 
ATOM     13  C   UNL d   1      53.939  30.843  53.888  0.00  0.00     0.003 A 
ATOM     14  C   UNL d   1      53.566  31.538  53.589  0.00  0.00     0.041 A 
ENDBRANCH   7   8
ENDBRANCH   6   7
ENDBRANCH   2   6
BRANCH   3  15
ATOM     15  C   UNL d   1      50.160  34.531  52.474  0.00  0.00     0.018 A 
ATOM     16  C   UNL d   1      49.641  34.922  52.966  0.00  0.00     0.002 A 
ATOM     17  C   UNL d   1      48.899  35.153  52.693  0.00  0.00     0.011 A 
ATOM     18  C   UNL d   1      48.678  34.989  51.916  0.00  0.00     0.058 A 
ATOM     19  C   UNL d   1      49.189  34.597  51.406  0.00  0.00     0.011 A 
ATOM     20 CL   UNL d   1      47.922  35.231  51.653  0.00  0.00    -0.082 Cl
ATOM     21  C   UNL d   1      49.938  34.363  51.680  0.00  0.00     0.002 A 
ENDBRANCH   3  15
TORSDOF 4
ENDMDL
MODEL 4
REMARK VINA RESULT:      -7.4      2.291      5.317
REMARK  4 active torsions:
REMARK  status: ('A' for Active; 'I' for Inactive)
REMARK    1  A    between atoms: N_8  and  C_2 
REMARK    2  A    between atoms: C_9  and  C_3 
REMARK    3  A    between atoms: C_7  and  N_10 
REMARK    4  A    between atoms: N_10  and  N_8 
ROOT
ATOM      1  N   UNL d   1      50.250  34.461  53.212  0.00  0.00    -0.219 NA
ATOM      2  C   UNL d   1      50.875  34.023  52.929  0.00  0.00     0.215 A 
ATOM      3  C   UNL d   1      49.785  34.664  52.544  0.00  0.00     0.090 A 
ATOM      4  S   UNL d   1      50.806  33.953  52.109  0.00  0.00    -0.045 SA
ATOM      5  C   UNL d   1      50.140  34.346  51.879  0.00  0.00     0.058 A 
ENDROOT
BRANCH   2   6
ATOM      6  N   UNL d   1      51.484  33.697  53.379  0.00  0.00    -0.120 NA
BRANCH   6   7
ATOM      7  N   UNL d   1      52.241  33.991  53.314  0.00  0.00    -0.127 NA
BRANCH   7   8
ATOM      8  C   UNL d   1      52.847  33.677  53.787  0.00  0.00     0.184 A 
ATOM      9  N   UNL d   1      53.108  34.206  54.355  0.00  0.00    -0.224 NA
ATOM     10  C   UNL d   1      53.684  34.126  54.924  0.00  0.00     0.101 A 
ATOM     11  C   UNL d   1      54.158  33.485  55.077  0.00  0.00     0.021 A 
ATOM     12  C   UNL d   1      54.172  32.749  54.689  0.00  0.00     0.002 A 
ATOM     13  C   UNL d   1      53.721  32.493  54.067  0.00  0.00     0.003 A 
ATOM     14  C   UNL d   1      53.116  32.906  53.649  0.00  0.00     0.041 A 
ENDBRANCH   7   8
ENDBRANCH   6   7
ENDBRANCH   2   6
BRANCH   3  15
ATOM     15  C   UNL d   1      49.086  35.118  52.602  0.00  0.00     0.018 A 
ATOM     16  C   UNL d   1      48.898  35.529  53.280  0.00  0.00     0.002 A 
ATOM     17  C   UNL d   1      48.205  35.972  53.322  0.00  0.00     0.011 A 
ATOM     18  C   UNL d   1      47.696  36.001  52.674  0.00  0.00     0.058 A 
ATOM     19  C   UNL d   1      47.869  35.593  51.983  0.00  0.00     0.011 A 
ATOM     20 CL   UNL d   1      46.996  36.455  52.732  0.00  0.00    -0.082 Cl
ATOM     21  C   UNL d   1      48.569  35.145  51.939  0.00  0.00     0.002 A 
ENDBRANCH   3  15
TORSDOF 4
ENDMDL
MODEL 5
REMARK VINA RESULT:      -6.0     10.282     11.089
REMARK  4 active torsions:
REMARK  status: ('A' for Active; 'I' for Inactive)
REMARK    1  A    between atoms: N_8  and  C_2 
REMARK    2  A    between atoms: C_9  and  C_3 
REMARK    3  A    between atoms: C_7  and  N_10 
REMARK    4  A    between atoms: N_10  and  N_8 
ROOT
ATOM      1  N   UNL d   1      44.507  29.811  60.148  0.00  0.00    -0.219 NA
ATOM      2  C   UNL d   1      44.596  29.921  59.346  0.00  0.00     0.215 A 
ATOM      3  C   UNL d   1      44.563  30.573  60.495  0.00  0.00     0.090 A 
ATOM      4  S   UNL d   1      44.705  30.726  59.194  0.00  0.00    -0.045 SA
ATOM      5  C   UNL d   1      44.683  31.118  59.899  0.00  0.00     0.058 A 
ENDROOT
BRANCH   2   6
ATOM      6  N   UNL d   1      44.583  29.332  58.770  0.00  0.00    -0.120 NA
BRANCH   6   7
ATOM      7  N   UNL d   1      45.264  28.925  58.587  0.00  0.00    -0.127 NA
BRANCH   7   8
ATOM      8  C   UNL d   1      45.233  28.286  58.056  0.00  0.00     0.184 A 
ATOM      9  N   UNL d   1      45.408  27.571  58.414  0.00  0.00    -0.224 NA
ATOM     10  C   UNL d   1      45.440  26.820  58.103  0.00  0.00     0.101 A 
ATOM     11  C   UNL d   1      45.303  26.583  57.339  0.00  0.00     0.021 A 
ATOM     12  C   UNL d   1      45.096  27.051  56.683  0.00  0.00     0.002 A 
ATOM     13  C   UNL d   1      44.980  27.851  56.645  0.00  0.00     0.003 A 
ATOM     14  C   UNL d   1      45.040  28.423  57.263  0.00  0.00     0.041 A 
ENDBRANCH   7   8
ENDBRANCH   6   7
ENDBRANCH   2   6
BRANCH   3  15
ATOM     15  C   UNL d   1      44.499  30.698  61.320  0.00  0.00     0.018 A 
ATOM     16  C   UNL d   1      44.377  31.441  61.632  0.00  0.00     0.002 A 
ATOM     17  C   UNL d   1      44.316  31.548  62.446  0.00  0.00     0.011 A 
ATOM     18  C   UNL d   1      44.378  30.899  62.951  0.00  0.00     0.058 A 
ATOM     19  C   UNL d   1      44.501  30.143  62.654  0.00  0.00     0.011 A 
ATOM     20 CL   UNL d   1      44.314  31.025  63.776  0.00  0.00    -0.082 Cl
ATOM     21  C   UNL d   1      44.563  30.034  61.832  0.00  0.00     0.002 A 
ENDBRANCH   3  15
TORSDOF 4
ENDMDL
MODEL 6
REMARK VINA RESULT:      -6.0      9.939     10.502
REMARK  4 active torsions:
REMARK  status: ('A' for Active; 'I' for Inactive)
REMARK    1  A    between atoms: N_8  and  C_2 
REMARK    2  A    between atoms: C_9  and  C_3 
REMARK    3  A    between atoms: C_7  and  N_10 
REMARK    4  A    between atoms: N_10  and  N_8 
ROOT
ATOM      1  N   UNL d   1      44.722  29.338  58.902  0.00  0.00    -0.219 NA
ATOM      2  C   UNL d   1      44.650  30.137  59.046  0.00  0.00     0.215 A 
ATOM      3  C   UNL d   1      44.831  29.259  58.074  0.00  0.00     0.090 A 
ATOM      4  S   UNL d   1      44.712  30.546  58.331  0.00  0.00    -0.045 SA
ATOM      5  C   UNL d   1      44.822  30.006  57.742  0.00  0.00     0.058 A 
ENDROOT
BRANCH   2   6
ATOM      6  N   UNL d   1      44.534  30.490  59.781  0.00  0.00    -0.120 NA
BRANCH   6   7
ATOM      7  N   UNL d   1      45.021  30.300  60.406  0.00  0.00    -0.127 NA
BRANCH   7   8
ATOM      8  C   UNL d   1      44.800  30.509  61.179  0.00  0.00     0.184 A 
ATOM      9  N   UNL d   1      44.693  31.316  61.268  0.00  0.00    -0.224 NA
ATOM     10  C   UNL d   1      44.479  31.749  61.922  0.00  0.00     0.101 A 
ATOM     11  C   UNL d   1      44.314  31.485  62.672  0.00  0.00     0.021 A 
ATOM     12  C   UNL d   1      44.322  30.704  62.957  0.00  0.00     0.002 A 
ATOM     13  C   UNL d   1      44.495  30.020  62.562  0.00  0.00     0.003 A 
ATOM     14  C   UNL d   1      44.714  29.918  61.753  0.00  0.00     0.041 A 
ENDBRANCH   7   8
ENDBRANCH   6   7
ENDBRANCH   2   6
BRANCH   3  15
ATOM     15  C   UNL d   1      44.928  28.517  57.701  0.00  0.00     0.018 A 
ATOM     16  C   UNL d   1      45.440  27.954  57.994  0.00  0.00     0.002 A 
ATOM     17  C   UNL d   1      45.525  27.228  57.615  0.00  0.00     0.011 A 
ATOM     18  C   UNL d   1      45.089  27.067  56.934  0.00  0.00     0.058 A 
ATOM     19  C   UNL d   1      44.569  27.622  56.624  0.00  0.00     0.011 A 
ATOM     20 CL   UNL d   1      45.186  26.325  56.561  0.00  0.00    -0.082 Cl
ATOM     21  C   UNL d   1      44.482  28.356  57.006  0.00  0.00     0.002 A 
ENDBRANCH   3  15
TORSDOF 4
ENDMDL
MODEL 7
REMARK VINA RESULT:      -5.9     10.635     11.085
REMARK  4 active torsions:
REMARK  status: ('A' for Active; 'I' for Inactive)
REMARK    1  A    between atoms: N_8  and  C_2 
REMARK    2  A    between atoms: C_9  and  C_3 
REMARK    3  A    between atoms: C_7  and  N_10 
REMARK    4  A    between atoms: N_10  and  N_8 
ROOT
ATOM      1  N   UNL d   1      44.433  29.438  60.737  0.00  0.00    -0.219 NA
ATOM      2  C   UNL d   1      44.506  30.061  60.217  0.00  0.00     0.215 A 
ATOM      3  C   UNL d   1      44.586  29.753  61.500  0.00  0.00     0.090 A 
ATOM      4  S   UNL d   1      44.698  30.745  60.639  0.00  0.00    -0.045 SA
ATOM      5  C   UNL d   1      44.745  30.550  61.421  0.00  0.00     0.058 A 
ENDROOT
BRANCH   2   6
ATOM      6  N   UNL d   1      44.407  30.026  59.400  0.00  0.00    -0.120 NA
BRANCH   6   7
ATOM      7  N   UNL d   1      45.057  29.998  58.911  0.00  0.00    -0.127 NA
BRANCH   7   8
ATOM      8  C   UNL d   1      44.958  29.845  58.100  0.00  0.00     0.184 A 
ATOM      9  N   UNL d   1      44.766  30.517  57.674  0.00  0.00    -0.224 NA
ATOM     10  C   UNL d   1      44.623  30.614  56.879  0.00  0.00     0.101 A 
ATOM     11  C   UNL d   1      44.634  30.054  56.292  0.00  0.00     0.021 A 
ATOM     12  C   UNL d   1      44.794  29.240  56.357  0.00  0.00     0.002 A 
ATOM     13  C   UNL d   1      44.978  28.810  57.017  0.00  0.00     0.003 A 
ATOM     14  C   UNL d   1      45.055  29.074  57.815  0.00  0.00     0.041 A 
ENDBRANCH   7   8
ENDBRANCH   6   7
ENDBRANCH   2   6
BRANCH   3  15
ATOM     15  C   UNL d   1      44.565  29.284  62.193  0.00  0.00     0.018 A 
ATOM     16  C   UNL d   1      44.756  28.492  62.179  0.00  0.00     0.002 A 
ATOM     17  C   UNL d   1      44.731  28.044  62.870  0.00  0.00     0.011 A 
ATOM     18  C   UNL d   1      44.511  28.399  63.581  0.00  0.00     0.058 A 
ATOM     19  C   UNL d   1      44.315  29.196  63.613  0.00  0.00     0.011 A 
ATOM     20 CL   UNL d   1      44.490  27.930  64.274  0.00  0.00    -0.082 Cl
ATOM     21  C   UNL d   1      44.340  29.649  62.917  0.00  0.00     0.002 A 
ENDBRANCH   3  15
TORSDOF 4
ENDMDL
MODEL 8
REMARK VINA RESULT:      -5.6      9.814     10.778
REMARK  4 active torsions:
REMARK  status: ('A' for Active; 'I' for Inactive)
REMARK    1  A    between atoms: N_8  and  C_2 
REMARK    2  A    between atoms: C_9  and  C_3 
REMARK    3  A    between atoms: C_7  and  N_10 
REMARK    4  A    between atoms: N_10  and  N_8 
ROOT
ATOM      1  N   UNL d   1      44.590  27.645  56.634  0.00  0.00    -0.219 NA
ATOM      2  C   UNL d   1      44.865  26.957  56.974  0.00  0.00     0.215 A 
ATOM      3  C   UNL d   1      44.958  28.274  57.050  0.00  0.00     0.090 A 
ATOM      4  S   UNL d   1      45.389  27.148  57.583  0.00  0.00    -0.045 SA
ATOM      5  C   UNL d   1      45.442  27.953  57.625  0.00  0.00     0.058 A 
ENDROOT
BRANCH   2   6
ATOM      6  N   UNL d   1      44.660  26.190  56.753  0.00  0.00    -0.120 NA
BRANCH   6   7
ATOM      7  N   UNL d   1      45.134  25.774  56.237  0.00  0.00    -0.127 NA
BRANCH   7   8
ATOM      8  C   UNL d   1      44.898  25.022  55.975  0.00  0.00     0.184 A 
ATOM      9  N   UNL d   1      44.892  24.961  55.159  0.00  0.00    -0.224 NA
ATOM     10  C   UNL d   1      44.699  24.333  54.679  0.00  0.00     0.101 A 
ATOM     11  C   UNL d   1      44.457  23.588  54.894  0.00  0.00     0.021 A 
ATOM     12  C   UNL d   1      44.346  23.282  55.660  0.00  0.00     0.002 A 
ATOM     13  C   UNL d   1      44.451  23.649  56.374  0.00  0.00     0.003 A 
ATOM     14  C   UNL d   1      44.702  24.439  56.530  0.00  0.00     0.041 A 
ENDBRANCH   7   8
ENDBRANCH   6   7
ENDBRANCH   2   6
BRANCH   3  15
ATOM     15  C   UNL d   1      44.819  29.078  56.866  0.00  0.00     0.018 A 
ATOM     16  C   UNL d   1      44.743  29.334  56.096  0.00  0.00     0.002 A 
ATOM     17  C   UNL d   1      44.606  30.129  55.931  0.00  0.00     0.011 A 
ATOM     18  C   UNL d   1      44.544  30.672  56.549  0.00  0.00     0.058 A 
ATOM     19  C   UNL d   1      44.618  30.431  57.331  0.00  0.00     0.011 A 
ATOM     20 CL   UNL d   1      44.405  31.475  56.366  0.00  0.00    -0.082 Cl
ATOM     21  C   UNL d   1      44.756  29.628  57.499  0.00  0.00     0.002 A 
ENDBRANCH   3  15
TORSDOF 4
ENDMDL
