MODEL 1
REMARK VINA RESULT:      88.7      0.000      0.000
REMARK  3 active torsions:
REMARK  status: ('A' for Active; 'I' for Inactive)
REMARK    1  A    between atoms: C_11  and  C_6 
REMARK       I    between atoms: N_15  and  C_11 
REMARK    2  A    between atoms: C_23  and  N_15 
REMARK    3  A    between atoms: C_22  and  C_23 
ROOT
ATOM      1  C   UNL d   1     -54.773-100.474 -40.967  0.00  0.00     0.155 A 
ATOM      2  C   UNL d   1     -54.784-101.126 -41.476  0.00  0.00     0.091 A 
ATOM      3  N   UNL d   1     -54.754-100.593 -40.153  0.00  0.00    -0.210 NA
ATOM      4  N   UNL d   1     -54.757-102.003 -40.354  0.00  0.00    -0.258 N 
ATOM      5  N   UNL d   1     -54.781 -99.713 -41.277  0.00  0.00    -0.272 N 
ATOM      6  C   UNL d   1     -54.812-100.241 -42.607  0.00  0.00     0.094 A 
ATOM      7  C   UNL d   1     -54.746-101.347 -39.851  0.00  0.00     0.152 A 
ATOM      8  C   UNL d   1     -54.776-101.894 -41.169  0.00  0.00     0.269 A 
ATOM      9  C   UNL d   1     -54.801 -99.596 -42.103  0.00  0.00     0.175 A 
ATOM     10  C   UNL d   1     -54.804-101.014 -42.294  0.00  0.00     0.016 A 
ATOM     11  C   UNL d   1     -54.726-101.469 -39.033  0.00  0.00     0.035 A 
ATOM     12  C   UNL d   1     -54.749-102.769 -40.049  0.00  0.00     0.084 A 
ATOM     13  N   UNL d   1     -54.809 -98.826 -42.412  0.00  0.00    -0.128 N 
ATOM     14  O   UNL d   1     -54.787-102.540 -41.675  0.00  0.00    -0.266 OA
ATOM     15  C   UNL d   1     -54.729-102.877 -39.236  0.00  0.00     0.019 A 
ATOM     16  C   UNL d   1     -54.718-102.225 -38.727  0.00  0.00     0.005 A 
ATOM     17  C   UNL d   1     -54.770 -99.064 -40.770  0.00  0.00     0.102 C 
ATOM     18  C   UNL d   1     -54.715-100.819 -38.525  0.00  0.00     0.003 C 
ENDROOT
BRANCH   6  19
ATOM     19  C   UNL d   1     -54.832-100.127 -43.429  0.00  0.00     0.282 C 
ATOM     20  N   UNL d   1     -54.766 -99.364 -43.736  0.00  0.00    -0.206 NA
ATOM     21  O   UNL d   1     -54.915-100.770 -43.932  0.00  0.00    -0.265 OA
BRANCH  20  22
ATOM     22  C   UNL d   1     -54.786 -99.255 -44.551  0.00  0.00     0.104 C 
BRANCH  22  23
ATOM     23  C   UNL d   1     -55.516 -99.226 -44.940  0.00  0.00     0.038 A 
ATOM     24  C   UNL d   1     -55.553 -98.943 -45.714  0.00  0.00     0.101 A 
ATOM     25  N   UNL d   1     -56.278 -98.913 -46.105  0.00  0.00    -0.242 NA
ATOM     26  C   UNL d   1     -56.962 -99.165 -45.721  0.00  0.00     0.099 A 
ATOM     27  C   UNL d   1     -56.924 -99.448 -44.945  0.00  0.00     0.021 A 
ATOM     28  C   UNL d   1     -56.196 -99.476 -44.558  0.00  0.00     0.005 A 
ENDBRANCH  22  23
ENDBRANCH  20  22
ENDBRANCH   6  19
TORSDOF 3
ENDMDL
