MODEL 1
REMARK VINA RESULT:      27.0      0.000      0.000
REMARK  1 active torsions:
REMARK  status: ('A' for Active; 'I' for Inactive)
REMARK    1  A    between atoms: C_5  and  C_1 
ROOT
ATOM      1  N   UNL d   1      59.614  49.680  51.633  0.00  0.00    -0.242 NA
ATOM      2  C   UNL d   1      59.501  49.660  50.817  0.00  0.00     0.117 A 
ATOM      3  C   UNL d   1      60.394  49.671  51.929  0.00  0.00     0.081 A 
ATOM      4  C   UNL d   1      60.128  49.631  50.304  0.00  0.00     0.022 A 
ATOM      5  C   UNL d   1      61.020  49.642  51.424  0.00  0.00     0.018 A 
ATOM      6  C   UNL d   1      60.891  49.623  50.620  0.00  0.00     0.003 A 
ATOM      7  C   UNL d   1      60.515  49.691  52.742  0.00  0.00     0.019 A 
ATOM      8  C   UNL d   1      61.783  49.634  51.740  0.00  0.00     0.002 A 
ATOM      9  C   UNL d   1      61.286  49.682  53.049  0.00  0.00     0.002 A 
ATOM     10  C   UNL d   1      61.912  49.654  52.539  0.00  0.00     0.000 A 
ENDROOT
BRANCH   2  11
ATOM     11  C   UNL d   1      58.745  49.668  50.504  0.00  0.00     0.180 A 
ATOM     12  N   UNL d   1      58.543  49.687  49.696  0.00  0.00    -0.224 NA
ATOM     13  C   UNL d   1      57.734  49.690  49.642  0.00  0.00     0.101 A 
ATOM     14  C   UNL d   1      57.216  49.706  48.981  0.00  0.00     0.021 A 
ATOM     15  C   UNL d   1      57.418  49.672  50.405  0.00  0.00     0.101 A 
ATOM     16  C   UNL d   1      56.402  49.704  49.091  0.00  0.00     0.002 A 
ATOM     17  C   UNL d   1      56.085  49.687  49.854  0.00  0.00     0.002 A 
ATOM     18  C   UNL d   1      56.581  49.671  50.514  0.00  0.00     0.021 A 
ATOM     19  N   UNL d   1      58.028  49.659  50.939  0.00  0.00    -0.224 NA
ENDBRANCH   2  11
TORSDOF 1
ENDMDL
MODEL 2
REMARK VINA RESULT:      27.8      0.521      4.165
REMARK  1 active torsions:
REMARK  status: ('A' for Active; 'I' for Inactive)
REMARK    1  A    between atoms: C_5  and  C_1 
ROOT
ATOM      1  N   UNL d   1      58.154  49.614  50.679  0.00  0.00    -0.242 NA
ATOM      2  C   UNL d   1      58.888  49.663  50.308  0.00  0.00     0.117 A 
ATOM      3  C   UNL d   1      57.466  49.611  50.206  0.00  0.00     0.081 A 
ATOM      4  C   UNL d   1      58.951  49.708  49.501  0.00  0.00     0.022 A 
ATOM      5  C   UNL d   1      57.524  49.655  49.405  0.00  0.00     0.018 A 
ATOM      6  C   UNL d   1      58.257  49.703  49.054  0.00  0.00     0.003 A 
ATOM      7  C   UNL d   1      56.730  49.562  50.570  0.00  0.00     0.019 A 
ATOM      8  C   UNL d   1      56.830  49.650  48.958  0.00  0.00     0.002 A 
ATOM      9  C   UNL d   1      56.039  49.558  50.110  0.00  0.00     0.002 A 
ATOM     10  C   UNL d   1      56.100  49.603  49.305  0.00  0.00     0.000 A 
ENDROOT
BRANCH   2  11
ATOM     11  C   UNL d   1      59.576  49.668  50.751  0.00  0.00     0.180 A 
ATOM     12  N   UNL d   1      60.355  49.650  50.458  0.00  0.00    -0.224 NA
ATOM     13  C   UNL d   1      60.860  49.663  51.093  0.00  0.00     0.101 A 
ATOM     14  C   UNL d   1      61.698  49.654  51.142  0.00  0.00     0.021 A 
ATOM     15  C   UNL d   1      60.412  49.688  51.787  0.00  0.00     0.101 A 
ATOM     16  C   UNL d   1      62.072  49.671  51.874  0.00  0.00     0.002 A 
ATOM     17  C   UNL d   1      61.624  49.697  52.568  0.00  0.00     0.002 A 
ATOM     18  C   UNL d   1      60.799  49.706  52.536  0.00  0.00     0.021 A 
ATOM     19  N   UNL d   1      59.626  49.692  51.589  0.00  0.00    -0.224 NA
ENDBRANCH   2  11
TORSDOF 1
ENDMDL
