MODEL 1
REMARK VINA RESULT:      -7.2      0.000      0.000
REMARK  6 active torsions:
REMARK  status: ('A' for Active; 'I' for Inactive)
REMARK    1  A    between atoms: S_12  and  C_5 
REMARK    2  A    between atoms: C_14  and  C_6 
REMARK    3  A    between atoms: C_10  and  C_13 
REMARK    4  A    between atoms: C_21  and  S_12 
REMARK    5  A    between atoms: C_15  and  C_21 
REMARK       I    between atoms: N_16  and  C_15 
REMARK    6  A    between atoms: C_18  and  N_16 
ROOT
ATOM      1  C   UNL d   1      53.772  32.450  54.141  0.00  0.00     0.186 A 
ATOM      2  C   UNL d   1      53.256  33.047  53.879  0.00  0.00     0.065 A 
ATOM      3  N   UNL d   1      53.640  31.665  53.931  0.00  0.00    -0.203 NA
ATOM      4  N   UNL d   1      52.477  32.072  53.198  0.00  0.00    -0.220 NA
ATOM      5  C   UNL d   1      52.616  32.848  53.411  0.00  0.00     0.116 A 
ATOM      6  C   UNL d   1      52.988  31.470  53.456  0.00  0.00     0.165 A 
ATOM      7  O   UNL d   1      54.420  32.639  54.611  0.00  0.00    -0.289 OA
ATOM      8  C   UNL d   1      53.392  33.832  54.091  0.00  0.00     0.007 A 
ATOM      9  C   UNL d   1      54.561  33.430  54.828  0.00  0.00     0.102 A 
ATOM     10  C   UNL d   1      54.047  34.023  54.567  0.00  0.00     0.023 A 
ATOM     11  C   UNL d   1      55.202  33.617  55.294  0.00  0.00     0.025 A 
ATOM     12  C   UNL d   1      54.184  34.802  54.780  0.00  0.00     0.002 A 
ATOM     13  C   UNL d   1      55.348  34.396  55.513  0.00  0.00     0.002 A 
ATOM     14  C   UNL d   1      54.836  34.992  55.254  0.00  0.00     0.000 A 
ENDROOT
BRANCH   5  15
ATOM     15  S   UNL d   1      52.099  33.445  53.149  0.00  0.00    -0.062 SA
BRANCH  15  16
ATOM     16  C   UNL d   1      51.297  33.289  53.072  0.00  0.00     0.099 C 
BRANCH  16  17
ATOM     17  C   UNL d   1      50.797  33.863  52.763  0.00  0.00     0.286 C 
ATOM     18  N   UNL d   1      49.989  33.854  52.947  0.00  0.00    -0.208 NA
ATOM     19  O   UNL d   1      51.089  34.452  52.269  0.00  0.00    -0.265 OA
BRANCH  18  20
ATOM     20  C   UNL d   1      49.490  34.427  52.638  0.00  0.00     0.085 A 
ATOM     21  C   UNL d   1      49.127  34.956  53.143  0.00  0.00     0.025 A 
ATOM     22  C   UNL d   1      48.629  35.529  52.843  0.00  0.00     0.066 A 
ATOM     23  C   UNL d   1      48.490  35.574  52.025  0.00  0.00     0.006 A 
ATOM     24  C   UNL d   1      48.858  35.039  51.523  0.00  0.00     0.002 A 
ATOM     25  C   UNL d   1      49.362  34.459  51.826  0.00  0.00     0.019 A 
BRANCH  22  26
ATOM     26  C   UNL d   1      48.256  36.071  53.346  0.00  0.00     0.211 C 
ATOM     27  O   UNL d   1      47.447  36.000  53.484  0.00  0.00    -0.644 OA
ATOM     28  O   UNL d   1      48.685  36.673  53.705  0.00  0.00    -0.644 OA
ENDBRANCH  22  26
ENDBRANCH  18  20
ENDBRANCH  16  17
ENDBRANCH  15  16
ENDBRANCH   5  15
BRANCH   6  29
ATOM     29  C   UNL d   1      52.854  30.683  53.245  0.00  0.00     0.036 A 
ATOM     30  C   UNL d   1      52.575  30.153  53.809  0.00  0.00     0.005 A 
ATOM     31  C   UNL d   1      52.440  29.362  53.603  0.00  0.00     0.030 A 
ATOM     32  C   UNL d   1      52.584  29.105  52.830  0.00  0.00     0.140 A 
ATOM     33  C   UNL d   1      52.868  29.645  52.258  0.00  0.00     0.030 A 
ATOM     34  F   UNL d   1      52.451  28.322  52.622  0.00  0.00    -0.204 F 
ATOM     35  C   UNL d   1      52.999  30.431  52.475  0.00  0.00     0.005 A 
ENDBRANCH   6  29
TORSDOF 6
ENDMDL
MODEL 2
REMARK VINA RESULT:      -6.6      1.593      3.515
REMARK  6 active torsions:
REMARK  status: ('A' for Active; 'I' for Inactive)
REMARK    1  A    between atoms: S_12  and  C_5 
REMARK    2  A    between atoms: C_14  and  C_6 
REMARK    3  A    between atoms: C_10  and  C_13 
REMARK    4  A    between atoms: C_21  and  S_12 
REMARK    5  A    between atoms: C_15  and  C_21 
REMARK       I    between atoms: N_16  and  C_15 
REMARK    6  A    between atoms: C_18  and  N_16 
ROOT
ATOM      1  C   UNL d   1      53.551  31.298  53.919  0.00  0.00     0.186 A 
ATOM      2  C   UNL d   1      52.884  31.555  53.495  0.00  0.00     0.065 A 
ATOM      3  N   UNL d   1      54.060  31.845  54.265  0.00  0.00    -0.203 NA
ATOM      4  N   UNL d   1      53.237  32.906  53.762  0.00  0.00    -0.220 NA
ATOM      5  C   UNL d   1      52.737  32.356  53.423  0.00  0.00     0.116 A 
ATOM      6  C   UNL d   1      53.905  32.657  54.188  0.00  0.00     0.165 A 
ATOM      7  O   UNL d   1      53.707  30.494  53.998  0.00  0.00    -0.289 OA
ATOM      8  C   UNL d   1      52.376  31.004  53.151  0.00  0.00     0.007 A 
ATOM      9  C   UNL d   1      53.198  29.935  53.652  0.00  0.00     0.102 A 
ATOM     10  C   UNL d   1      52.535  30.191  53.230  0.00  0.00     0.023 A 
ATOM     11  C   UNL d   1      53.354  29.139  53.730  0.00  0.00     0.025 A 
ATOM     12  C   UNL d   1      52.032  29.642  52.889  0.00  0.00     0.002 A 
ATOM     13  C   UNL d   1      52.855  28.579  53.391  0.00  0.00     0.002 A 
ATOM     14  C   UNL d   1      52.191  28.832  52.968  0.00  0.00     0.000 A 
ENDROOT
BRANCH   5  15
ATOM     15  S   UNL d   1      52.070  32.614  52.999  0.00  0.00    -0.062 SA
BRANCH  15  16
ATOM     16  C   UNL d   1      51.837  33.400  53.038  0.00  0.00     0.099 C 
BRANCH  16  17
ATOM     17  C   UNL d   1      51.067  33.609  52.841  0.00  0.00     0.286 C 
ATOM     18  N   UNL d   1      50.905  34.360  52.533  0.00  0.00    -0.208 NA
ATOM     19  O   UNL d   1      50.449  33.076  52.946  0.00  0.00    -0.265 OA
BRANCH  18  20
ATOM     20  C   UNL d   1      50.136  34.568  52.336  0.00  0.00     0.085 A 
ATOM     21  C   UNL d   1      49.699  35.022  52.855  0.00  0.00     0.025 A 
ATOM     22  C   UNL d   1      48.933  35.233  52.665  0.00  0.00     0.066 A 
ATOM     23  C   UNL d   1      48.598  34.986  51.945  0.00  0.00     0.006 A 
ATOM     24  C   UNL d   1      49.044  34.530  51.428  0.00  0.00     0.002 A 
ATOM     25  C   UNL d   1      49.819  34.317  51.619  0.00  0.00     0.019 A 
BRANCH  22  26
ATOM     26  C   UNL d   1      48.481  35.692  53.184  0.00  0.00     0.211 C 
ATOM     27  O   UNL d   1      47.660  35.636  53.159  0.00  0.00    -0.644 OA
ATOM     28  O   UNL d   1      48.845  36.201  53.719  0.00  0.00    -0.644 OA
ENDBRANCH  22  26
ENDBRANCH  18  20
ENDBRANCH  16  17
ENDBRANCH  15  16
ENDBRANCH   5  15
BRANCH   6  29
ATOM     29  C   UNL d   1      54.415  33.206  54.534  0.00  0.00     0.036 A 
ATOM     30  C   UNL d   1      54.234  33.519  55.274  0.00  0.00     0.005 A 
ATOM     31  C   UNL d   1      54.742  34.071  55.626  0.00  0.00     0.030 A 
ATOM     32  C   UNL d   1      55.431  34.308  55.234  0.00  0.00     0.140 A 
ATOM     33  C   UNL d   1      55.613  33.989  54.483  0.00  0.00     0.030 A 
ATOM     34  F   UNL d   1      55.937  34.854  55.580  0.00  0.00    -0.204 F 
ATOM     35  C   UNL d   1      55.100  33.440  54.142  0.00  0.00     0.005 A 
ENDBRANCH   6  29
TORSDOF 6
ENDMDL
MODEL 3
REMARK VINA RESULT:      -5.8      9.598     11.410
REMARK  6 active torsions:
REMARK  status: ('A' for Active; 'I' for Inactive)
REMARK    1  A    between atoms: S_12  and  C_5 
REMARK    2  A    between atoms: C_14  and  C_6 
REMARK    3  A    between atoms: C_10  and  C_13 
REMARK    4  A    between atoms: C_21  and  S_12 
REMARK    5  A    between atoms: C_15  and  C_21 
REMARK       I    between atoms: N_16  and  C_15 
REMARK    6  A    between atoms: C_18  and  N_16 
ROOT
ATOM      1  C   UNL d   1      44.436  31.036  58.928  0.00  0.00     0.186 A 
ATOM      2  C   UNL d   1      44.403  30.266  58.617  0.00  0.00     0.065 A 
ATOM      3  N   UNL d   1      44.475  31.153  59.742  0.00  0.00    -0.203 NA
ATOM      4  N   UNL d   1      44.447  29.731  59.932  0.00  0.00    -0.220 NA
ATOM      5  C   UNL d   1      44.408  29.626  59.124  0.00  0.00     0.116 A 
ATOM      6  C   UNL d   1      44.480  30.498  60.252  0.00  0.00     0.165 A 
ATOM      7  O   UNL d   1      44.431  31.688  58.427  0.00  0.00    -0.289 OA
ATOM      8  C   UNL d   1      44.364  30.154  57.800  0.00  0.00     0.007 A 
ATOM      9  C   UNL d   1      44.392  31.579  57.603  0.00  0.00     0.102 A 
ATOM     10  C   UNL d   1      44.358  30.813  57.293  0.00  0.00     0.023 A 
ATOM     11  C   UNL d   1      44.387  32.225  57.106  0.00  0.00     0.025 A 
ATOM     12  C   UNL d   1      44.320  30.704  56.482  0.00  0.00     0.002 A 
ATOM     13  C   UNL d   1      44.348  32.126  56.291  0.00  0.00     0.002 A 
ATOM     14  C   UNL d   1      44.315  31.362  55.977  0.00  0.00     0.000 A 
ENDROOT
BRANCH   5  15
ATOM     15  S   UNL d   1      44.375  28.855  58.811  0.00  0.00    -0.062 SA
BRANCH  15  16
ATOM     16  C   UNL d   1      44.903  28.283  59.071  0.00  0.00     0.099 C 
BRANCH  16  17
ATOM     17  C   UNL d   1      44.756  27.490  58.915  0.00  0.00     0.286 C 
ATOM     18  N   UNL d   1      45.054  27.139  58.226  0.00  0.00    -0.208 NA
ATOM     19  O   UNL d   1      44.314  27.035  59.438  0.00  0.00    -0.265 OA
BRANCH  18  20
ATOM     20  C   UNL d   1      44.908  26.347  58.070  0.00  0.00     0.085 A 
ATOM     21  C   UNL d   1      44.841  26.097  57.296  0.00  0.00     0.025 A 
ATOM     22  C   UNL d   1      44.696  25.310  57.134  0.00  0.00     0.066 A 
ATOM     23  C   UNL d   1      44.615  24.764  57.755  0.00  0.00     0.006 A 
ATOM     24  C   UNL d   1      44.683  25.023  58.532  0.00  0.00     0.002 A 
ATOM     25  C   UNL d   1      44.830  25.819  58.696  0.00  0.00     0.019 A 
BRANCH  22  26
ATOM     26  C   UNL d   1      44.627  25.045  56.353  0.00  0.00     0.211 C 
ATOM     27  O   UNL d   1      44.758  24.250  56.185  0.00  0.00    -0.644 OA
ATOM     28  O   UNL d   1      44.430  25.568  55.749  0.00  0.00    -0.644 OA
ENDBRANCH  22  26
ENDBRANCH  18  20
ENDBRANCH  16  17
ENDBRANCH  15  16
ENDBRANCH   5  15
BRANCH   6  29
ATOM     29  C   UNL d   1      44.519  30.613  61.069  0.00  0.00     0.036 A 
ATOM     30  C   UNL d   1      44.753  29.992  61.556  0.00  0.00     0.005 A 
ATOM     31  C   UNL d   1      44.794  30.102  62.376  0.00  0.00     0.030 A 
ATOM     32  C   UNL d   1      44.600  30.836  62.706  0.00  0.00     0.140 A 
ATOM     33  C   UNL d   1      44.362  31.465  62.209  0.00  0.00     0.030 A 
ATOM     34  F   UNL d   1      44.639  30.948  63.518  0.00  0.00    -0.204 F 
ATOM     35  C   UNL d   1      44.325  31.344  61.393  0.00  0.00     0.005 A 
ENDBRANCH   6  29
TORSDOF 6
ENDMDL
MODEL 4
REMARK VINA RESULT:      -5.2      2.032      5.260
REMARK  6 active torsions:
REMARK  status: ('A' for Active; 'I' for Inactive)
REMARK    1  A    between atoms: S_12  and  C_5 
REMARK    2  A    between atoms: C_14  and  C_6 
REMARK    3  A    between atoms: C_10  and  C_13 
REMARK    4  A    between atoms: C_21  and  S_12 
REMARK    5  A    between atoms: C_15  and  C_21 
REMARK       I    between atoms: N_16  and  C_15 
REMARK    6  A    between atoms: C_18  and  N_16 
ROOT
ATOM      1  C   UNL d   1      51.695  34.812  53.378  0.00  0.00     0.186 A 
ATOM      2  C   UNL d   1      52.130  34.112  53.276  0.00  0.00     0.065 A 
ATOM      3  N   UNL d   1      50.989  34.926  52.971  0.00  0.00    -0.203 NA
ATOM      4  N   UNL d   1      51.153  33.639  52.359  0.00  0.00    -0.220 NA
ATOM      5  C   UNL d   1      51.852  33.535  52.767  0.00  0.00     0.116 A 
ATOM      6  C   UNL d   1      50.712  34.337  52.456  0.00  0.00     0.165 A 
ATOM      7  O   UNL d   1      51.966  35.399  53.887  0.00  0.00    -0.289 OA
ATOM      8  C   UNL d   1      52.837  34.002  53.686  0.00  0.00     0.007 A 
ATOM      9  C   UNL d   1      52.679  35.293  54.303  0.00  0.00     0.102 A 
ATOM     10  C   UNL d   1      53.111  34.595  54.201  0.00  0.00     0.023 A 
ATOM     11  C   UNL d   1      52.947  35.873  54.807  0.00  0.00     0.025 A 
ATOM     12  C   UNL d   1      53.814  34.489  54.610  0.00  0.00     0.002 A 
ATOM     13  C   UNL d   1      53.650  35.776  55.222  0.00  0.00     0.002 A 
ATOM     14  C   UNL d   1      54.086  35.080  55.123  0.00  0.00     0.000 A 
ENDROOT
BRANCH   5  15
ATOM     15  S   UNL d   1      52.287  32.834  52.665  0.00  0.00    -0.062 SA
BRANCH  15  16
ATOM     16  C   UNL d   1      51.920  32.106  52.752  0.00  0.00     0.099 C 
BRANCH  16  17
ATOM     17  C   UNL d   1      52.373  31.429  52.861  0.00  0.00     0.286 C 
ATOM     18  N   UNL d   1      52.106  30.825  53.361  0.00  0.00    -0.208 NA
ATOM     19  O   UNL d   1      53.095  31.342  52.477  0.00  0.00    -0.265 OA
BRANCH  18  20
ATOM     20  C   UNL d   1      52.558  30.150  53.470  0.00  0.00     0.085 A 
ATOM     21  C   UNL d   1      52.717  29.892  54.228  0.00  0.00     0.025 A 
ATOM     22  C   UNL d   1      53.167  29.221  54.344  0.00  0.00     0.066 A 
ATOM     23  C   UNL d   1      53.463  28.799  53.692  0.00  0.00     0.006 A 
ATOM     24  C   UNL d   1      53.299  29.064  52.932  0.00  0.00     0.002 A 
ATOM     25  C   UNL d   1      52.844  29.743  52.814  0.00  0.00     0.019 A 
BRANCH  22  26
ATOM     26  C   UNL d   1      53.334  28.950  55.108  0.00  0.00     0.211 C 
ATOM     27  O   UNL d   1      53.416  28.142  55.240  0.00  0.00    -0.644 OA
ATOM     28  O   UNL d   1      53.419  29.481  55.731  0.00  0.00    -0.644 OA
ENDBRANCH  22  26
ENDBRANCH  18  20
ENDBRANCH  16  17
ENDBRANCH  15  16
ENDBRANCH   5  15
BRANCH   6  29
ATOM     29  C   UNL d   1      50.003  34.449  52.046  0.00  0.00     0.036 A 
ATOM     30  C   UNL d   1      49.337  34.713  52.452  0.00  0.00     0.005 A 
ATOM     31  C   UNL d   1      48.624  34.827  52.046  0.00  0.00     0.030 A 
ATOM     32  C   UNL d   1      48.581  34.677  51.234  0.00  0.00     0.140 A 
ATOM     33  C   UNL d   1      49.259  34.409  50.824  0.00  0.00     0.030 A 
ATOM     34  F   UNL d   1      47.876  34.789  50.828  0.00  0.00    -0.204 F 
ATOM     35  C   UNL d   1      49.964  34.298  51.238  0.00  0.00     0.005 A 
ENDBRANCH   6  29
TORSDOF 6
ENDMDL
MODEL 5
REMARK VINA RESULT:      -5.0     10.078     11.718
REMARK  6 active torsions:
REMARK  status: ('A' for Active; 'I' for Inactive)
REMARK    1  A    between atoms: S_12  and  C_5 
REMARK    2  A    between atoms: C_14  and  C_6 
REMARK    3  A    between atoms: C_10  and  C_13 
REMARK    4  A    between atoms: C_21  and  S_12 
REMARK    5  A    between atoms: C_15  and  C_21 
REMARK       I    between atoms: N_16  and  C_15 
REMARK    6  A    between atoms: C_18  and  N_16 
ROOT
ATOM      1  C   UNL d   1      44.642  30.325  59.111  0.00  0.00     0.186 A 
ATOM      2  C   UNL d   1      44.551  29.641  58.649  0.00  0.00     0.065 A 
ATOM      3  N   UNL d   1      44.676  30.270  59.932  0.00  0.00    -0.203 NA
ATOM      4  N   UNL d   1      44.529  28.847  59.828  0.00  0.00    -0.220 NA
ATOM      5  C   UNL d   1      44.496  28.912  59.014  0.00  0.00     0.116 A 
ATOM      6  C   UNL d   1      44.619  29.527  60.297  0.00  0.00     0.165 A 
ATOM      7  O   UNL d   1      44.699  31.063  58.753  0.00  0.00    -0.289 OA
ATOM      8  C   UNL d   1      44.518  29.700  57.826  0.00  0.00     0.007 A 
ATOM      9  C   UNL d   1      44.666  31.128  57.925  0.00  0.00     0.102 A 
ATOM     10  C   UNL d   1      44.576  30.447  57.465  0.00  0.00     0.023 A 
ATOM     11  C   UNL d   1      44.722  31.859  57.570  0.00  0.00     0.025 A 
ATOM     12  C   UNL d   1      44.543  30.509  56.648  0.00  0.00     0.002 A 
ATOM     13  C   UNL d   1      44.690  31.932  56.752  0.00  0.00     0.002 A 
ATOM     14  C   UNL d   1      44.600  31.253  56.288  0.00  0.00     0.000 A 
ENDROOT
BRANCH   5  15
ATOM     15  S   UNL d   1      44.405  28.227  58.551  0.00  0.00    -0.062 SA
BRANCH  15  16
ATOM     16  C   UNL d   1      44.951  27.616  58.609  0.00  0.00     0.099 C 
BRANCH  16  17
ATOM     17  C   UNL d   1      44.823  26.914  58.204  0.00  0.00     0.286 C 
ATOM     18  N   UNL d   1      44.857  26.189  58.604  0.00  0.00    -0.208 NA
ATOM     19  O   UNL d   1      44.661  26.919  57.397  0.00  0.00    -0.265 OA
BRANCH  18  20
ATOM     20  C   UNL d   1      44.730  25.488  58.199  0.00  0.00     0.085 A 
ATOM     21  C   UNL d   1      44.794  24.778  58.597  0.00  0.00     0.025 A 
ATOM     22  C   UNL d   1      44.669  24.076  58.199  0.00  0.00     0.066 A 
ATOM     23  C   UNL d   1      44.476  24.082  57.391  0.00  0.00     0.006 A 
ATOM     24  C   UNL d   1      44.413  24.800  56.997  0.00  0.00     0.002 A 
ATOM     25  C   UNL d   1      44.539  25.511  57.398  0.00  0.00     0.019 A 
BRANCH  22  26
ATOM     26  C   UNL d   1      44.732  23.350  58.593  0.00  0.00     0.211 C 
ATOM     27  O   UNL d   1      45.156  22.738  58.242  0.00  0.00    -0.644 OA
ATOM     28  O   UNL d   1      44.375  23.239  59.326  0.00  0.00    -0.644 OA
ENDBRANCH  22  26
ENDBRANCH  18  20
ENDBRANCH  16  17
ENDBRANCH  15  16
ENDBRANCH   5  15
BRANCH   6  29
ATOM     29  C   UNL d   1      44.653  29.470  61.121  0.00  0.00     0.036 A 
ATOM     30  C   UNL d   1      44.941  30.104  61.560  0.00  0.00     0.005 A 
ATOM     31  C   UNL d   1      44.977  30.053  62.386  0.00  0.00     0.030 A 
ATOM     32  C   UNL d   1      44.724  29.365  62.769  0.00  0.00     0.140 A 
ATOM     33  C   UNL d   1      44.431  28.722  62.321  0.00  0.00     0.030 A 
ATOM     34  F   UNL d   1      44.758  29.310  63.588  0.00  0.00    -0.204 F 
ATOM     35  C   UNL d   1      44.400  28.784  61.499  0.00  0.00     0.005 A 
ENDBRANCH   6  29
TORSDOF 6
ENDMDL
