MODEL 1
REMARK VINA RESULT:      -4.6      0.000      0.000
REMARK  7 active torsions:
REMARK  status: ('A' for Active; 'I' for Inactive)
REMARK    1  A    between atoms: C_2  and  S_1 
REMARK    2  A    between atoms: N_7  and  S_1 
REMARK    3  A    between atoms: O_11  and  C_6 
REMARK    4  A    between atoms: C_12  and  N_7 
REMARK    5  A    between atoms: O_13  and  C_9 
REMARK    6  A    between atoms: C_15  and  C_12 
REMARK    7  A    between atoms: C_14  and  C_15 
ROOT
ATOM      1  S   UNL d   1     -41.440-122.647 -51.142  0.00  0.00     0.287 S 
ATOM      2  O   UNL d   1     -41.257-121.871 -50.902  0.00  0.00    -0.198 OA
ATOM      3  O   UNL d   1     -41.615-123.406 -51.389  0.00  0.00    -0.198 OA
ENDROOT
BRANCH   1   4
ATOM      4  C   UNL d   1     -41.755-122.807 -50.393  0.00  0.00     0.129 A 
ATOM      5  C   UNL d   1     -41.307-123.227 -49.858  0.00  0.00     0.039 A 
ATOM      6  C   UNL d   1     -41.614-123.389 -49.111  0.00  0.00     0.095 A 
ATOM      7  C   UNL d   1     -42.362-123.130 -48.911  0.00  0.00     0.026 A 
ATOM      8  C   UNL d   1     -42.822-122.702 -49.453  0.00  0.00     0.027 A 
ATOM      9  C   UNL d   1     -42.517-122.542 -50.189  0.00  0.00     0.106 A 
BRANCH   6  10
ATOM     10  O   UNL d   1     -41.165-123.817 -48.558  0.00  0.00    -0.328 OA
ATOM     11  C   UNL d   1     -41.278-123.694 -47.769  0.00  0.00     0.181 C 
ENDBRANCH   6  10
BRANCH   9  12
ATOM     12  O   UNL d   1     -42.975-122.118 -50.723  0.00  0.00    -0.327 OA
ATOM     13  C   UNL d   1     -43.756-121.951 -50.538  0.00  0.00     0.181 C 
ENDBRANCH   9  12
ENDBRANCH   1   4
BRANCH   1  14
ATOM     14  N   UNL d   1     -41.123-122.475 -51.887  0.00  0.00    -0.157 NA
BRANCH  14  15
ATOM     15  C   UNL d   1     -41.515-122.713 -52.589  0.00  0.00     0.112 C 
BRANCH  15  16
ATOM     16  C   UNL d   1     -41.138-122.666 -53.325  0.00  0.00     0.021 C 
BRANCH  16  17
ATOM     17  C   UNL d   1     -41.579-122.561 -54.011  0.00  0.00     0.002 A 
ATOM     18  C   UNL d   1     -41.876-121.818 -54.204  0.00  0.00     0.000 A 
ATOM     19  C   UNL d   1     -42.318-121.712 -54.893  0.00  0.00     0.000 A 
ATOM     20  C   UNL d   1     -42.464-122.358 -55.394  0.00  0.00     0.000 A 
ATOM     21  C   UNL d   1     -42.158-123.110 -55.188  0.00  0.00     0.000 A 
ATOM     22  C   UNL d   1     -41.725-123.208 -54.512  0.00  0.00     0.000 A 
ENDBRANCH  16  17
ENDBRANCH  15  16
ENDBRANCH  14  15
ENDBRANCH   1  14
TORSDOF 7
ENDMDL
