MODEL 1
REMARK VINA RESULT:      16.2      0.000      0.000
REMARK  5 active torsions:
REMARK  status: ('A' for Active; 'I' for Inactive)
REMARK    1  A    between atoms: C_3  and  N_1 
REMARK    2  A    between atoms: C_4  and  N_1 
REMARK    3  A    between atoms: N_7  and  C_3 
REMARK    4  A    between atoms: C_10  and  N_7 
REMARK    5  A    between atoms: C_8  and  C_10 
ROOT
ATOM      1  N   UNL d   1      59.230  49.628  51.382  0.00  0.00    -0.198 NA
ENDROOT
BRANCH   1   2
ATOM      2  C   UNL d   1      58.779  49.681  50.686  0.00  0.00     0.222 C 
ATOM      3  S   UNL d   1      59.135  49.708  49.984  0.00  0.00    -0.037 SA
BRANCH   2   4
ATOM      4  N   UNL d   1      57.983  49.706  50.734  0.00  0.00    -0.216 NA
BRANCH   4   5
ATOM      5  C   UNL d   1      57.526  49.243  50.232  0.00  0.00     0.101 C 
BRANCH   5   6
ATOM      6  C   UNL d   1      56.716  49.418  50.123  0.00  0.00     0.019 C 
ATOM      7  C   UNL d   1      56.250  49.634  50.769  0.00  0.00     0.002 C 
ATOM      8  C   UNL d   1      56.385  49.376  49.369  0.00  0.00     0.002 C 
ENDBRANCH   5   6
ENDBRANCH   4   5
ENDBRANCH   2   4
ENDBRANCH   1   2
BRANCH   1   9
ATOM      9  C   UNL d   1      60.054  49.638  51.337  0.00  0.00     0.167 A 
ATOM     10  N   UNL d   1      60.507  49.662  52.027  0.00  0.00    -0.206 NA
ATOM     11  C   UNL d   1      61.330  49.672  51.982  0.00  0.00     0.185 A 
ATOM     12  N   UNL d   1      61.769  49.697  52.676  0.00  0.00    -0.127 N 
ATOM     13  C   UNL d   1      61.700  49.658  51.248  0.00  0.00     0.041 A 
ATOM     14  C   UNL d   1      61.250  49.633  50.550  0.00  0.00     0.006 A 
ATOM     15  C   UNL d   1      60.421  49.624  50.600  0.00  0.00     0.039 A 
ENDBRANCH   1   9
TORSDOF 5
ENDMDL
