MODEL 1
REMARK VINA RESULT:       1.9      0.000      0.000
REMARK  4 active torsions:
REMARK  status: ('A' for Active; 'I' for Inactive)
REMARK    1  A    between atoms: C_6  and  N_1 
REMARK    2  A    between atoms: C_10  and  C_4 
REMARK    3  A    between atoms: C_8  and  C_6 
REMARK    4  A    between atoms: C_9  and  C_8 
ROOT
ATOM      1  N   UNL d   1     -41.536-121.654 -51.702  0.00  0.00    -0.305 N 
ATOM      2  C   UNL d   1     -42.127-122.662 -51.042  0.00  0.00     0.057 A 
ATOM      3  C   UNL d   1     -41.790-121.903 -50.957  0.00  0.00     0.067 A 
ATOM      4  C   UNL d   1     -41.708-122.240 -52.239  0.00  0.00     0.064 A 
ATOM      5  C   UNL d   1     -42.075-122.870 -51.838  0.00  0.00     0.022 A 
ATOM      6  C   UNL d   1     -42.431-123.054 -50.385  0.00  0.00     0.197 A 
ATOM      7  O   UNL d   1     -42.768-123.813 -50.470  0.00  0.00    -0.286 OA
ATOM      8  C   UNL d   1     -41.763-121.545 -50.216  0.00  0.00     0.018 A 
ATOM      9  C   UNL d   1     -42.404-122.696 -49.645  0.00  0.00     0.042 A 
ATOM     10  C   UNL d   1     -42.073-121.951 -49.561  0.00  0.00     0.005 A 
ENDROOT
BRANCH   4  11
ATOM     11  C   UNL d   1     -41.654-122.450 -53.051  0.00  0.00     0.016 A 
ATOM     12  C   UNL d   1     -41.971-121.956 -53.624  0.00  0.00     0.001 A 
ATOM     13  C   UNL d   1     -41.919-122.159 -54.419  0.00  0.00     0.000 A 
ATOM     14  C   UNL d   1     -41.543-122.868 -54.627  0.00  0.00     0.000 A 
ATOM     15  C   UNL d   1     -41.223-123.366 -54.059  0.00  0.00     0.000 A 
ATOM     16  C   UNL d   1     -41.277-123.159 -53.264  0.00  0.00     0.001 A 
ENDBRANCH   4  11
BRANCH   1  17
ATOM     17  C   UNL d   1     -41.166-120.936 -51.898  0.00  0.00     0.086 C 
BRANCH  17  18
ATOM     18  C   UNL d   1     -41.158-120.322 -51.338  0.00  0.00     0.089 C 
BRANCH  18  19
ATOM     19  C   UNL d   1     -41.146-119.531 -51.572  0.00  0.00     0.213 C 
ATOM     20  O   UNL d   1     -41.144-119.339 -52.370  0.00  0.00    -0.644 OA
ATOM     21  O   UNL d   1     -41.136-118.918 -51.027  0.00  0.00    -0.644 OA
ENDBRANCH  18  19
ENDBRANCH  17  18
ENDBRANCH   1  17
TORSDOF 4
ENDMDL
MODEL 2
REMARK VINA RESULT:       2.7      1.436      3.615
REMARK  4 active torsions:
REMARK  status: ('A' for Active; 'I' for Inactive)
REMARK    1  A    between atoms: C_6  and  N_1 
REMARK    2  A    between atoms: C_10  and  C_4 
REMARK    3  A    between atoms: C_8  and  C_6 
REMARK    4  A    between atoms: C_9  and  C_8 
ROOT
ATOM      1  N   UNL d   1     -41.731-122.104 -52.093  0.00  0.00    -0.305 N 
ATOM      2  C   UNL d   1     -41.436-120.919 -51.539  0.00  0.00     0.057 A 
ATOM      3  C   UNL d   1     -41.533-121.322 -52.264  0.00  0.00     0.067 A 
ATOM      4  C   UNL d   1     -41.758-122.190 -51.285  0.00  0.00     0.064 A 
ATOM      5  C   UNL d   1     -41.577-121.460 -50.933  0.00  0.00     0.022 A 
ATOM      6  C   UNL d   1     -41.235-120.120 -51.535  0.00  0.00     0.197 A 
ATOM      7  O   UNL d   1     -41.138-119.718 -50.810  0.00  0.00    -0.286 OA
ATOM      8  C   UNL d   1     -41.427-120.921 -52.975  0.00  0.00     0.018 A 
ATOM      9  C   UNL d   1     -41.129-119.720 -52.246  0.00  0.00     0.042 A 
ATOM     10  C   UNL d   1     -41.224-120.116 -52.958  0.00  0.00     0.005 A 
ENDROOT
BRANCH   4  11
ATOM     11  C   UNL d   1     -41.902-122.743 -50.668  0.00  0.00     0.016 A 
ATOM     12  C   UNL d   1     -41.310-123.263 -50.437  0.00  0.00     0.001 A 
ATOM     13  C   UNL d   1     -41.448-123.804 -49.835  0.00  0.00     0.000 A 
ATOM     14  C   UNL d   1     -42.192-123.814 -49.469  0.00  0.00     0.000 A 
ATOM     15  C   UNL d   1     -42.787-123.298 -49.695  0.00  0.00     0.000 A 
ATOM     16  C   UNL d   1     -42.645-122.757 -50.299  0.00  0.00     0.001 A 
ENDBRANCH   4  11
BRANCH   1  17
ATOM     17  C   UNL d   1     -41.883-122.719 -52.633  0.00  0.00     0.086 C 
BRANCH  17  18
ATOM     18  C   UNL d   1     -41.470-122.730 -53.354  0.00  0.00     0.089 C 
BRANCH  18  19
ATOM     19  C   UNL d   1     -41.653-123.280 -53.941  0.00  0.00     0.213 C 
ATOM     20  O   UNL d   1     -42.268-123.811 -53.830  0.00  0.00    -0.644 OA
ATOM     21  O   UNL d   1     -41.234-123.316 -54.646  0.00  0.00    -0.644 OA
ENDBRANCH  18  19
ENDBRANCH  17  18
ENDBRANCH   1  17
TORSDOF 4
ENDMDL
MODEL 3
REMARK VINA RESULT:       3.2      0.799      2.790
REMARK  4 active torsions:
REMARK  status: ('A' for Active; 'I' for Inactive)
REMARK    1  A    between atoms: C_6  and  N_1 
REMARK    2  A    between atoms: C_10  and  C_4 
REMARK    3  A    between atoms: C_8  and  C_6 
REMARK    4  A    between atoms: C_9  and  C_8 
ROOT
ATOM      1  N   UNL d   1     -41.377-122.045 -51.916  0.00  0.00    -0.305 N 
ATOM      2  C   UNL d   1     -41.289-120.756 -52.275  0.00  0.00     0.057 A 
ATOM      3  C   UNL d   1     -41.291-121.278 -51.624  0.00  0.00     0.067 A 
ATOM      4  C   UNL d   1     -41.428-122.006 -52.726  0.00  0.00     0.064 A 
ATOM      5  C   UNL d   1     -41.374-121.210 -52.958  0.00  0.00     0.022 A 
ATOM      6  C   UNL d   1     -41.210-119.945 -52.153  0.00  0.00     0.197 A 
ATOM      7  O   UNL d   1     -41.209-119.423 -52.805  0.00  0.00    -0.286 OA
ATOM      8  C   UNL d   1     -41.214-120.983 -50.859  0.00  0.00     0.018 A 
ATOM      9  C   UNL d   1     -41.134-119.651 -51.389  0.00  0.00     0.042 A 
ATOM     10  C   UNL d   1     -41.135-120.163 -50.749  0.00  0.00     0.005 A 
ENDROOT
BRANCH   4  11
ATOM     11  C   UNL d   1     -41.515-122.470 -53.421  0.00  0.00     0.016 A 
ATOM     12  C   UNL d   1     -41.123-123.188 -53.486  0.00  0.00     0.001 A 
ATOM     13  C   UNL d   1     -41.206-123.644 -54.165  0.00  0.00     0.000 A 
ATOM     14  C   UNL d   1     -41.691-123.365 -54.777  0.00  0.00     0.000 A 
ATOM     15  C   UNL d   1     -42.085-122.648 -54.718  0.00  0.00     0.000 A 
ATOM     16  C   UNL d   1     -41.999-122.195 -54.037  0.00  0.00     0.001 A 
ENDBRANCH   4  11
BRANCH   1  17
ATOM     17  C   UNL d   1     -41.409-122.753 -51.480  0.00  0.00     0.086 C 
BRANCH  17  18
ATOM     18  C   UNL d   1     -42.127-122.972 -51.123  0.00  0.00     0.089 C 
BRANCH  18  19
ATOM     19  C   UNL d   1     -42.140-123.454 -50.454  0.00  0.00     0.213 C 
ATOM     20  O   UNL d   1     -42.846-123.587 -50.056  0.00  0.00    -0.644 OA
ATOM     21  O   UNL d   1     -41.461-123.814 -50.166  0.00  0.00    -0.644 OA
ENDBRANCH  18  19
ENDBRANCH  17  18
ENDBRANCH   1  17
TORSDOF 4
ENDMDL
