MODEL 1
REMARK VINA RESULT:      -2.7      0.000      0.000
REMARK  3 active torsions:
REMARK  status: ('A' for Active; 'I' for Inactive)
REMARK    1  A    between atoms: N_2  and  S_1 
REMARK    2  A    between atoms: N_3  and  S_1 
REMARK    3  A    between atoms: C_6  and  N_2 
ROOT
ATOM      1  C   UNL d   1      30.686  16.894 -24.422  0.00  0.00     0.095 A 
ATOM      2  C   UNL d   1      32.082  17.423 -23.668  0.00  0.00     0.000 A 
ATOM      3  C   UNL d   1      31.007  17.632 -24.616  0.00  0.00     0.020 A 
ATOM      4  C   UNL d   1      31.056  16.424 -23.860  0.00  0.00     0.020 A 
ATOM      5  C   UNL d   1      31.716  17.901 -24.232  0.00  0.00     0.002 A 
ATOM      6  C   UNL d   1      31.765  16.693 -23.476  0.00  0.00     0.002 A 
ATOM      7  C   UNL d   1      32.771  17.684 -23.295  0.00  0.00     0.000 C 
ENDROOT
BRANCH   1   8
ATOM      8  N   UNL d   1      29.999  16.633 -24.794  0.00  0.00    -0.144 NA
BRANCH   8   9
ATOM      9  S   UNL d   1      29.263  16.812 -24.466  0.00  0.00     0.351 S 
ATOM     10  O   UNL d   1      29.401  17.613 -24.582  0.00  0.00    -0.180 OA
ATOM     11  O   UNL d   1      28.695  17.366 -24.239  0.00  0.00    -0.180 OA
BRANCH   9  12
ATOM     12  N   UNL d   1      28.775  16.203 -24.200  0.00  0.00    -0.212 N 
ATOM     13  C   UNL d   1      28.639  15.547 -24.683  0.00  0.00     0.113 C 
ATOM     14  C   UNL d   1      28.428  16.252 -23.455  0.00  0.00     0.113 C 
ENDBRANCH   9  12
ENDBRANCH   8   9
ENDBRANCH   1   8
TORSDOF 3
ENDMDL
MODEL 2
REMARK VINA RESULT:      -2.7      5.106      6.085
REMARK  3 active torsions:
REMARK  status: ('A' for Active; 'I' for Inactive)
REMARK    1  A    between atoms: N_2  and  S_1 
REMARK    2  A    between atoms: N_3  and  S_1 
REMARK    3  A    between atoms: C_6  and  N_2 
ROOT
ATOM      1  C   UNL d   1      33.155  21.019 -21.661  0.00  0.00     0.095 A 
ATOM      2  C   UNL d   1      33.099  19.637 -22.599  0.00  0.00     0.000 A 
ATOM      3  C   UNL d   1      33.215  21.075 -22.484  0.00  0.00     0.020 A 
ATOM      4  C   UNL d   1      33.068  20.283 -21.308  0.00  0.00     0.020 A 
ATOM      5  C   UNL d   1      33.186  20.372 -22.962  0.00  0.00     0.002 A 
ATOM      6  C   UNL d   1      33.040  19.580 -21.785  0.00  0.00     0.002 A 
ATOM      7  C   UNL d   1      33.071  18.954 -23.063  0.00  0.00     0.000 C 
ENDROOT
BRANCH   1   8
ATOM      8  N   UNL d   1      33.182  21.701 -21.198  0.00  0.00    -0.144 NA
BRANCH   8   9
ATOM      9  S   UNL d   1      32.494  22.140 -21.077  0.00  0.00     0.351 S 
ATOM     10  O   UNL d   1      32.079  21.453 -20.905  0.00  0.00    -0.180 OA
ATOM     11  O   UNL d   1      31.693  22.179 -20.886  0.00  0.00    -0.180 OA
BRANCH   9  12
ATOM     12  N   UNL d   1      32.513  22.960 -21.165  0.00  0.00    -0.212 N 
ATOM     13  C   UNL d   1      33.095  23.401 -20.780  0.00  0.00     0.113 C 
ATOM     14  C   UNL d   1      31.951  23.333 -21.637  0.00  0.00     0.113 C 
ENDBRANCH   9  12
ENDBRANCH   8   9
ENDBRANCH   1   8
TORSDOF 3
ENDMDL
MODEL 3
REMARK VINA RESULT:      -2.6      7.020      7.939
REMARK  3 active torsions:
REMARK  status: ('A' for Active; 'I' for Inactive)
REMARK    1  A    between atoms: N_2  and  S_1 
REMARK    2  A    between atoms: N_3  and  S_1 
REMARK    3  A    between atoms: C_6  and  N_2 
ROOT
ATOM      1  C   UNL d   1      33.051  22.908 -19.359  0.00  0.00     0.095 A 
ATOM      2  C   UNL d   1      32.881  23.080 -17.704  0.00  0.00     0.000 A 
ATOM      3  C   UNL d   1      33.240  22.278 -18.856  0.00  0.00     0.020 A 
ATOM      4  C   UNL d   1      32.780  23.615 -19.042  0.00  0.00     0.020 A 
ATOM      5  C   UNL d   1      33.154  22.366 -18.015  0.00  0.00     0.002 A 
ATOM      6  C   UNL d   1      32.694  23.702 -18.200  0.00  0.00     0.002 A 
ATOM      7  C   UNL d   1      32.798  23.164 -16.887  0.00  0.00     0.000 C 
ENDROOT
BRANCH   1   8
ATOM      8  N   UNL d   1      33.134  22.823 -20.174  0.00  0.00    -0.144 NA
BRANCH   8   9
ATOM      9  S   UNL d   1      32.536  22.460 -20.611  0.00  0.00     0.351 S 
ATOM     10  O   UNL d   1      31.984  22.982 -20.298  0.00  0.00    -0.180 OA
ATOM     11  O   UNL d   1      31.743  22.405 -20.833  0.00  0.00    -0.180 OA
BRANCH   9  12
ATOM     12  N   UNL d   1      32.717  21.823 -21.103  0.00  0.00    -0.212 N 
ATOM     13  C   UNL d   1      33.223  21.934 -21.745  0.00  0.00     0.113 C 
ATOM     14  C   UNL d   1      32.394  21.082 -20.949  0.00  0.00     0.113 C 
ENDBRANCH   9  12
ENDBRANCH   8   9
ENDBRANCH   1   8
TORSDOF 3
ENDMDL
MODEL 4
REMARK VINA RESULT:      -2.6      1.711      3.075
REMARK  3 active torsions:
REMARK  status: ('A' for Active; 'I' for Inactive)
REMARK    1  A    between atoms: N_2  and  S_1 
REMARK    2  A    between atoms: N_3  and  S_1 
REMARK    3  A    between atoms: C_6  and  N_2 
ROOT
ATOM      1  C   UNL d   1      30.356  16.324 -24.108  0.00  0.00     0.095 A 
ATOM      2  C   UNL d   1      28.757  16.361 -23.620  0.00  0.00     0.000 A 
ATOM      3  C   UNL d   1      29.831  16.865 -24.451  0.00  0.00     0.020 A 
ATOM      4  C   UNL d   1      30.088  15.808 -23.528  0.00  0.00     0.020 A 
ATOM      5  C   UNL d   1      29.019  16.884 -24.203  0.00  0.00     0.002 A 
ATOM      6  C   UNL d   1      29.275  15.827 -23.281  0.00  0.00     0.002 A 
ATOM      7  C   UNL d   1      27.968  16.379 -23.379  0.00  0.00     0.000 C 
ENDROOT
BRANCH   1   8
ATOM      8  N   UNL d   1      31.144  16.306 -24.348  0.00  0.00    -0.144 NA
BRANCH   8   9
ATOM      9  S   UNL d   1      31.700  16.779 -23.963  0.00  0.00     0.351 S 
ATOM     10  O   UNL d   1      31.554  16.385 -23.257  0.00  0.00    -0.180 OA
ATOM     11  O   UNL d   1      32.109  16.993 -23.279  0.00  0.00    -0.180 OA
BRANCH   9  12
ATOM     12  N   UNL d   1      32.106  17.360 -24.386  0.00  0.00    -0.212 N 
ATOM     13  C   UNL d   1      32.495  17.159 -25.086  0.00  0.00     0.113 C 
ATOM     14  C   UNL d   1      32.120  18.134 -24.108  0.00  0.00     0.113 C 
ENDBRANCH   9  12
ENDBRANCH   8   9
ENDBRANCH   1   8
TORSDOF 3
ENDMDL
MODEL 5
REMARK VINA RESULT:      -1.2      1.065      1.305
REMARK  3 active torsions:
REMARK  status: ('A' for Active; 'I' for Inactive)
REMARK    1  A    between atoms: N_2  and  S_1 
REMARK    2  A    between atoms: N_3  and  S_1 
REMARK    3  A    between atoms: C_6  and  N_2 
ROOT
ATOM      1  C   UNL d   1      30.836  16.387 -24.046  0.00  0.00     0.095 A 
ATOM      2  C   UNL d   1      32.029  17.549 -23.897  0.00  0.00     0.000 A 
ATOM      3  C   UNL d   1      31.512  16.231 -23.594  0.00  0.00     0.020 A 
ATOM      4  C   UNL d   1      30.755  17.113 -24.419  0.00  0.00     0.020 A 
ATOM      5  C   UNL d   1      32.119  16.821 -23.518  0.00  0.00     0.002 A 
ATOM      6  C   UNL d   1      31.362  17.704 -24.344  0.00  0.00     0.002 A 
ATOM      7  C   UNL d   1      32.619  18.122 -23.824  0.00  0.00     0.000 C 
ENDROOT
BRANCH   1   8
ATOM      8  N   UNL d   1      30.248  15.814 -24.119  0.00  0.00    -0.144 NA
BRANCH   8   9
ATOM      9  S   UNL d   1      29.602  15.824 -23.605  0.00  0.00     0.351 S 
ATOM     10  O   UNL d   1      30.102  15.700 -22.966  0.00  0.00    -0.180 OA
ATOM     11  O   UNL d   1      29.292  15.770 -22.843  0.00  0.00    -0.180 OA
BRANCH   9  12
ATOM     12  N   UNL d   1      28.842  15.937 -23.906  0.00  0.00    -0.212 N 
ATOM     13  C   UNL d   1      28.567  15.452 -24.515  0.00  0.00     0.113 C 
ATOM     14  C   UNL d   1      28.365  16.532 -23.598  0.00  0.00     0.113 C 
ENDBRANCH   9  12
ENDBRANCH   8   9
ENDBRANCH   1   8
TORSDOF 3
ENDMDL
MODEL 6
REMARK VINA RESULT:      -0.8      1.533      2.263
REMARK  3 active torsions:
REMARK  status: ('A' for Active; 'I' for Inactive)
REMARK    1  A    between atoms: N_2  and  S_1 
REMARK    2  A    between atoms: N_3  and  S_1 
REMARK    3  A    between atoms: C_6  and  N_2 
ROOT
ATOM      1  C   UNL d   1      32.448  17.706 -24.049  0.00  0.00     0.095 A 
ATOM      2  C   UNL d   1      32.979  19.047 -23.203  0.00  0.00     0.000 A 
ATOM      3  C   UNL d   1      32.581  17.656 -23.234  0.00  0.00     0.020 A 
ATOM      4  C   UNL d   1      32.578  18.417 -24.439  0.00  0.00     0.020 A 
ATOM      5  C   UNL d   1      32.851  18.337 -22.804  0.00  0.00     0.002 A 
ATOM      6  C   UNL d   1      32.848  19.099 -24.009  0.00  0.00     0.002 A 
ATOM      7  C   UNL d   1      33.241  19.710 -22.785  0.00  0.00     0.000 C 
ENDROOT
BRANCH   1   8
ATOM      8  N   UNL d   1      32.187  17.046 -24.466  0.00  0.00    -0.144 NA
BRANCH   8   9
ATOM      9  S   UNL d   1      31.379  16.881 -24.507  0.00  0.00     0.351 S 
ATOM     10  O   UNL d   1      31.243  17.612 -24.857  0.00  0.00    -0.180 OA
ATOM     11  O   UNL d   1      30.612  17.102 -24.716  0.00  0.00    -0.180 OA
BRANCH   9  12
ATOM     12  N   UNL d   1      31.093  16.161 -24.223  0.00  0.00    -0.212 N 
ATOM     13  C   UNL d   1      30.466  16.153 -23.686  0.00  0.00     0.113 C 
ATOM     14  C   UNL d   1      31.436  15.457 -24.475  0.00  0.00     0.113 C 
ENDBRANCH   9  12
ENDBRANCH   8   9
ENDBRANCH   1   8
TORSDOF 3
ENDMDL
