MODEL 1
REMARK VINA RESULT:      -7.3      0.000      0.000
REMARK  3 active torsions:
REMARK  status: ('A' for Active; 'I' for Inactive)
REMARK    1  A    between atoms: C_2  and  C_1 
REMARK    2  A    between atoms: N_3  and  C_1 
REMARK    3  A    between atoms: C_13  and  N_3 
ROOT
ATOM      1  C   UNL d   1     -48.825  14.021  22.862  0.00  0.00     0.030 A 
ATOM      2  C   UNL d   1     -50.046  14.658  23.269  0.00  0.00     0.119 A 
ATOM      3  C   UNL d   1     -49.557  13.995  23.260  0.00  0.00     0.029 A 
ATOM      4  C   UNL d   1     -49.802  15.346  22.880  0.00  0.00     0.119 A 
ATOM      5  O   UNL d   1     -50.812  14.801  23.621  0.00  0.00    -0.300 OA
ATOM      6  O   UNL d   1     -50.428  15.920  22.996  0.00  0.00    -0.300 OA
ATOM      7  C   UNL d   1     -51.000  15.570  23.431  0.00  0.00     0.304 A 
ATOM      8  C   UNL d   1     -48.590  14.710  22.477  0.00  0.00     0.004 A 
ATOM      9  C   UNL d   1     -49.078  15.372  22.486  0.00  0.00     0.026 A 
ENDROOT
BRANCH   1  10
ATOM     10  C   UNL d   1     -48.338  13.359  22.853  0.00  0.00     0.136 C 
ATOM     11  S   UNL d   1     -48.246  12.922  22.158  0.00  0.00    -0.057 SA
BRANCH  10  12
ATOM     12  N   UNL d   1     -47.936  13.131  23.548  0.00  0.00    -0.235 NA
BRANCH  12  13
ATOM     13  C   UNL d   1     -47.409  12.494  23.530  0.00  0.00     0.082 A 
ATOM     14  C   UNL d   1     -47.675  11.738  23.698  0.00  0.00     0.019 A 
ATOM     15  C   UNL d   1     -47.148  11.101  23.680  0.00  0.00     0.002 A 
ATOM     16  C   UNL d   1     -46.355  11.230  23.492  0.00  0.00     0.000 A 
ATOM     17  C   UNL d   1     -46.089  11.995  23.323  0.00  0.00     0.002 A 
ATOM     18  C   UNL d   1     -46.616  12.627  23.342  0.00  0.00     0.019 A 
ENDBRANCH  12  13
ENDBRANCH  10  12
ENDBRANCH   1  10
TORSDOF 3
ENDMDL
