MODEL 1
REMARK VINA RESULT:      41.0      0.000      0.000
REMARK  7 active torsions:
REMARK  status: ('A' for Active; 'I' for Inactive)
REMARK    1  A    between atoms: C_7  and  N_1 
REMARK    2  A    between atoms: C_6  and  C_4 
REMARK    3  A    between atoms: C_9  and  C_6 
REMARK    4  A    between atoms: C_8  and  C_7 
REMARK       I    between atoms: N_12  and  C_8 
REMARK    5  A    between atoms: C_10  and  C_9 
REMARK    6  A    between atoms: C_16  and  C_10 
REMARK    7  A    between atoms: C_15  and  N_12 
ROOT
ATOM      1  N   UNL d   1      46.134 -18.175  44.242  0.00  0.00    -0.230 N 
ATOM      2  C   UNL d   1      46.087 -19.000  44.282  0.00  0.00     0.299 A 
ATOM      3  C   UNL d   1      46.349 -17.971  43.472  0.00  0.00     0.274 A 
ATOM      4  C   UNL d   1      46.437 -18.670  43.035  0.00  0.00     0.090 A 
ATOM      5  S   UNL d   1      46.273 -19.299  43.541  0.00  0.00    -0.022 SA
ATOM      6  O   UNL d   1      45.887 -19.437  44.955  0.00  0.00    -0.259 OA
ATOM      7  O   UNL d   1      46.460 -17.200  43.184  0.00  0.00    -0.266 OA
ENDROOT
BRANCH   1   8
ATOM      8  C   UNL d   1      45.992 -17.643  44.856  0.00  0.00     0.149 C 
BRANCH   8   9
ATOM      9  C   UNL d   1      45.726 -16.878  44.694  0.00  0.00     0.297 C 
ATOM     10  N   UNL d   1      46.180 -16.233  44.928  0.00  0.00    -0.207 NA
ATOM     11  O   UNL d   1      45.013 -16.767  44.302  0.00  0.00    -0.264 OA
BRANCH  10  12
ATOM     12  C   UNL d   1      45.914 -15.464  44.765  0.00  0.00     0.085 A 
ATOM     13  C   UNL d   1      46.453 -14.835  44.773  0.00  0.00     0.022 A 
ATOM     14  C   UNL d   1      46.186 -14.076  44.611  0.00  0.00     0.044 A 
ATOM     15  C   UNL d   1      45.388 -13.934  44.443  0.00  0.00     0.196 A 
ATOM     16  C   UNL d   1      44.854 -14.569  44.437  0.00  0.00     0.044 A 
ATOM     17  O   UNL d   1      45.127 -13.171  44.282  0.00  0.00    -0.287 OA
ATOM     18  C   UNL d   1      45.118 -15.336  44.599  0.00  0.00     0.022 A 
ENDBRANCH  10  12
ENDBRANCH   8   9
ENDBRANCH   1   8
BRANCH   4  19
ATOM     19  C   UNL d   1      46.647 -18.719  42.245  0.00  0.00     0.011 C 
BRANCH  19  20
ATOM     20  C   UNL d   1      46.065 -18.779  41.666  0.00  0.00     0.001 C 
ATOM     21  C   UNL d   1      45.287 -18.977  41.878  0.00  0.00     0.000 C 
BRANCH  20  22
ATOM     22  C   UNL d   1      46.246 -18.644  40.873  0.00  0.00     0.000 C 
BRANCH  22  23
ATOM     23  C   UNL d   1      45.720 -18.240  40.386  0.00  0.00     0.000 A 
ATOM     24  C   UNL d   1      45.913 -18.112  39.584  0.00  0.00     0.000 A 
ATOM     25  C   UNL d   1      45.391 -17.711  39.097  0.00  0.00     0.000 A 
ATOM     26  C   UNL d   1      44.675 -17.434  39.405  0.00  0.00     0.000 A 
ATOM     27  C   UNL d   1      44.484 -17.560  40.196  0.00  0.00     0.000 A 
ATOM     28  C   UNL d   1      45.008 -17.962  40.679  0.00  0.00     0.000 A 
ENDBRANCH  22  23
ENDBRANCH  20  22
ENDBRANCH  19  20
ENDBRANCH   4  19
TORSDOF 7
ENDMDL
