MODEL 1
REMARK VINA RESULT:      69.0      0.000      0.000
REMARK  3 active torsions:
REMARK  status: ('A' for Active; 'I' for Inactive)
REMARK    1  A    between atoms: N_5  and  C_1 
REMARK    2  A    between atoms: C_8  and  C_2 
REMARK       I    between atoms: C_7  and  N_5 
REMARK       I    between atoms: N_9  and  C_7 
REMARK    3  A    between atoms: C_13  and  N_9 
ROOT
ATOM      1  C   UNL d   1      60.212  47.675  50.854  0.00  0.00     0.120 A 
ATOM      2  C   UNL d   1      61.027  47.591  50.756  0.00  0.00     0.084 A 
ATOM      3  S   UNL d   1      59.921  46.922  50.944  0.00  0.00    -0.068 SA
ATOM      4  C   UNL d   1      61.200  46.811  50.789  0.00  0.00     0.013 A 
ATOM      5  C   UNL d   1      60.535  46.404  50.902  0.00  0.00     0.031 A 
ATOM      6  C   UNL d   1      61.970  46.469  50.714  0.00  0.00     0.001 C 
ATOM      7  C   UNL d   1      60.500  45.570  50.965  0.00  0.00     0.007 C 
ENDROOT
BRANCH   1   8
ATOM      8  N   UNL d   1      59.503  48.879  50.860  0.00  0.00    -0.184 NA
ATOM      9  C   UNL d   1      58.751  48.920  50.561  0.00  0.00     0.369 C 
ATOM     10  N   UNL d   1      58.318  49.627  50.558  0.00  0.00    -0.191 NA
ATOM     11  O   UNL d   1      58.408  48.237  50.250  0.00  0.00    -0.242 OA
BRANCH  10  12
ATOM     12  C   UNL d   1      57.566  49.653  50.254  0.00  0.00     0.086 A 
ATOM     13  C   UNL d   1      56.911  49.677  50.763  0.00  0.00     0.019 A 
ATOM     14  C   UNL d   1      56.160  49.703  50.474  0.00  0.00     0.002 A 
ATOM     15  C   UNL d   1      56.033  49.707  49.657  0.00  0.00     0.000 A 
ATOM     16  C   UNL d   1      56.686  49.683  49.134  0.00  0.00     0.002 A 
ATOM     17  C   UNL d   1      57.444  49.657  49.458  0.00  0.00     0.019 A 
ENDBRANCH  10  12
ENDBRANCH   1   8
BRANCH   2  18
ATOM     18  C   UNL d   1      61.567  48.213  50.643  0.00  0.00     0.299 C 
ATOM     19  O   UNL d   1      62.148  48.164  50.052  0.00  0.00    -0.264 OA
ATOM     20  N   UNL d   1      61.536  48.895  51.119  0.00  0.00    -0.102 N 
ENDBRANCH   2  18
TORSDOF 3
ENDMDL
