MODEL 1
REMARK VINA RESULT:      20.9      0.000      0.000
REMARK  10 active torsions:
REMARK  status: ('A' for Active; 'I' for Inactive)
REMARK    1  A    between atoms: C_2  and  C_1 
REMARK       I    between atoms: N_3  and  C_1 
REMARK    2  A    between atoms: C_5  and  C_2 
REMARK    3  A    between atoms: C_6  and  N_3 
REMARK    4  A    between atoms: C_4  and  C_5 
REMARK    5  A    between atoms: O_11  and  C_4 
REMARK    6  A    between atoms: N_10  and  C_5 
REMARK    7  A    between atoms: O_13  and  C_9 
REMARK    8  A    between atoms: C_14  and  N_10 
REMARK    9  A    between atoms: N_12  and  C_16 
REMARK   10  A    between atoms: C_16  and  C_14 
ROOT
ATOM      1  C   UNK d   1      14.360  13.494  -1.462  0.00  0.00     0.084 C 
ENDROOT
BRANCH   1   2
ATOM      2  C   UNK d   1      14.096  13.063  -2.105  0.00  0.00     0.259 C 
ATOM      3  N   UNK d   1      13.717  13.443  -2.729  0.00  0.00    -0.320 N 
ATOM      4  H   UNK d   1      13.606  14.267  -2.701  0.00  0.00     0.169 HD
ATOM      5  O   UNK d   1      14.211  12.239  -2.126  0.00  0.00    -0.267 OA
BRANCH   3   6
ATOM      6  C   UNK d   1      13.452  13.017  -3.373  0.00  0.00     0.082 A 
ATOM      7  C   UNK d   1      13.327  13.410  -4.100  0.00  0.00     0.110 A 
ATOM      8  C   UNK d   1      13.057  12.980  -4.760  0.00  0.00     0.026 A 
ATOM      9  C   UNK d   1      12.919  12.168  -4.673  0.00  0.00     0.002 A 
ATOM     10  C   UNK d   1      13.045  11.782  -3.948  0.00  0.00     0.002 A 
ATOM     11  C   UNK d   1      13.310  12.205  -3.300  0.00  0.00     0.019 A 
BRANCH   7  12
ATOM     12  O   UNK d   1      13.471  14.218  -4.162  0.00  0.00    -0.327 OA
ATOM     13  C   UNK d   1      12.891  14.713  -4.475  0.00  0.00     0.181 C 
ENDBRANCH   7  12
ENDBRANCH   3   6
ENDBRANCH   1   2
BRANCH   1  14
ATOM     14  C   UNK d   1      14.724  13.110  -0.834  0.00  0.00     0.124 C 
BRANCH  14  15
ATOM     15  C   UNK d   1      14.522  12.324  -0.655  0.00  0.00     0.194 C 
ATOM     16  O   UNK d   1      15.102  11.781  -0.445  0.00  0.00    -0.645 OA
BRANCH  15  17
ATOM     17  O   UNK d   1      13.732  12.078  -0.685  0.00  0.00    -0.772 OA
ATOM     18  H   UNK d   1      13.471  11.645  -1.332  0.00  0.00     0.167 HD
ENDBRANCH  15  17
ENDBRANCH  14  15
BRANCH  14  19
ATOM     19  N   UNK d   1      15.279  13.503  -0.392  0.00  0.00    -0.346 N 
ATOM     20  H   UNK d   1      15.684  13.105   0.206  0.00  0.00     0.166 HD
BRANCH  19  21
ATOM     21  C   UNK d   0      15.444  14.298  -0.532  0.00  0.00     0.092 C 
BRANCH  21  22
ATOM     22  C   UNK d   0      15.186  14.881  -0.014  0.00  0.00     0.099 C 
BRANCH  22  23
ATOM     23  N   UNK d   0      15.347  15.672  -0.179  0.00  0.00    -0.299 N 
ATOM     24  C   UNK d   0      16.110  15.905  -0.379  0.00  0.00     0.100 C 
ATOM     25  C   UNK d   0      14.745  16.236  -0.144  0.00  0.00     0.100 C 
ENDBRANCH  22  23
ENDBRANCH  21  22
ENDBRANCH  19  21
ENDBRANCH  14  19
ENDBRANCH   1  14
TORSDOF 10
ENDMDL
MODEL 2
REMARK VINA RESULT:      22.6      1.949      4.065
REMARK  10 active torsions:
REMARK  status: ('A' for Active; 'I' for Inactive)
REMARK    1  A    between atoms: C_2  and  C_1 
REMARK       I    between atoms: N_3  and  C_1 
REMARK    2  A    between atoms: C_5  and  C_2 
REMARK    3  A    between atoms: C_6  and  N_3 
REMARK    4  A    between atoms: C_4  and  C_5 
REMARK    5  A    between atoms: O_11  and  C_4 
REMARK    6  A    between atoms: N_10  and  C_5 
REMARK    7  A    between atoms: O_13  and  C_9 
REMARK    8  A    between atoms: C_14  and  N_10 
REMARK    9  A    between atoms: N_12  and  C_16 
REMARK   10  A    between atoms: C_16  and  C_14 
ROOT
ATOM      1  C   UNK d   1      13.918  12.805  -3.624  0.00  0.00     0.084 C 
ENDROOT
BRANCH   1   2
ATOM      2  C   UNK d   1      13.709  12.637  -2.851  0.00  0.00     0.259 C 
ATOM      3  N   UNK d   1      14.256  12.292  -2.341  0.00  0.00    -0.320 N 
ATOM      4  H   UNK d   1      15.021  12.117  -2.618  0.00  0.00     0.169 HD
ATOM      5  O   UNK d   1      12.942  12.815  -2.581  0.00  0.00    -0.267 OA
BRANCH   3   6
ATOM      6  C   UNK d   1      14.052  12.123  -1.569  0.00  0.00     0.082 A 
ATOM      7  C   UNK d   1      14.644  12.129  -0.979  0.00  0.00     0.110 A 
ATOM      8  C   UNK d   1      14.441  11.957  -0.191  0.00  0.00     0.026 A 
ATOM      9  C   UNK d   1      13.650  11.784  -0.014  0.00  0.00     0.002 A 
ATOM     10  C   UNK d   1      13.065  11.779  -0.605  0.00  0.00     0.002 A 
ATOM     11  C   UNK d   1      13.265  11.948  -1.379  0.00  0.00     0.019 A 
BRANCH   7  12
ATOM     12  O   UNK d   1      15.422  12.304  -1.178  0.00  0.00    -0.327 OA
ATOM     13  C   UNK d   1      15.986  12.394  -0.584  0.00  0.00     0.181 C 
ENDBRANCH   7  12
ENDBRANCH   3   6
ENDBRANCH   1   2
BRANCH   1  14
ATOM     14  C   UNK d   1      13.335  12.909  -4.192  0.00  0.00     0.124 C 
BRANCH  14  15
ATOM     15  C   UNK d   1      13.327  12.431  -4.872  0.00  0.00     0.194 C 
ATOM     16  O   UNK d   1      13.823  12.598  -5.506  0.00  0.00    -0.645 OA
BRANCH  15  17
ATOM     17  O   UNK d   1      12.819  11.779  -4.919  0.00  0.00    -0.772 OA
ATOM     18  H   UNK d   1      12.894  11.256  -5.547  0.00  0.00     0.167 HD
ENDBRANCH  15  17
ENDBRANCH  14  15
BRANCH  14  19
ATOM     19  N   UNK d   1      12.769  13.479  -4.084  0.00  0.00    -0.346 N 
ATOM     20  H   UNK d   1      12.162  13.358  -3.539  0.00  0.00     0.166 HD
BRANCH  19  21
ATOM     21  C   UNK d   0      12.790  14.182  -4.514  0.00  0.00     0.092 C 
BRANCH  21  22
ATOM     22  C   UNK d   0      13.434  14.689  -4.462  0.00  0.00     0.099 C 
BRANCH  22  23
ATOM     23  N   UNK d   0      13.473  15.350  -4.952  0.00  0.00    -0.299 N 
ATOM     24  C   UNK d   0      14.154  15.811  -4.969  0.00  0.00     0.100 C 
ATOM     25  C   UNK d   0      12.830  15.555  -5.428  0.00  0.00     0.100 C 
ENDBRANCH  22  23
ENDBRANCH  21  22
ENDBRANCH  19  21
ENDBRANCH  14  19
ENDBRANCH   1  14
TORSDOF 10
ENDMDL
