MODEL 1
REMARK VINA RESULT:      52.9      0.000      0.000
REMARK  4 active torsions:
REMARK  status: ('A' for Active; 'I' for Inactive)
REMARK    1  A    between atoms: C_10  and  C_3 
REMARK       I    between atoms: N_11  and  C_10 
REMARK    2  A    between atoms: C_15  and  N_11 
REMARK    3  A    between atoms: C_17  and  C_15 
REMARK    4  A    between atoms: O_25  and  C_18 
ROOT
ATOM      1  C   UNL d   1      45.631 -19.007  42.935  0.00  0.00     0.071 A 
ATOM      2  C   UNL d   1      46.151 -19.497  42.480  0.00  0.00     0.142 A 
ATOM      3  C   UNL d   1      45.756 -19.166  43.734  0.00  0.00     0.086 A 
ATOM      4  C   UNL d   1      45.123 -18.491  42.555  0.00  0.00     0.198 A 
ATOM      5  O   UNL d   1      46.596 -19.958  43.001  0.00  0.00    -0.304 OA
ATOM      6  C   UNL d   1      46.345 -19.746  43.768  0.00  0.00     0.105 A 
ATOM      7  C   UNL d   1      46.139 -19.448  41.668  0.00  0.00     0.218 A 
ATOM      8  C   UNL d   1      45.112 -18.443  41.731  0.00  0.00     0.042 A 
ATOM      9  C   UNL d   1      45.632 -18.933  41.277  0.00  0.00     0.044 A 
ATOM     10  O   UNL d   1      44.615 -18.012  42.999  0.00  0.00    -0.286 OA
ATOM     11  O   UNL d   1      46.647 -19.927  41.225  0.00  0.00    -0.284 OA
ATOM     12  C   UNL d   1      46.646 -20.073  44.466  0.00  0.00     0.027 C 
ATOM     13  C   UNL d   1      44.607 -17.930  41.359  0.00  0.00     0.003 A 
ATOM     14  C   UNL d   1      45.623 -18.888  40.472  0.00  0.00     0.003 A 
ATOM     15  C   UNL d   1      44.591 -17.876  40.522  0.00  0.00     0.000 A 
ATOM     16  C   UNL d   1      45.111 -18.367  40.068  0.00  0.00     0.000 A 
ENDROOT
BRANCH   3  17
ATOM     17  C   UNL d   1      45.377 -18.823  44.390  0.00  0.00     0.281 C 
ATOM     18  N   UNL d   1      45.575 -18.066  44.617  0.00  0.00    -0.206 NA
ATOM     19  O   UNL d   1      44.814 -19.258  44.790  0.00  0.00    -0.265 OA
BRANCH  18  20
ATOM     20  C   UNL d   1      46.129 -17.655  44.214  0.00  0.00     0.102 C 
BRANCH  20  21
ATOM     21  C   UNL d   1      46.135 -16.833  44.273  0.00  0.00     0.019 A 
ATOM     22  C   UNL d   1      45.712 -16.457  44.869  0.00  0.00     0.004 A 
ATOM     23  C   UNL d   1      45.707 -15.645  44.942  0.00  0.00     0.024 A 
ATOM     24  C   UNL d   1      46.123 -15.186  44.422  0.00  0.00     0.094 A 
ATOM     25  C   UNL d   1      46.558 -15.557  43.810  0.00  0.00     0.024 A 
ATOM     26  C   UNL d   1      46.550 -16.369  43.754  0.00  0.00     0.004 A 
BRANCH  24  27
ATOM     27  O   UNL d   1      46.101 -14.356  44.518  0.00  0.00    -0.328 OA
ATOM     28  C   UNL d   1      45.401 -14.001  44.694  0.00  0.00     0.181 C 
ENDBRANCH  24  27
ENDBRANCH  20  21
ENDBRANCH  18  20
ENDBRANCH   3  17
TORSDOF 4
ENDMDL
