MODEL 1
REMARK VINA RESULT:     -10.3      0.000      0.000
REMARK  4 active torsions:
REMARK  status: ('A' for Active; 'I' for Inactive)
REMARK    1  A    between atoms: C_12  and  C_2 
REMARK    2  A    between atoms: N_9  and  C_3 
REMARK       I    between atoms: C_7  and  N_8 
REMARK    3  A    between atoms: C_10  and  C_7 
REMARK    4  A    between atoms: N_8  and  N_9 
ROOT
ATOM      1  C   UNL d   1      52.755  33.819  53.903  0.00  0.00     0.037 A 
ATOM      2  C   UNL d   1      52.252  33.381  53.412  0.00  0.00     0.101 A 
ATOM      3  C   UNL d   1      52.985  32.167  53.741  0.00  0.00     0.768 A 
ATOM      4  N   UNL d   1      52.372  32.569  53.338  0.00  0.00    -0.058 NA
ATOM      5  N   UNL d   1      53.491  32.630  54.239  0.00  0.00    -0.058 NA
ATOM      6  C   UNL d   1      53.377  33.436  54.317  0.00  0.00     0.101 A 
ATOM      7  C   UNL d   1      52.667  34.632  54.003  0.00  0.00     0.010 A 
ATOM      8  C   UNL d   1      53.892  33.883  54.819  0.00  0.00     0.020 A 
ATOM      9  C   UNL d   1      53.156  35.072  54.482  0.00  0.00     0.035 A 
ATOM     10  C   UNL d   1      53.765  34.687  54.885  0.00  0.00     0.008 A 
ATOM     11 BR   UNL d   1      53.045  35.917  54.570  0.00  0.00    -0.049 Br
ENDROOT
BRANCH   3  12
ATOM     12  N   UNL d   1      53.112  31.351  53.671  0.00  0.00     0.049 NA
BRANCH  12  13
ATOM     13  N   UNL d   1      53.048  30.970  52.946  0.00  0.00    -0.094 NA
ATOM     14  C   UNL d   1      53.087  30.172  52.896  0.00  0.00     0.273 C 
ATOM     15  O   UNL d   1      53.019  29.820  52.146  0.00  0.00    -0.269 OA
BRANCH  14  16
ATOM     16  C   UNL d   1      53.193  29.715  53.569  0.00  0.00     0.075 C 
ATOM     17  C   UNL d   1      52.346  29.585  53.612  0.00  0.00     0.009 C 
ATOM     18  C   UNL d   1      54.009  29.853  53.507  0.00  0.00     0.009 C 
ATOM     19  C   UNL d   1      53.300  29.258  54.242  0.00  0.00     0.009 C 
ENDBRANCH  14  16
ENDBRANCH  12  13
ENDBRANCH   3  12
BRANCH   2  20
ATOM     20  C   UNL d   1      51.643  33.730  53.002  0.00  0.00     0.018 A 
ATOM     21  C   UNL d   1      51.752  34.050  52.266  0.00  0.00     0.002 A 
ATOM     22  C   UNL d   1      51.145  34.396  51.860  0.00  0.00     0.000 A 
ATOM     23  C   UNL d   1      50.397  34.422  52.207  0.00  0.00     0.000 A 
ATOM     24  C   UNL d   1      50.274  34.119  52.914  0.00  0.00     0.000 A 
ATOM     25  C   UNL d   1      50.888  33.760  53.344  0.00  0.00     0.002 A 
ENDBRANCH   2  20
TORSDOF 4
ENDMDL
MODEL 2
REMARK VINA RESULT:      -9.3      2.074      4.383
REMARK  4 active torsions:
REMARK  status: ('A' for Active; 'I' for Inactive)
REMARK    1  A    between atoms: C_12  and  C_2 
REMARK    2  A    between atoms: N_9  and  C_3 
REMARK       I    between atoms: C_7  and  N_8 
REMARK    3  A    between atoms: C_10  and  C_7 
REMARK    4  A    between atoms: N_8  and  N_9 
ROOT
ATOM      1  C   UNL d   1      53.171  31.739  53.502  0.00  0.00     0.037 A 
ATOM      2  C   UNL d   1      53.257  32.542  53.682  0.00  0.00     0.101 A 
ATOM      3  C   UNL d   1      52.047  32.841  52.931  0.00  0.00     0.768 A 
ATOM      4  N   UNL d   1      52.699  33.078  53.397  0.00  0.00    -0.058 NA
ATOM      5  N   UNL d   1      51.973  32.015  52.755  0.00  0.00    -0.058 NA
ATOM      6  C   UNL d   1      52.523  31.478  53.035  0.00  0.00     0.101 A 
ATOM      7  C   UNL d   1      53.707  31.172  53.769  0.00  0.00     0.010 A 
ATOM      8  C   UNL d   1      52.435  30.656  52.851  0.00  0.00     0.020 A 
ATOM      9  C   UNL d   1      53.632  30.380  53.598  0.00  0.00     0.035 A 
ATOM     10  C   UNL d   1      52.993  30.134  53.138  0.00  0.00     0.008 A 
ATOM     11 BR   UNL d   1      54.203  29.810  53.886  0.00  0.00    -0.049 Br
ENDROOT
BRANCH   3  12
ATOM     12  N   UNL d   1      51.482  33.374  52.640  0.00  0.00     0.049 NA
BRANCH  12  13
ATOM     13  N   UNL d   1      51.269  34.044  53.066  0.00  0.00    -0.094 NA
ATOM     14  C   UNL d   1      50.683  34.525  52.811  0.00  0.00     0.273 C 
ATOM     15  O   UNL d   1      50.494  35.193  53.267  0.00  0.00    -0.269 OA
BRANCH  14  16
ATOM     16  C   UNL d   1      50.280  34.361  52.115  0.00  0.00     0.075 C 
ATOM     17  C   UNL d   1      50.972  34.587  51.662  0.00  0.00     0.009 C 
ATOM     18  C   UNL d   1      49.622  34.147  52.573  0.00  0.00     0.009 C 
ATOM     19  C   UNL d   1      49.876  34.196  51.420  0.00  0.00     0.009 C 
ENDBRANCH  14  16
ENDBRANCH  12  13
ENDBRANCH   3  12
BRANCH   2  20
ATOM     20  C   UNL d   1      53.875  32.817  54.132  0.00  0.00     0.018 A 
ATOM     21  C   UNL d   1      53.834  32.851  54.940  0.00  0.00     0.002 A 
ATOM     22  C   UNL d   1      54.450  33.125  55.384  0.00  0.00     0.000 A 
ATOM     23  C   UNL d   1      55.138  33.375  55.002  0.00  0.00     0.000 A 
ATOM     24  C   UNL d   1      55.195  33.349  54.226  0.00  0.00     0.000 A 
ATOM     25  C   UNL d   1      54.570  33.070  53.755  0.00  0.00     0.002 A 
ENDBRANCH   2  20
TORSDOF 4
ENDMDL
MODEL 3
REMARK VINA RESULT:      -8.9      1.072      2.672
REMARK  4 active torsions:
REMARK  status: ('A' for Active; 'I' for Inactive)
REMARK    1  A    between atoms: C_12  and  C_2 
REMARK    2  A    between atoms: N_9  and  C_3 
REMARK       I    between atoms: C_7  and  N_8 
REMARK    3  A    between atoms: C_10  and  C_7 
REMARK    4  A    between atoms: N_8  and  N_9 
ROOT
ATOM      1  C   UNL d   1      53.245  33.100  53.725  0.00  0.00     0.037 A 
ATOM      2  C   UNL d   1      53.857  32.760  54.167  0.00  0.00     0.101 A 
ATOM      3  C   UNL d   1      53.313  31.436  53.904  0.00  0.00     0.768 A 
ATOM      4  N   UNL d   1      53.883  31.940  54.250  0.00  0.00    -0.058 NA
ATOM      5  N   UNL d   1      52.693  31.799  53.455  0.00  0.00    -0.058 NA
ATOM      6  C   UNL d   1      52.662  32.612  53.368  0.00  0.00     0.101 A 
ATOM      7  C   UNL d   1      53.185  33.915  53.619  0.00  0.00     0.010 A 
ATOM      8  C   UNL d   1      52.035  32.959  52.916  0.00  0.00     0.020 A 
ATOM      9  C   UNL d   1      52.587  34.260  53.186  0.00  0.00     0.035 A 
ATOM     10  C   UNL d   1      52.019  33.772  52.840  0.00  0.00     0.008 A 
ATOM     11 BR   UNL d   1      52.546  35.110  53.090  0.00  0.00    -0.049 Br
ENDROOT
BRANCH   3  12
ATOM     12  N   UNL d   1      53.333  30.610  53.983  0.00  0.00     0.049 NA
BRANCH  12  13
ATOM     13  N   UNL d   1      52.961  30.121  53.439  0.00  0.00    -0.094 NA
ATOM     14  C   UNL d   1      52.894  29.334  53.570  0.00  0.00     0.273 C 
ATOM     15  O   UNL d   1      52.512  28.869  52.998  0.00  0.00    -0.269 OA
BRANCH  14  16
ATOM     16  C   UNL d   1      53.198  28.997  54.253  0.00  0.00     0.075 C 
ATOM     17  C   UNL d   1      52.441  29.105  54.641  0.00  0.00     0.009 C 
ATOM     18  C   UNL d   1      53.922  28.903  53.859  0.00  0.00     0.009 C 
ATOM     19  C   UNL d   1      53.503  28.660  54.937  0.00  0.00     0.009 C 
ENDBRANCH  14  16
ENDBRANCH  12  13
ENDBRANCH   3  12
BRANCH   2  20
ATOM     20  C   UNL d   1      54.433  33.212  54.521  0.00  0.00     0.018 A 
ATOM     21  C   UNL d   1      55.103  33.437  54.126  0.00  0.00     0.002 A 
ATOM     22  C   UNL d   1      55.673  33.886  54.480  0.00  0.00     0.000 A 
ATOM     23  C   UNL d   1      55.567  34.120  55.264  0.00  0.00     0.000 A 
ATOM     24  C   UNL d   1      54.929  33.912  55.660  0.00  0.00     0.000 A 
ATOM     25  C   UNL d   1      54.333  33.450  55.310  0.00  0.00     0.002 A 
ENDBRANCH   2  20
TORSDOF 4
ENDMDL
