MODEL 1
REMARK VINA RESULT:      -2.6      0.000      0.000
REMARK  7 active torsions:
REMARK  status: ('A' for Active; 'I' for Inactive)
REMARK    1  A    between atoms: C_4  and  C_10 
REMARK    2  A    between atoms: O_17  and  C_4 
REMARK    3  A    between atoms: O_19  and  C_5 
REMARK    4  A    between atoms: O_20  and  C_7 
REMARK    5  A    between atoms: C_12  and  C_8 
REMARK    6  A    between atoms: O_15  and  C_12 
REMARK    7  A    between atoms: C_16  and  O_15 
ROOT
ATOM      1  C   UNL d   1      31.049  16.748 -24.522  0.00  0.00     0.022 A 
ATOM      2  C   UNL d   1      30.441  17.279 -24.367  0.00  0.00     0.028 A 
ATOM      3  C   UNL d   1      30.880  15.981 -24.809  0.00  0.00     0.005 A 
ATOM      4  C   UNL d   1      29.664  17.044 -24.500  0.00  0.00     0.116 A 
ATOM      5  C   UNL d   1      30.105  15.750 -24.940  0.00  0.00     0.026 A 
ATOM      6  C   UNL d   1      29.496  16.277 -24.788  0.00  0.00     0.116 A 
ATOM      7  C   UNL d   1      31.821  16.984 -24.389  0.00  0.00     0.106 A 
ATOM      8  N   UNL d   1      32.429  16.453 -24.543  0.00  0.00    -0.242 NA
ATOM      9  C   UNL d   1      32.261  15.686 -24.831  0.00  0.00     0.099 A 
ATOM     10  C   UNL d   1      31.486  15.455 -24.962  0.00  0.00     0.021 A 
ENDROOT
BRANCH   7  11
ATOM     11  C   UNL d   1      31.990  17.752 -24.101  0.00  0.00     0.142 C 
BRANCH  11  12
ATOM     12  O   UNL d   1      32.699  17.904 -23.719  0.00  0.00    -0.304 OA
BRANCH  12  13
ATOM     13  C   UNL d   1      32.815  18.625 -23.323  0.00  0.00     0.100 A 
ATOM     14  C   UNL d   1      32.860  18.653 -22.500  0.00  0.00     0.025 A 
ATOM     15  C   UNL d   1      32.976  19.374 -22.104  0.00  0.00     0.007 A 
ATOM     16  C   UNL d   1      33.050  20.080 -22.524  0.00  0.00     0.063 A 
ATOM     17  C   UNL d   1      33.005  20.052 -23.347  0.00  0.00     0.007 A 
ATOM     18  C   UNL d   1      32.889  19.331 -23.743  0.00  0.00     0.025 A 
BRANCH  16  19
ATOM     19  C   UNL d   1      33.167  20.800 -22.123  0.00  0.00     0.296 C 
ATOM     20  O   UNL d   1      33.210  21.509 -22.529  0.00  0.00    -0.259 OA
BRANCH  19  21
ATOM     21  O   UNL d   1      33.241  20.808 -21.293  0.00  0.00    -0.296 OA
ATOM     22  C   UNL d   1      33.140  21.525 -20.864  0.00  0.00     0.185 C 
ENDBRANCH  19  21
ENDBRANCH  16  19
ENDBRANCH  12  13
ENDBRANCH  11  12
ENDBRANCH   7  11
BRANCH   4  23
ATOM     23  O   UNL d   1      29.041  17.578 -24.346  0.00  0.00    -0.326 OA
ATOM     24  C   UNL d   1      29.000  18.286 -24.759  0.00  0.00     0.181 C 
ENDBRANCH   4  23
BRANCH   6  25
ATOM     25  O   UNL d   1      28.703  16.035 -24.924  0.00  0.00    -0.326 OA
ATOM     26  C   UNL d   1      28.371  15.468 -24.423  0.00  0.00     0.181 C 
ENDBRANCH   6  25
TORSDOF 7
ENDMDL
MODEL 2
REMARK VINA RESULT:      -0.0      1.873      2.882
REMARK  7 active torsions:
REMARK  status: ('A' for Active; 'I' for Inactive)
REMARK    1  A    between atoms: C_4  and  C_10 
REMARK    2  A    between atoms: O_17  and  C_4 
REMARK    3  A    between atoms: O_19  and  C_5 
REMARK    4  A    between atoms: O_20  and  C_7 
REMARK    5  A    between atoms: C_12  and  C_8 
REMARK    6  A    between atoms: O_15  and  C_12 
REMARK    7  A    between atoms: C_16  and  O_15 
ROOT
ATOM      1  C   UNL d   1      32.532  18.178 -23.895  0.00  0.00     0.022 A 
ATOM      2  C   UNL d   1      32.883  17.670 -23.353  0.00  0.00     0.028 A 
ATOM      3  C   UNL d   1      32.097  17.875 -24.541  0.00  0.00     0.005 A 
ATOM      4  C   UNL d   1      32.799  16.858 -23.457  0.00  0.00     0.116 A 
ATOM      5  C   UNL d   1      32.015  17.066 -24.641  0.00  0.00     0.026 A 
ATOM      6  C   UNL d   1      32.364  16.555 -24.103  0.00  0.00     0.116 A 
ATOM      7  C   UNL d   1      32.617  18.985 -23.790  0.00  0.00     0.106 A 
ATOM      8  N   UNL d   1      32.266  19.494 -24.332  0.00  0.00    -0.242 NA
ATOM      9  C   UNL d   1      31.830  19.191 -24.978  0.00  0.00     0.099 A 
ATOM     10  C   UNL d   1      31.749  18.382 -25.078  0.00  0.00     0.021 A 
ENDROOT
BRANCH   7  11
ATOM     11  C   UNL d   1      33.053  19.289 -23.143  0.00  0.00     0.142 C 
BRANCH  11  12
ATOM     12  O   UNL d   1      33.223  20.089 -23.098  0.00  0.00    -0.304 OA
BRANCH  12  13
ATOM     13  C   UNL d   1      33.214  20.479 -22.364  0.00  0.00     0.100 A 
ATOM     14  C   UNL d   1      33.178  21.302 -22.322  0.00  0.00     0.025 A 
ATOM     15  C   UNL d   1      33.169  21.691 -21.588  0.00  0.00     0.007 A 
ATOM     16  C   UNL d   1      33.196  21.265 -20.883  0.00  0.00     0.063 A 
ATOM     17  C   UNL d   1      33.232  20.442 -20.925  0.00  0.00     0.007 A 
ATOM     18  C   UNL d   1      33.241  20.052 -21.659  0.00  0.00     0.025 A 
BRANCH  16  19
ATOM     19  C   UNL d   1      33.187  21.659 -20.150  0.00  0.00     0.296 C 
ATOM     20  O   UNL d   1      33.160  21.244 -19.445  0.00  0.00    -0.259 OA
BRANCH  19  21
ATOM     21  O   UNL d   1      33.206  22.491 -20.124  0.00  0.00    -0.296 OA
ATOM     22  C   UNL d   1      32.649  22.915 -19.658  0.00  0.00     0.185 C 
ENDBRANCH  19  21
ENDBRANCH  16  19
ENDBRANCH  12  13
ENDBRANCH  11  12
ENDBRANCH   7  11
BRANCH   4  23
ATOM     23  O   UNL d   1      33.154  16.336 -22.910  0.00  0.00    -0.326 OA
ATOM     24  C   UNL d   1      33.103  16.492 -22.106  0.00  0.00     0.181 C 
ENDBRANCH   4  23
BRANCH   6  25
ATOM     25  O   UNL d   1      32.277  15.727 -24.210  0.00  0.00    -0.326 OA
ATOM     26  C   UNL d   1      31.938  15.453 -24.911  0.00  0.00     0.181 C 
ENDBRANCH   6  25
TORSDOF 7
ENDMDL
