MODEL 1
REMARK VINA RESULT:      65.1      0.000      0.000
REMARK  3 active torsions:
REMARK  status: ('A' for Active; 'I' for Inactive)
REMARK    1  A    between atoms: N_5  and  C_2 
REMARK    2  A    between atoms: C_9  and  C_3 
REMARK       I    between atoms: C_7  and  N_5 
REMARK    3  A    between atoms: C_8  and  C_7 
ROOT
ATOM      1  N   UNL d   1      58.896  49.482  51.928  0.00  0.00    -0.200 NA
ATOM      2  C   UNL d   1      58.079  49.470  51.929  0.00  0.00     0.216 A 
ATOM      3  C   UNL d   1      59.142  49.427  51.133  0.00  0.00     0.172 A 
ATOM      4  N   UNL d   1      58.469  49.382  50.662  0.00  0.00    -0.187 NA
ATOM      5  S   UNL d   1      57.812  49.409  51.154  0.00  0.00     0.054 SA
ENDROOT
BRANCH   2   6
ATOM      6  N   UNL d   1      57.606  49.513  52.601  0.00  0.00    -0.181 NA
ATOM      7  C   UNL d   1      57.953  49.468  53.352  0.00  0.00     0.281 C 
ATOM      8  O   UNL d   1      58.766  49.381  53.427  0.00  0.00    -0.265 OA
BRANCH   7   9
ATOM      9  C   UNL d   1      57.482  49.511  54.021  0.00  0.00     0.058 A 
ATOM     10  C   UNL d   1      56.665  49.547  53.947  0.00  0.00     0.005 A 
ATOM     11  C   UNL d   1      56.189  49.590  54.623  0.00  0.00     0.000 A 
ATOM     12  C   UNL d   1      56.534  49.597  55.368  0.00  0.00     0.000 A 
ATOM     13  C   UNL d   1      57.357  49.561  55.447  0.00  0.00     0.000 A 
ATOM     14  C   UNL d   1      56.061  49.640  56.040  0.00  0.00     0.000 C 
ATOM     15  C   UNL d   1      57.833  49.518  54.771  0.00  0.00     0.005 A 
ENDBRANCH   7   9
ENDBRANCH   2   6
BRANCH   3  16
ATOM     16  C   UNL d   1      59.916  49.419  50.869  0.00  0.00     0.036 A 
ATOM     17  C   UNL d   1      60.516  49.149  51.374  0.00  0.00     0.003 A 
ATOM     18  C   UNL d   1      61.295  49.145  51.097  0.00  0.00     0.000 A 
ATOM     19  C   UNL d   1      61.474  49.405  50.329  0.00  0.00     0.000 A 
ATOM     20  C   UNL d   1      60.874  49.670  49.838  0.00  0.00     0.000 A 
ATOM     21  C   UNL d   1      60.091  49.677  50.106  0.00  0.00     0.003 A 
ENDBRANCH   3  16
TORSDOF 3
ENDMDL
