MODEL 1
REMARK VINA RESULT:      -2.8      0.000      0.000
REMARK  6 active torsions:
REMARK  status: ('A' for Active; 'I' for Inactive)
REMARK    1  A    between atoms: C_6  and  C_2 
REMARK    2  A    between atoms: C_7  and  C_6 
REMARK    3  A    between atoms: C_8  and  C_15 
REMARK       I    between atoms: N_9  and  C_8 
REMARK    4  A    between atoms: C_16  and  N_9 
REMARK    5  A    between atoms: O_13  and  C_12 
REMARK    6  A    between atoms: C_15  and  O_13 
ROOT
ATOM      1  C   UNL d   1     -41.851-122.202 -50.791  0.00  0.00     0.023 A 
ATOM      2  C   UNL d   1     -41.745-122.019 -51.587  0.00  0.00     0.100 A 
ATOM      3  C   UNL d   1     -41.599-121.683 -50.208  0.00  0.00     0.002 A 
ATOM      4  C   UNL d   1     -41.384-121.310 -51.804  0.00  0.00     0.025 A 
ATOM      5  C   UNL d   1     -41.236-120.968 -50.416  0.00  0.00     0.000 A 
ATOM      6  C   UNL d   1     -41.130-120.786 -51.219  0.00  0.00     0.002 A 
ENDROOT
BRANCH   2   7
ATOM      7  O   UNL d   1     -41.999-122.545 -52.174  0.00  0.00    -0.300 OA
BRANCH   7   8
ATOM      8  C   UNL d   1     -41.672-122.492 -52.936  0.00  0.00     0.185 C 
BRANCH   8   9
ATOM      9  C   UNL d   1     -41.423-123.184 -53.326  0.00  0.00     0.304 C 
ATOM     10  N   UNL d   1     -41.479-123.230 -54.151  0.00  0.00    -0.206 NA
ATOM     11  O   UNL d   1     -41.123-123.817 -52.891  0.00  0.00    -0.263 OA
BRANCH  10  12
ATOM     12  C   UNL d   1     -41.779-122.596 -54.584  0.00  0.00     0.085 A 
ATOM     13  C   UNL d   1     -41.256-122.058 -54.941  0.00  0.00     0.019 A 
ATOM     14  C   UNL d   1     -41.550-121.421 -55.377  0.00  0.00     0.002 A 
ATOM     15  C   UNL d   1     -42.371-121.320 -55.458  0.00  0.00     0.000 A 
ATOM     16  C   UNL d   1     -42.887-121.860 -55.099  0.00  0.00     0.002 A 
ATOM     17  C   UNL d   1     -42.587-122.495 -54.665  0.00  0.00     0.019 A 
ENDBRANCH  10  12
ENDBRANCH   8   9
ENDBRANCH   7   8
ENDBRANCH   2   7
BRANCH   1  18
ATOM     18  C   UNL d   1     -42.213-122.913 -50.570  0.00  0.00     0.013 C 
BRANCH  18  19
ATOM     19  C   UNL d   1     -42.323-123.100 -49.776  0.00  0.00     0.092 A 
ATOM     20  C   UNL d   1     -43.039-123.253 -49.406  0.00  0.00     0.288 A 
ATOM     21  N   UNL d   1     -42.892-123.413 -48.613  0.00  0.00    -0.163 NA
ATOM     22  O   UNL d   1     -43.781-123.247 -49.768  0.00  0.00    -0.265 OA
ATOM     23  C   UNL d   1     -42.074-123.358 -48.490  0.00  0.00     0.313 A 
ATOM     24  S   UNL d   1     -41.721-123.164 -49.212  0.00  0.00    -0.021 SA
ATOM     25  O   UNL d   1     -41.678-123.477 -47.769  0.00  0.00    -0.258 OA
ENDBRANCH  18  19
ENDBRANCH   1  18
TORSDOF 6
ENDMDL
MODEL 2
REMARK VINA RESULT:      -2.4      1.407      4.927
REMARK  6 active torsions:
REMARK  status: ('A' for Active; 'I' for Inactive)
REMARK    1  A    between atoms: C_6  and  C_2 
REMARK    2  A    between atoms: C_7  and  C_6 
REMARK    3  A    between atoms: C_8  and  C_15 
REMARK       I    between atoms: N_9  and  C_8 
REMARK    4  A    between atoms: C_16  and  N_9 
REMARK    5  A    between atoms: O_13  and  C_12 
REMARK    6  A    between atoms: C_15  and  O_13 
ROOT
ATOM      1  C   UNL d   1     -41.701-122.202 -52.207  0.00  0.00     0.023 A 
ATOM      2  C   UNL d   1     -41.755-122.353 -51.398  0.00  0.00     0.100 A 
ATOM      3  C   UNL d   1     -41.388-121.493 -52.476  0.00  0.00     0.002 A 
ATOM      4  C   UNL d   1     -41.494-121.791 -50.854  0.00  0.00     0.025 A 
ATOM      5  C   UNL d   1     -41.123-120.923 -51.937  0.00  0.00     0.000 A 
ATOM      6  C   UNL d   1     -41.179-121.078 -51.124  0.00  0.00     0.002 A 
ENDROOT
BRANCH   2   7
ATOM      7  O   UNL d   1     -42.072-123.069 -51.128  0.00  0.00    -0.300 OA
BRANCH   7   8
ATOM      8  C   UNL d   1     -42.267-123.149 -50.324  0.00  0.00     0.185 C 
BRANCH   8   9
ATOM      9  C   UNL d   1     -42.940-123.586 -50.105  0.00  0.00     0.304 C 
ATOM     10  N   UNL d   1     -43.045-123.804 -49.314  0.00  0.00    -0.206 NA
ATOM     11  O   UNL d   1     -43.497-123.800 -50.675  0.00  0.00    -0.263 OA
BRANCH  10  12
ATOM     12  C   UNL d   1     -42.488-123.590 -48.745  0.00  0.00     0.085 A 
ATOM     13  C   UNL d   1     -41.685-123.765 -48.869  0.00  0.00     0.019 A 
ATOM     14  C   UNL d   1     -41.123-123.553 -48.303  0.00  0.00     0.002 A 
ATOM     15  C   UNL d   1     -41.361-123.165 -47.608  0.00  0.00     0.000 A 
ATOM     16  C   UNL d   1     -42.163-122.994 -47.491  0.00  0.00     0.002 A 
ATOM     17  C   UNL d   1     -42.721-123.208 -48.060  0.00  0.00     0.019 A 
ENDBRANCH  10  12
ENDBRANCH   8   9
ENDBRANCH   7   8
ENDBRANCH   2   7
BRANCH   1  18
ATOM     18  C   UNL d   1     -41.962-122.765 -52.755  0.00  0.00     0.013 C 
BRANCH  18  19
ATOM     19  C   UNL d   1     -41.896-122.624 -53.564  0.00  0.00     0.092 A 
ATOM     20  C   UNL d   1     -41.516-123.101 -54.112  0.00  0.00     0.288 A 
ATOM     21  N   UNL d   1     -41.585-122.751 -54.852  0.00  0.00    -0.163 NA
ATOM     22  O   UNL d   1     -41.130-123.812 -53.949  0.00  0.00    -0.265 OA
ATOM     23  C   UNL d   1     -42.014-122.047 -54.763  0.00  0.00     0.313 A 
ATOM     24  S   UNL d   1     -42.207-121.968 -53.962  0.00  0.00    -0.021 SA
ATOM     25  O   UNL d   1     -42.215-121.515 -55.368  0.00  0.00    -0.258 OA
ENDBRANCH  18  19
ENDBRANCH   1  18
TORSDOF 6
ENDMDL
