MODEL 1
REMARK VINA RESULT:      45.9      0.000      0.000
REMARK  8 active torsions:
REMARK  status: ('A' for Active; 'I' for Inactive)
REMARK    1  A    between atoms: N_6  and  C_1 
REMARK    2  A    between atoms: N_7  and  C_2 
REMARK       I    between atoms: C_8  and  N_6 
REMARK       I    between atoms: C_9  and  N_7 
REMARK    3  A    between atoms: C_14  and  C_8 
REMARK    4  A    between atoms: C_15  and  C_9 
REMARK    5  A    between atoms: O_12  and  C_14 
REMARK    6  A    between atoms: C_16  and  O_12 
REMARK    7  A    between atoms: O_13  and  C_15 
REMARK    8  A    between atoms: C_17  and  O_13 
ROOT
ATOM      1  C   UNL d   1      13.812  14.731  -4.549  0.00  0.00     0.232 A 
ATOM      2  C   UNL d   1      13.240  14.149  -4.425  0.00  0.00     0.232 A 
ATOM      3  N   UNL d   1      13.687  15.315  -3.967  0.00  0.00    -0.081 NA
ATOM      4  N   UNL d   1      12.780  14.364  -3.793  0.00  0.00    -0.081 NA
ATOM      5  O   UNL d   1      13.039  15.067  -3.505  0.00  0.00    -0.103 OA
ENDROOT
BRANCH   1   6
ATOM      6  N   UNL d   1      14.356  14.646  -5.165  0.00  0.00    -0.182 NA
ATOM      7  C   UNL d   1      14.401  15.228  -5.756  0.00  0.00     0.306 C 
ATOM      8  O   UNL d   1      14.940  15.160  -6.379  0.00  0.00    -0.263 OA
BRANCH   7   9
ATOM      9  C   UNL d   1      13.895  15.891  -5.720  0.00  0.00     0.185 C 
BRANCH   9  10
ATOM     10  O   UNL d   1      13.817  16.384  -6.382  0.00  0.00    -0.300 OA
BRANCH  10  11
ATOM     11  C   UNL d   1      13.683  17.191  -6.285  0.00  0.00     0.100 A 
ATOM     12  C   UNL d   1      12.914  17.483  -6.383  0.00  0.00     0.025 A 
ATOM     13  C   UNL d   1      12.775  18.291  -6.287  0.00  0.00     0.002 A 
ATOM     14  C   UNL d   1      13.387  18.802  -6.096  0.00  0.00     0.000 A 
ATOM     15  C   UNL d   1      14.159  18.509  -5.997  0.00  0.00     0.002 A 
ATOM     16  C   UNL d   1      14.305  17.694  -6.093  0.00  0.00     0.025 A 
ENDBRANCH  10  11
ENDBRANCH   9  10
ENDBRANCH   7   9
ENDBRANCH   1   6
BRANCH   2  17
ATOM     17  N   UNL d   1      13.155  13.447  -4.887  0.00  0.00    -0.182 NA
ATOM     18  C   UNL d   1      13.164  12.702  -4.529  0.00  0.00     0.306 C 
ATOM     19  O   UNL d   1      13.081  12.032  -4.987  0.00  0.00    -0.263 OA
BRANCH  18  20
ATOM     20  C   UNL d   1      13.260  12.644  -3.696  0.00  0.00     0.185 C 
BRANCH  20  21
ATOM     21  O   UNL d   1      13.545  11.956  -3.351  0.00  0.00    -0.300 OA
BRANCH  21  22
ATOM     22  C   UNL d   1      13.755  11.961  -2.551  0.00  0.00     0.100 A 
ATOM     23  C   UNL d   1      14.516  12.138  -2.300  0.00  0.00     0.025 A 
ATOM     24  C   UNL d   1      14.758  12.152  -1.518  0.00  0.00     0.002 A 
ATOM     25  C   UNL d   1      14.163  11.967  -0.954  0.00  0.00     0.000 A 
ATOM     26  C   UNL d   1      13.398  11.787  -1.194  0.00  0.00     0.002 A 
ATOM     27  C   UNL d   1      13.182  11.781  -1.988  0.00  0.00     0.025 A 
ENDBRANCH  21  22
ENDBRANCH  20  21
ENDBRANCH  18  20
ENDBRANCH   2  17
TORSDOF 8
ENDMDL
MODEL 2
REMARK VINA RESULT:      47.6      0.606      5.701
REMARK  8 active torsions:
REMARK  status: ('A' for Active; 'I' for Inactive)
REMARK    1  A    between atoms: N_6  and  C_1 
REMARK    2  A    between atoms: N_7  and  C_2 
REMARK       I    between atoms: C_8  and  N_6 
REMARK       I    between atoms: C_9  and  N_7 
REMARK    3  A    between atoms: C_14  and  C_8 
REMARK    4  A    between atoms: C_15  and  C_9 
REMARK    5  A    between atoms: O_12  and  C_14 
REMARK    6  A    between atoms: C_16  and  O_12 
REMARK    7  A    between atoms: O_13  and  C_15 
REMARK    8  A    between atoms: C_17  and  O_13 
ROOT
ATOM      1  C   UNL d   1      13.417  14.196  -3.899  0.00  0.00     0.232 A 
ATOM      2  C   UNL d   1      13.871  14.736  -4.328  0.00  0.00     0.232 A 
ATOM      3  N   UNL d   1      13.348  14.504  -3.127  0.00  0.00    -0.081 NA
ATOM      4  N   UNL d   1      14.074  15.352  -3.841  0.00  0.00    -0.081 NA
ATOM      5  O   UNL d   1      13.765  15.225  -3.112  0.00  0.00    -0.103 OA
ENDROOT
BRANCH   1   6
ATOM      6  N   UNL d   1      13.136  13.512  -4.267  0.00  0.00    -0.182 NA
ATOM      7  C   UNL d   1      13.192  12.782  -3.876  0.00  0.00     0.306 C 
ATOM      8  O   UNL d   1      12.916  12.088  -4.229  0.00  0.00    -0.263 OA
BRANCH   7   9
ATOM      9  C   UNL d   1      13.532  12.749  -3.114  0.00  0.00     0.185 C 
BRANCH   9  10
ATOM     10  O   UNL d   1      13.693  12.013  -2.769  0.00  0.00    -0.300 OA
BRANCH  10  11
ATOM     11  C   UNL d   1      13.937  11.968  -1.983  0.00  0.00     0.100 A 
ATOM     12  C   UNL d   1      13.370  11.827  -1.395  0.00  0.00     0.025 A 
ATOM     13  C   UNL d   1      13.610  11.781  -0.608  0.00  0.00     0.002 A 
ATOM     14  C   UNL d   1      14.399  11.872  -0.403  0.00  0.00     0.000 A 
ATOM     15  C   UNL d   1      14.968  12.013  -0.992  0.00  0.00     0.002 A 
ATOM     16  C   UNL d   1      14.732  12.061  -1.790  0.00  0.00     0.025 A 
ENDBRANCH  10  11
ENDBRANCH   9  10
ENDBRANCH   7   9
ENDBRANCH   1   6
BRANCH   2  17
ATOM     17  N   UNL d   1      14.084  14.652  -5.140  0.00  0.00    -0.182 NA
ATOM     18  C   UNL d   1      14.252  15.315  -5.605  0.00  0.00     0.306 C 
ATOM     19  O   UNL d   1      14.456  15.219  -6.388  0.00  0.00    -0.263 OA
BRANCH  18  20
ATOM     20  C   UNL d   1      14.209  16.081  -5.261  0.00  0.00     0.185 C 
BRANCH  20  21
ATOM     21  O   UNL d   1      14.678  16.694  -5.540  0.00  0.00    -0.300 OA
BRANCH  21  22
ATOM     22  C   UNL d   1      14.337  17.434  -5.681  0.00  0.00     0.100 A 
ATOM     23  C   UNL d   1      13.730  17.540  -6.223  0.00  0.00     0.025 A 
ATOM     24  C   UNL d   1      13.370  18.257  -6.387  0.00  0.00     0.002 A 
ATOM     25  C   UNL d   1      13.663  18.914  -5.953  0.00  0.00     0.000 A 
ATOM     26  C   UNL d   1      14.270  18.820  -5.407  0.00  0.00     0.002 A 
ATOM     27  C   UNL d   1      14.614  18.086  -5.262  0.00  0.00     0.025 A 
ENDBRANCH  21  22
ENDBRANCH  20  21
ENDBRANCH  18  20
ENDBRANCH   2  17
TORSDOF 8
ENDMDL
MODEL 3
REMARK VINA RESULT:      48.7      0.841      1.096
REMARK  8 active torsions:
REMARK  status: ('A' for Active; 'I' for Inactive)
REMARK    1  A    between atoms: N_6  and  C_1 
REMARK    2  A    between atoms: N_7  and  C_2 
REMARK       I    between atoms: C_8  and  N_6 
REMARK       I    between atoms: C_9  and  N_7 
REMARK    3  A    between atoms: C_14  and  C_8 
REMARK    4  A    between atoms: C_15  and  C_9 
REMARK    5  A    between atoms: O_12  and  C_14 
REMARK    6  A    between atoms: C_16  and  O_12 
REMARK    7  A    between atoms: O_13  and  C_15 
REMARK    8  A    between atoms: C_17  and  O_13 
ROOT
ATOM      1  C   UNL d   1      13.593  14.681  -4.287  0.00  0.00     0.232 A 
ATOM      2  C   UNL d   1      13.510  13.973  -3.871  0.00  0.00     0.232 A 
ATOM      3  N   UNL d   1      13.924  15.232  -3.756  0.00  0.00    -0.081 NA
ATOM      4  N   UNL d   1      13.778  14.082  -3.113  0.00  0.00    -0.081 NA
ATOM      5  O   UNL d   1      14.031  14.838  -3.029  0.00  0.00    -0.103 OA
ENDROOT
BRANCH   1   6
ATOM      6  N   UNL d   1      13.360  14.721  -5.078  0.00  0.00    -0.182 NA
ATOM      7  C   UNL d   1      13.524  15.405  -5.521  0.00  0.00     0.306 C 
ATOM      8  O   UNL d   1      13.298  15.463  -6.313  0.00  0.00    -0.263 OA
BRANCH   7   9
ATOM      9  C   UNL d   1      13.924  16.042  -5.159  0.00  0.00     0.185 C 
BRANCH   9  10
ATOM     10  O   UNL d   1      14.472  16.484  -5.597  0.00  0.00    -0.300 OA
BRANCH  10  11
ATOM     11  C   UNL d   1      14.426  17.306  -5.611  0.00  0.00     0.100 A 
ATOM     12  C   UNL d   1      14.174  17.682  -6.305  0.00  0.00     0.025 A 
ATOM     13  C   UNL d   1      14.127  18.505  -6.322  0.00  0.00     0.002 A 
ATOM     14  C   UNL d   1      14.326  18.951  -5.664  0.00  0.00     0.000 A 
ATOM     15  C   UNL d   1      14.579  18.575  -4.967  0.00  0.00     0.002 A 
ATOM     16  C   UNL d   1      14.628  17.743  -4.943  0.00  0.00     0.025 A 
ENDBRANCH  10  11
ENDBRANCH   9  10
ENDBRANCH   7   9
ENDBRANCH   1   6
BRANCH   2  17
ATOM     17  N   UNL d   1      13.196  13.257  -4.191  0.00  0.00    -0.182 NA
ATOM     18  C   UNL d   1      13.241  12.549  -3.767  0.00  0.00     0.306 C 
ATOM     19  O   UNL d   1      12.934  11.865  -4.087  0.00  0.00    -0.263 OA
BRANCH  18  20
ATOM     20  C   UNL d   1      13.605  12.544  -3.008  0.00  0.00     0.185 C 
BRANCH  20  21
ATOM     21  O   UNL d   1      13.847  11.840  -2.662  0.00  0.00    -0.300 OA
BRANCH  21  22
ATOM     22  C   UNL d   1      14.002  11.820  -1.851  0.00  0.00     0.100 A 
ATOM     23  C   UNL d   1      13.402  11.815  -1.290  0.00  0.00     0.025 A 
ATOM     24  C   UNL d   1      13.520  11.795  -0.481  0.00  0.00     0.002 A 
ATOM     25  C   UNL d   1      14.323  11.779  -0.234  0.00  0.00     0.000 A 
ATOM     26  C   UNL d   1      14.933  11.784  -0.786  0.00  0.00     0.002 A 
ATOM     27  C   UNL d   1      14.785  11.804  -1.596  0.00  0.00     0.025 A 
ENDBRANCH  21  22
ENDBRANCH  20  21
ENDBRANCH  18  20
ENDBRANCH   2  17
TORSDOF 8
ENDMDL
