MODEL 1
REMARK VINA RESULT:      -2.3      0.000      0.000
REMARK  4 active torsions:
REMARK  status: ('A' for Active; 'I' for Inactive)
REMARK    1  A    between atoms: C_10  and  C_1 
REMARK    2  A    between atoms: N_7  and  C_4 
REMARK    3  A    between atoms: N_16  and  C_9 
REMARK    4  A    between atoms: C_15  and  C_10 
ROOT
ATOM      1  C   UNL d   1      59.276  -0.523  29.617  0.00  0.00     0.143 A 
ATOM      2  C   UNL d   1      58.880  -1.251  29.583  0.00  0.00     0.086 A 
ATOM      3  C   UNL d   1      58.936   0.115  30.014  0.00  0.00     0.025 A 
ATOM      4  C   UNL d   1      58.142  -1.331  29.950  0.00  0.00     0.019 A 
ATOM      5  C   UNL d   1      58.202   0.024  30.375  0.00  0.00     0.002 A 
ATOM      6  C   UNL d   1      57.806  -0.704  30.341  0.00  0.00     0.002 A 
ENDROOT
BRANCH   5   7
ATOM      7  C   UNL d   1      57.863   0.662  30.771  0.00  0.00     0.010 C 
BRANCH   7   8
ATOM      8  C   UNL d   1      57.568   0.545  31.546  0.00  0.00     0.116 A 
ATOM      9  C   UNL d   1      56.766   0.422  31.642  0.00  0.00     0.288 A 
ATOM     10  N   UNL d   1      56.468   0.306  32.402  0.00  0.00    -0.152 NA
ATOM     11  O   UNL d   1      56.264   0.412  30.994  0.00  0.00    -0.265 OA
ATOM     12  C   UNL d   1      56.975   0.316  33.055  0.00  0.00     0.374 A 
ATOM     13  N   UNL d   1      57.774   0.441  32.943  0.00  0.00    -0.152 NA
ATOM     14  O   UNL d   1      56.683   0.201  33.821  0.00  0.00    -0.242 OA
ATOM     15  C   UNL d   1      58.075   0.555  32.199  0.00  0.00     0.288 A 
ATOM     16  O   UNL d   1      58.894   0.682  32.101  0.00  0.00    -0.265 OA
ENDBRANCH   7   8
ENDBRANCH   5   7
BRANCH   1  17
ATOM     17  N   UNL d   1      60.004  -0.438  29.257  0.00  0.00    -0.112 N 
ATOM     18  O   UNL d   1      60.035  -0.272  28.455  0.00  0.00    -0.532 OA
ATOM     19  O   UNL d   1      60.677  -0.521  29.708  0.00  0.00    -0.532 OA
ENDBRANCH   1  17
BRANCH   2  20
ATOM     20  N   UNL d   1      59.220  -1.881  29.189  0.00  0.00    -0.300 N 
ATOM     21  C   UNL d   1      59.896  -2.246  29.501  0.00  0.00     0.100 C 
ATOM     22  C   UNL d   1      58.888  -2.135  28.500  0.00  0.00     0.100 C 
ENDBRANCH   2  20
TORSDOF 4
ENDMDL
MODEL 2
REMARK VINA RESULT:      -2.2      1.390      1.970
REMARK  4 active torsions:
REMARK  status: ('A' for Active; 'I' for Inactive)
REMARK    1  A    between atoms: C_10  and  C_1 
REMARK    2  A    between atoms: N_7  and  C_4 
REMARK    3  A    between atoms: N_16  and  C_9 
REMARK    4  A    between atoms: C_15  and  C_10 
ROOT
ATOM      1  C   UNL d   1      58.129  -0.731  30.284  0.00  0.00     0.143 A 
ATOM      2  C   UNL d   1      58.025   0.067  30.085  0.00  0.00     0.086 A 
ATOM      3  C   UNL d   1      57.896  -1.007  31.026  0.00  0.00     0.025 A 
ATOM      4  C   UNL d   1      57.686   0.583  30.637  0.00  0.00     0.019 A 
ATOM      5  C   UNL d   1      57.559  -0.485  31.566  0.00  0.00     0.002 A 
ATOM      6  C   UNL d   1      57.455   0.313  31.367  0.00  0.00     0.002 A 
ENDROOT
BRANCH   5   7
ATOM      7  C   UNL d   1      57.326  -0.763  32.306  0.00  0.00     0.010 C 
BRANCH   7   8
ATOM      8  C   UNL d   1      56.680  -0.395  32.689  0.00  0.00     0.116 A 
ATOM      9  C   UNL d   1      55.947  -0.753  32.646  0.00  0.00     0.288 A 
ATOM     10  N   UNL d   1      55.305  -0.397  33.021  0.00  0.00    -0.152 NA
ATOM     11  O   UNL d   1      55.849  -1.456  32.236  0.00  0.00    -0.265 OA
ATOM     12  C   UNL d   1      55.404   0.313  33.434  0.00  0.00     0.374 A 
ATOM     13  N   UNL d   1      56.144   0.659  33.468  0.00  0.00    -0.152 NA
ATOM     14  O   UNL d   1      54.765   0.677  33.814  0.00  0.00    -0.242 OA
ATOM     15  C   UNL d   1      56.779   0.315  33.102  0.00  0.00     0.288 A 
ATOM     16  O   UNL d   1      57.528   0.680  33.146  0.00  0.00    -0.265 OA
ENDBRANCH   7   8
ENDBRANCH   5   7
BRANCH   1  17
ATOM     17  N   UNL d   1      58.463  -1.244  29.745  0.00  0.00    -0.112 N 
ATOM     18  O   UNL d   1      58.010  -1.858  29.444  0.00  0.00    -0.532 OA
ATOM     19  O   UNL d   1      59.238  -1.130  29.522  0.00  0.00    -0.532 OA
ENDBRANCH   1  17
BRANCH   2  20
ATOM     20  N   UNL d   1      58.258   0.337  29.351  0.00  0.00    -0.300 N 
ATOM     21  C   UNL d   1      59.060   0.478  29.197  0.00  0.00     0.100 C 
ATOM     22  C   UNL d   1      57.697   0.462  28.785  0.00  0.00     0.100 C 
ENDBRANCH   2  20
TORSDOF 4
ENDMDL
MODEL 3
REMARK VINA RESULT:      -2.2      1.625      2.659
REMARK  4 active torsions:
REMARK  status: ('A' for Active; 'I' for Inactive)
REMARK    1  A    between atoms: C_10  and  C_1 
REMARK    2  A    between atoms: N_7  and  C_4 
REMARK    3  A    between atoms: N_16  and  C_9 
REMARK    4  A    between atoms: C_15  and  C_10 
ROOT
ATOM      1  C   UNL d   1      59.585  -2.253  29.143  0.00  0.00     0.143 A 
ATOM      2  C   UNL d   1      60.408  -2.350  29.137  0.00  0.00     0.086 A 
ATOM      3  C   UNL d   1      59.256  -1.496  29.129  0.00  0.00     0.025 A 
ATOM      4  C   UNL d   1      60.896  -1.682  29.115  0.00  0.00     0.019 A 
ATOM      5  C   UNL d   1      59.751  -0.839  29.108  0.00  0.00     0.002 A 
ATOM      6  C   UNL d   1      60.574  -0.936  29.101  0.00  0.00     0.002 A 
ENDROOT
BRANCH   5   7
ATOM      7  C   UNL d   1      59.422  -0.084  29.093  0.00  0.00     0.010 C 
BRANCH   7   8
ATOM      8  C   UNL d   1      58.833   0.109  29.655  0.00  0.00     0.116 A 
ATOM      9  C   UNL d   1      59.066   0.291  30.417  0.00  0.00     0.288 A 
ATOM     10  N   UNL d   1      58.491   0.483  30.975  0.00  0.00    -0.152 NA
ATOM     11  O   UNL d   1      59.858   0.284  30.624  0.00  0.00    -0.265 OA
ATOM     12  C   UNL d   1      57.691   0.490  30.766  0.00  0.00     0.374 A 
ATOM     13  N   UNL d   1      57.474   0.306  30.000  0.00  0.00    -0.152 NA
ATOM     14  O   UNL d   1      57.108   0.682  31.321  0.00  0.00    -0.242 OA
ATOM     15  C   UNL d   1      58.032   0.117  29.446  0.00  0.00     0.288 A 
ATOM     16  O   UNL d   1      57.795  -0.069  28.668  0.00  0.00    -0.265 OA
ENDBRANCH   7   8
ENDBRANCH   5   7
BRANCH   1  17
ATOM     17  N   UNL d   1      59.098  -2.908  29.164  0.00  0.00    -0.112 N 
ATOM     18  O   UNL d   1      58.817  -3.220  28.459  0.00  0.00    -0.532 OA
ATOM     19  O   UNL d   1      58.906  -3.232  29.886  0.00  0.00    -0.532 OA
ENDBRANCH   1  17
BRANCH   2  20
ATOM     20  N   UNL d   1      60.729  -3.100  29.151  0.00  0.00    -0.300 N 
ATOM     21  C   UNL d   1      60.760  -3.550  28.455  0.00  0.00     0.100 C 
ATOM     22  C   UNL d   1      61.013  -3.390  29.848  0.00  0.00     0.100 C 
ENDBRANCH   2  20
TORSDOF 4
ENDMDL
