MODEL 1
REMARK VINA RESULT:      19.7      0.000      0.000
REMARK  4 active torsions:
REMARK  status: ('A' for Active; 'I' for Inactive)
REMARK    1  A    between atoms: C_2  and  C_1 
REMARK    2  A    between atoms: C_11  and  N_5 
REMARK    3  A    between atoms: C_14  and  C_11 
REMARK    4  A    between atoms: C_17  and  C_14 
ROOT
ATOM      1  C   UNL d   1      45.955 -17.340  43.863  0.00  0.00     0.112 A 
ATOM      2  C   UNL d   1      46.126 -16.551  43.745  0.00  0.00     0.176 A 
ATOM      3  N   UNL d   1      45.886 -16.135  44.425  0.00  0.00    -0.285 N 
ATOM      4  C   UNL d   1      45.611 -17.422  44.606  0.00  0.00     0.219 A 
ATOM      5  C   UNL d   1      45.573 -16.674  44.945  0.00  0.00     0.124 A 
ATOM      6  O   UNL d   1      45.351 -18.120  44.955  0.00  0.00    -0.285 OA
ATOM      7  N   UNL d   1      46.478 -16.214  43.068  0.00  0.00    -0.128 N 
ENDROOT
BRANCH   1   8
ATOM      8  C   UNL d   1      46.115 -17.931  43.303  0.00  0.00     0.169 A 
ATOM      9  N   UNL d   1      46.238 -17.898  42.491  0.00  0.00    -0.225 NA
ATOM     10  C   UNL d   1      46.375 -18.666  42.225  0.00  0.00     0.101 A 
ATOM     11  C   UNL d   1      46.529 -18.970  41.477  0.00  0.00     0.021 A 
ATOM     12  C   UNL d   1      46.336 -19.172  42.877  0.00  0.00     0.101 A 
ATOM     13  C   UNL d   1      46.646 -19.782  41.376  0.00  0.00     0.002 A 
ATOM     14  C   UNL d   1      46.607 -20.288  42.028  0.00  0.00     0.002 A 
ATOM     15  C   UNL d   1      46.451 -19.981  42.780  0.00  0.00     0.021 A 
ATOM     16  N   UNL d   1      46.175 -18.712  43.541  0.00  0.00    -0.225 NA
ENDBRANCH   1   8
BRANCH   3  17
ATOM     17  C   UNL d   1      45.953 -15.321  44.549  0.00  0.00     0.082 C 
BRANCH  17  18
ATOM     18  C   UNL d   1      45.284 -14.870  44.719  0.00  0.00     0.019 C 
BRANCH  18  19
ATOM     19  C   UNL d   1      45.281 -14.060  44.577  0.00  0.00     0.002 C 
ATOM     20  C   UNL d   1      45.879 -13.581  44.885  0.00  0.00     0.000 C 
ATOM     21  C   UNL d   1      44.676 -13.723  44.124  0.00  0.00     0.000 C 
ENDBRANCH  18  19
ENDBRANCH  17  18
ENDBRANCH   3  17
TORSDOF 4
ENDMDL
