MODEL 1
REMARK VINA RESULT:      62.4      0.000      0.000
REMARK  6 active torsions:
REMARK  status: ('A' for Active; 'I' for Inactive)
REMARK    1  A    between atoms: N_3  and  C_1 
REMARK    2  A    between atoms: C_5  and  C_2 
REMARK    3  A    between atoms: C_7  and  C_5 
REMARK    4  A    between atoms: C_8  and  C_5 
REMARK    5  A    between atoms: O_15  and  C_7 
REMARK    6  A    between atoms: C_19  and  O_15 
ROOT
ATOM      1  C   UNL d   1      45.846 -18.242  42.543  0.00  0.00     0.166 A 
ATOM      2  C   UNL d   1      45.888 -17.693  43.158  0.00  0.00     0.122 A 
ATOM      3  N   UNL d   1      46.014 -19.042  42.684  0.00  0.00    -0.225 NA
ATOM      4  N   UNL d   1      46.100 -17.946  43.916  0.00  0.00    -0.241 NA
ATOM      5  C   UNL d   1      46.226 -19.287  43.445  0.00  0.00     0.101 A 
ATOM      6  C   UNL d   1      46.268 -18.741  44.057  0.00  0.00     0.099 A 
ATOM      7  C   UNL d   1      46.392 -20.075  43.581  0.00  0.00     0.021 A 
ATOM      8  C   UNL d   1      46.479 -18.989  44.815  0.00  0.00     0.021 A 
ATOM      9  C   UNL d   1      46.646 -19.780  44.954  0.00  0.00     0.002 A 
ATOM     10  C   UNL d   1      46.604 -20.329  44.339  0.00  0.00     0.002 A 
ENDROOT
BRANCH   2  11
ATOM     11  C   UNL d   1      45.719 -16.893  43.017  0.00  0.00     0.105 C 
BRANCH  11  12
ATOM     12  C   UNL d   1      45.438 -16.416  43.629  0.00  0.00     0.303 C 
ATOM     13  O   UNL d   1      45.334 -16.734  44.381  0.00  0.00    -0.259 OA
BRANCH  12  14
ATOM     14  O   UNL d   1      45.262 -15.627  43.489  0.00  0.00    -0.273 OA
BRANCH  14  15
ATOM     15  C   UNL d   1      45.173 -14.860  43.768  0.00  0.00     0.103 A 
ATOM     16  C   UNL d   1      45.845 -14.408  43.928  0.00  0.00     0.025 A 
ATOM     17  C   UNL d   1      45.759 -13.638  44.208  0.00  0.00     0.002 A 
ATOM     18  C   UNL d   1      45.013 -13.328  44.326  0.00  0.00     0.000 A 
ATOM     19  C   UNL d   1      44.348 -13.776  44.169  0.00  0.00     0.002 A 
ATOM     20  C   UNL d   1      44.427 -14.551  43.886  0.00  0.00     0.025 A 
ENDBRANCH  14  15
ENDBRANCH  12  14
ENDBRANCH  11  12
BRANCH  11  21
ATOM     21  C   UNL d   1      45.831 -16.566  42.262  0.00  0.00     0.129 C 
ATOM     22  N   UNL d   1      46.645 -16.153  41.992  0.00  0.00    -0.146 N 
ENDBRANCH  11  21
ENDBRANCH   2  11
BRANCH   1  23
ATOM     23  N   UNL d   1      45.634 -17.996  41.782  0.00  0.00    -0.284 N 
ATOM     24  C   UNL d   1      46.214 -17.924  41.193  0.00  0.00     0.106 A 
ATOM     25  C   UNL d   1      45.997 -17.679  40.438  0.00  0.00     0.118 A 
ATOM     26  C   UNL d   1      46.579 -17.608  39.851  0.00  0.00     0.028 C 
ATOM     27  O   UNL d   1      45.212 -17.503  40.259  0.00  0.00    -0.304 OA
ATOM     28  C   UNL d   1      44.632 -17.575  40.848  0.00  0.00     0.118 A 
ATOM     29  C   UNL d   1      44.838 -17.822  41.616  0.00  0.00     0.106 A 
ATOM     30  C   UNL d   1      43.836 -17.402  40.682  0.00  0.00     0.028 C 
ENDBRANCH   1  23
TORSDOF 6
ENDMDL
