MODEL 1
REMARK VINA RESULT:      27.7      0.000      0.000
REMARK  6 active torsions:
REMARK  status: ('A' for Active; 'I' for Inactive)
REMARK    1  A    between atoms: C_3  and  S_1 
REMARK    2  A    between atoms: N_12  and  S_1 
REMARK    3  A    between atoms: C_6  and  C_16 
REMARK    4  A    between atoms: C_17  and  N_12 
REMARK    5  A    between atoms: O_18  and  C_13 
REMARK    6  A    between atoms: C_16  and  C_17 
ROOT
ATOM      1  S   UNL d   1      15.067  13.596  -0.473  0.00  0.00     0.285 S 
ATOM      2  O   UNL d   1      15.754  13.514  -0.935  0.00  0.00    -0.198 OA
ATOM      3  O   UNL d   1      14.383  13.681  -0.014  0.00  0.00    -0.198 OA
ENDROOT
BRANCH   1   4
ATOM      4  C   UNL d   1      15.162  14.413  -0.482  0.00  0.00     0.105 A 
ATOM      5  C   UNL d   1      15.894  14.744  -0.309  0.00  0.00     0.015 A 
ATOM      6  C   UNL d   1      15.982  15.571  -0.320  0.00  0.00     0.023 A 
ATOM      7  C   UNL d   1      16.720  15.907  -0.146  0.00  0.00     0.002 C 
ATOM      8  C   UNL d   1      15.348  16.049  -0.501  0.00  0.00     0.094 A 
ATOM      9  C   UNL d   1      14.614  15.714  -0.674  0.00  0.00     0.025 A 
ATOM     10  C   UNL d   1      14.521  14.901  -0.665  0.00  0.00     0.015 A 
BRANCH   8  11
ATOM     11  O   UNL d   1      15.438  16.866  -0.511  0.00  0.00    -0.328 OA
ATOM     12  C   UNL d   1      15.657  17.249  -1.203  0.00  0.00     0.181 C 
ENDBRANCH   8  11
ENDBRANCH   1   4
BRANCH   1  13
ATOM     13  N   UNL d   1      14.978  12.776  -0.469  0.00  0.00    -0.157 NA
BRANCH  13  14
ATOM     14  C   UNL d   1      14.312  12.433  -0.847  0.00  0.00     0.114 C 
BRANCH  14  15
ATOM     15  C   UNL d   1      14.422  11.874  -1.437  0.00  0.00     0.041 C 
BRANCH  15  16
ATOM     16  C   UNL d   1      13.915  11.844  -2.089  0.00  0.00     0.090 A 
ATOM     17  N   UNL d   1      14.154  11.849  -2.881  0.00  0.00    -0.238 NA
ATOM     18  C   UNL d   1      13.470  11.811  -3.346  0.00  0.00     0.111 A 
ATOM     19  C   UNL d   1      13.441  11.803  -4.179  0.00  0.00     0.028 C 
ATOM     20  S   UNL d   1      12.814  11.784  -2.847  0.00  0.00    -0.066 SA
ATOM     21  C   UNL d   1      13.091  11.804  -2.064  0.00  0.00     0.056 A 
ENDBRANCH  15  16
ENDBRANCH  14  15
ENDBRANCH  13  14
ENDBRANCH   1  13
TORSDOF 6
ENDMDL
MODEL 2
REMARK VINA RESULT:      28.8      1.510      4.426
REMARK  6 active torsions:
REMARK  status: ('A' for Active; 'I' for Inactive)
REMARK    1  A    between atoms: C_3  and  S_1 
REMARK    2  A    between atoms: N_12  and  S_1 
REMARK    3  A    between atoms: C_6  and  C_16 
REMARK    4  A    between atoms: C_17  and  N_12 
REMARK    5  A    between atoms: O_18  and  C_13 
REMARK    6  A    between atoms: C_16  and  C_17 
ROOT
ATOM      1  S   UNL d   1      14.630  12.905  -1.026  0.00  0.00     0.285 S 
ATOM      2  O   UNL d   1      15.315  12.774  -1.480  0.00  0.00    -0.198 OA
ATOM      3  O   UNL d   1      13.947  13.034  -0.576  0.00  0.00    -0.198 OA
ENDROOT
BRANCH   1   4
ATOM      4  C   UNL d   1      14.169  12.626  -1.647  0.00  0.00     0.105 A 
ATOM      5  C   UNL d   1      14.285  12.914  -2.408  0.00  0.00     0.015 A 
ATOM      6  C   UNL d   1      13.814  12.628  -3.031  0.00  0.00     0.023 A 
ATOM      7  C   UNL d   1      13.930  12.917  -3.799  0.00  0.00     0.002 C 
ATOM      8  C   UNL d   1      13.242  12.067  -2.887  0.00  0.00     0.094 A 
ATOM      9  C   UNL d   1      13.126  11.779  -2.123  0.00  0.00     0.025 A 
ATOM     10  C   UNL d   1      13.587  12.057  -1.506  0.00  0.00     0.015 A 
BRANCH   8  11
ATOM     11  O   UNL d   1      12.778  11.785  -3.505  0.00  0.00    -0.328 OA
ATOM     12  C   UNL d   1      13.006  11.909  -4.283  0.00  0.00     0.181 C 
ENDBRANCH   8  11
ENDBRANCH   1   4
BRANCH   1  13
ATOM     13  N   UNL d   1      15.101  13.182  -0.408  0.00  0.00    -0.157 NA
BRANCH  13  14
ATOM     14  C   UNL d   1      15.478  13.929  -0.481  0.00  0.00     0.114 C 
BRANCH  14  15
ATOM     15  C   UNL d   1      15.226  14.559  -0.020  0.00  0.00     0.041 C 
BRANCH  15  16
ATOM     16  C   UNL d   1      15.450  15.332  -0.204  0.00  0.00     0.090 A 
ATOM     17  N   UNL d   1      14.968  15.896  -0.571  0.00  0.00    -0.238 NA
ATOM     18  C   UNL d   1      15.413  16.590  -0.649  0.00  0.00     0.111 A 
ATOM     19  C   UNL d   1      15.153  17.306  -0.987  0.00  0.00     0.028 C 
ATOM     20  S   UNL d   1      16.164  16.457  -0.334  0.00  0.00    -0.066 SA
ATOM     21  C   UNL d   1      16.186  15.674  -0.057  0.00  0.00     0.056 A 
ENDBRANCH  15  16
ENDBRANCH  14  15
ENDBRANCH  13  14
ENDBRANCH   1  13
TORSDOF 6
ENDMDL
MODEL 3
REMARK VINA RESULT:      29.0      2.481      3.925
REMARK  6 active torsions:
REMARK  status: ('A' for Active; 'I' for Inactive)
REMARK    1  A    between atoms: C_3  and  S_1 
REMARK    2  A    between atoms: N_12  and  S_1 
REMARK    3  A    between atoms: C_6  and  C_16 
REMARK    4  A    between atoms: C_17  and  N_12 
REMARK    5  A    between atoms: O_18  and  C_13 
REMARK    6  A    between atoms: C_16  and  C_17 
ROOT
ATOM      1  S   UNL d   1      13.214  12.542  -3.706  0.00  0.00     0.285 S 
ATOM      2  O   UNL d   1      13.638  12.204  -4.336  0.00  0.00    -0.198 OA
ATOM      3  O   UNL d   1      12.793  12.882  -3.078  0.00  0.00    -0.198 OA
ENDROOT
BRANCH   1   4
ATOM      4  C   UNL d   1      13.221  13.267  -4.094  0.00  0.00     0.105 A 
ATOM      5  C   UNL d   1      13.543  13.928  -3.727  0.00  0.00     0.015 A 
ATOM      6  C   UNL d   1      13.545  14.657  -4.126  0.00  0.00     0.023 A 
ATOM      7  C   UNL d   1      13.870  15.325  -3.758  0.00  0.00     0.002 C 
ATOM      8  C   UNL d   1      13.232  14.716  -4.875  0.00  0.00     0.094 A 
ATOM      9  C   UNL d   1      12.909  14.052  -5.242  0.00  0.00     0.025 A 
ATOM     10  C   UNL d   1      12.903  13.330  -4.854  0.00  0.00     0.015 A 
BRANCH   8  11
ATOM     11  O   UNL d   1      13.236  15.439  -5.268  0.00  0.00    -0.328 OA
ATOM     12  C   UNL d   1      13.803  15.595  -5.840  0.00  0.00     0.181 C 
ENDBRANCH   8  11
ENDBRANCH   1   4
BRANCH   1  13
ATOM     13  N   UNL d   1      13.212  11.812  -3.322  0.00  0.00    -0.157 NA
BRANCH  13  14
ATOM     14  C   UNL d   1      13.366  11.780  -2.497  0.00  0.00     0.114 C 
BRANCH  14  15
ATOM     15  C   UNL d   1      14.140  11.781  -2.228  0.00  0.00     0.041 C 
BRANCH  15  16
ATOM     16  C   UNL d   1      14.321  12.050  -1.468  0.00  0.00     0.090 A 
ATOM     17  N   UNL d   1      14.958  12.541  -1.274  0.00  0.00    -0.238 NA
ATOM     18  C   UNL d   1      14.931  12.672  -0.457  0.00  0.00     0.111 A 
ATOM     19  C   UNL d   1      15.464  13.134  -0.014  0.00  0.00     0.028 C 
ATOM     20  S   UNL d   1      14.282  12.266  -0.148  0.00  0.00    -0.066 SA
ATOM     21  C   UNL d   1      13.903  11.879  -0.778  0.00  0.00     0.056 A 
ENDBRANCH  15  16
ENDBRANCH  14  15
ENDBRANCH  13  14
ENDBRANCH   1  13
TORSDOF 6
ENDMDL
