MODEL 1
REMARK VINA RESULT:      46.8      0.000      0.000
REMARK  7 active torsions:
REMARK  status: ('A' for Active; 'I' for Inactive)
REMARK    1  A    between atoms: N_2  and  C_1 
REMARK    2  A    between atoms: C_5  and  C_1 
REMARK    3  A    between atoms: O_4  and  N_2 
REMARK    4  A    between atoms: C_3  and  O_4 
REMARK    5  A    between atoms: C_6  and  C_3 
REMARK    6  A    between atoms: C_17  and  C_14 
REMARK    7  A    between atoms: C_18  and  C_17 
ROOT
ATOM      1  C   UNL d   1      60.258  49.026  50.592  0.00  0.00     0.319 C 
ATOM      2  O   UNL d   1      60.688  49.698  50.368  0.00  0.00    -0.257 OA
ENDROOT
BRANCH   1   3
ATOM      3  O   UNL d   1      59.496  49.104  50.893  0.00  0.00    -0.168 OA
BRANCH   3   4
ATOM      4  N   UNL d   1      58.953  49.600  50.520  0.00  0.00    -0.100 NA
BRANCH   4   5
ATOM      5  C   UNL d   1      58.164  49.599  50.757  0.00  0.00     0.228 C 
ATOM      6  N   UNL d   1      57.974  49.705  51.550  0.00  0.00    -0.123 N 
BRANCH   5   7
ATOM      7  C   UNL d   1      57.566  49.492  50.199  0.00  0.00     0.121 A 
ATOM      8  N   UNL d   1      57.699  49.698  49.405  0.00  0.00    -0.241 NA
ATOM      9  C   UNL d   1      57.095  49.589  48.842  0.00  0.00     0.099 A 
ATOM     10  C   UNL d   1      56.363  49.276  49.078  0.00  0.00     0.021 A 
ATOM     11  C   UNL d   1      56.234  49.074  49.865  0.00  0.00     0.003 A 
ATOM     12  C   UNL d   1      56.833  49.181  50.423  0.00  0.00     0.022 A 
ENDBRANCH   5   7
ENDBRANCH   4   5
ENDBRANCH   3   4
ENDBRANCH   1   3
BRANCH   1  13
ATOM     13  C   UNL d   1      60.599  48.272  50.512  0.00  0.00     0.065 A 
ATOM     14  C   UNL d   1      60.521  47.727  51.126  0.00  0.00     0.005 A 
ATOM     15  C   UNL d   1      60.857  46.980  51.050  0.00  0.00     0.000 A 
ATOM     16  C   UNL d   1      61.273  46.777  50.361  0.00  0.00     0.000 A 
ATOM     17  C   UNL d   1      61.347  47.328  49.751  0.00  0.00     0.000 A 
ATOM     18  C   UNL d   1      61.006  48.081  49.831  0.00  0.00     0.005 A 
BRANCH  16  19
ATOM     19  C   UNL d   1      61.609  46.025  50.291  0.00  0.00     0.000 C 
BRANCH  19  20
ATOM     20  C   UNL d   1      61.563  45.618  49.574  0.00  0.00     0.000 C 
ATOM     21  C   UNL d   1      62.206  45.186  49.295  0.00  0.00     0.000 C 
ENDBRANCH  19  20
ENDBRANCH  16  19
ENDBRANCH   1  13
TORSDOF 7
ENDMDL
MODEL 2
REMARK VINA RESULT:      46.8      1.373      4.418
REMARK  7 active torsions:
REMARK  status: ('A' for Active; 'I' for Inactive)
REMARK    1  A    between atoms: N_2  and  C_1 
REMARK    2  A    between atoms: C_5  and  C_1 
REMARK    3  A    between atoms: O_4  and  N_2 
REMARK    4  A    between atoms: C_3  and  O_4 
REMARK    5  A    between atoms: C_6  and  C_3 
REMARK    6  A    between atoms: C_17  and  C_14 
REMARK    7  A    between atoms: C_18  and  C_17 
ROOT
ATOM      1  C   UNL d   1      59.625  49.683  51.902  0.00  0.00     0.319 C 
ATOM      2  O   UNL d   1      59.649  49.652  52.730  0.00  0.00    -0.257 OA
ENDROOT
BRANCH   1   3
ATOM      3  O   UNL d   1      60.325  49.706  51.469  0.00  0.00    -0.168 OA
BRANCH   3   4
ATOM      4  N   UNL d   1      60.789  49.029  51.396  0.00  0.00    -0.100 NA
BRANCH   4   5
ATOM      5  C   UNL d   1      61.147  48.850  50.676  0.00  0.00     0.228 C 
ATOM      6  N   UNL d   1      61.338  49.454  50.152  0.00  0.00    -0.123 N 
BRANCH   5   7
ATOM      7  C   UNL d   1      61.312  48.066  50.481  0.00  0.00     0.121 A 
ATOM      8  N   UNL d   1      60.904  47.450  50.862  0.00  0.00    -0.241 NA
ATOM      9  C   UNL d   1      61.071  46.658  50.665  0.00  0.00     0.099 A 
ATOM     10  C   UNL d   1      61.645  46.490  50.089  0.00  0.00     0.021 A 
ATOM     11  C   UNL d   1      62.047  47.101  49.713  0.00  0.00     0.003 A 
ATOM     12  C   UNL d   1      61.881  47.885  49.909  0.00  0.00     0.022 A 
ENDBRANCH   5   7
ENDBRANCH   4   5
ENDBRANCH   3   4
ENDBRANCH   1   3
BRANCH   1  13
ATOM     13  C   UNL d   1      58.892  49.689  51.510  0.00  0.00     0.065 A 
ATOM     14  C   UNL d   1      58.197  49.686  51.955  0.00  0.00     0.005 A 
ATOM     15  C   UNL d   1      57.470  49.692  51.570  0.00  0.00     0.000 A 
ATOM     16  C   UNL d   1      57.437  49.700  50.740  0.00  0.00     0.000 A 
ATOM     17  C   UNL d   1      58.136  49.703  50.302  0.00  0.00     0.000 A 
ATOM     18  C   UNL d   1      58.869  49.697  50.694  0.00  0.00     0.005 A 
BRANCH  16  19
ATOM     19  C   UNL d   1      56.703  49.706  50.360  0.00  0.00     0.000 C 
BRANCH  19  20
ATOM     20  C   UNL d   1      56.660  49.581  49.545  0.00  0.00     0.000 C 
ATOM     21  C   UNL d   1      56.285  48.914  49.242  0.00  0.00     0.000 C 
ENDBRANCH  19  20
ENDBRANCH  16  19
ENDBRANCH   1  13
TORSDOF 7
ENDMDL
