MODEL 1
REMARK VINA RESULT:      -3.9      0.000      0.000
REMARK  5 active torsions:
REMARK  status: ('A' for Active; 'I' for Inactive)
REMARK    1  A    between atoms: O_8  and  S_1 
REMARK    2  A    between atoms: C_9  and  S_1 
REMARK    3  A    between atoms: C_7  and  C_2 
REMARK    4  A    between atoms: C_20  and  C_7 
REMARK    5  A    between atoms: C_14  and  O_8 
ROOT
ATOM      1  C   UNL d   1      59.314  -1.506  28.945  0.00  0.00     0.139 A 
ATOM      2  C   UNL d   1      59.290  -0.388  29.671  0.00  0.00     0.064 A 
ATOM      3  C   UNL d   1      59.767  -0.863  29.194  0.00  0.00     0.220 A 
ATOM      4  C   UNL d   1      58.542  -0.740  29.718  0.00  0.00     0.105 A 
ATOM      5  O   UNL d   1      58.559  -1.430  29.268  0.00  0.00    -0.304 OA
ATOM      6  C   UNL d   1      57.944  -0.378  30.168  0.00  0.00     0.050 A 
ATOM      7  C   UNL d   1      59.441   0.325  30.075  0.00  0.00     0.007 A 
ATOM      8  C   UNL d   1      58.094   0.325  30.565  0.00  0.00     0.116 A 
ATOM      9  O   UNL d   1      60.554  -0.717  29.001  0.00  0.00    -0.284 OA
ATOM     10  C   UNL d   1      58.842   0.677  30.519  0.00  0.00     0.026 A 
ENDROOT
BRANCH   8  11
ATOM     11  O   UNL d   1      57.504   0.682  31.009  0.00  0.00    -0.227 OA
BRANCH  11  12
ATOM     12  S   UNL d   1      57.068   0.250  31.548  0.00  0.00     0.304 S 
ATOM     13  O   UNL d   1      57.697   0.263  32.073  0.00  0.00    -0.193 OA
ATOM     14  O   UNL d   1      56.439   0.237  31.023  0.00  0.00    -0.193 OA
BRANCH  12  15
ATOM     15  C   UNL d   1      56.627  -0.186  32.091  0.00  0.00     0.111 A 
ATOM     16  C   UNL d   1      56.253   0.194  32.719  0.00  0.00     0.013 A 
ATOM     17  C   UNL d   1      55.810  -0.243  33.267  0.00  0.00     0.001 A 
ATOM     18  C   UNL d   1      55.747  -1.059  33.177  0.00  0.00     0.000 A 
ATOM     19  C   UNL d   1      56.122  -1.443  32.547  0.00  0.00     0.001 A 
ATOM     20  C   UNL d   1      55.307  -1.495  33.719  0.00  0.00     0.000 C 
ATOM     21  C   UNL d   1      56.559  -1.007  32.008  0.00  0.00     0.013 A 
ENDBRANCH  12  15
ENDBRANCH  11  12
ENDBRANCH   8  11
BRANCH   1  22
ATOM     22  C   UNL d   1      59.573  -2.121  28.455  0.00  0.00     0.029 C 
BRANCH  22  23
ATOM     23  C   UNL d   1      59.504  -2.897  28.707  0.00  0.00     0.021 A 
ATOM     24  C   UNL d   1      58.754  -3.242  28.772  0.00  0.00     0.099 A 
ATOM     25  N   UNL d   1      58.676  -4.023  29.025  0.00  0.00    -0.242 NA
ATOM     26  C   UNL d   1      59.351  -4.457  29.213  0.00  0.00     0.099 A 
ATOM     27  C   UNL d   1      60.101  -4.112  29.148  0.00  0.00     0.021 A 
ATOM     28  C   UNL d   1      60.170  -3.336  28.896  0.00  0.00     0.003 A 
ENDBRANCH  22  23
ENDBRANCH   1  22
TORSDOF 5
ENDMDL
MODEL 2
REMARK VINA RESULT:      -2.5      1.910      5.074
REMARK  5 active torsions:
REMARK  status: ('A' for Active; 'I' for Inactive)
REMARK    1  A    between atoms: O_8  and  S_1 
REMARK    2  A    between atoms: C_9  and  S_1 
REMARK    3  A    between atoms: C_7  and  C_2 
REMARK    4  A    between atoms: C_20  and  C_7 
REMARK    5  A    between atoms: C_14  and  O_8 
ROOT
ATOM      1  C   UNL d   1      57.421   0.665  33.032  0.00  0.00     0.139 A 
ATOM      2  C   UNL d   1      58.653   0.675  32.523  0.00  0.00     0.064 A 
ATOM      3  C   UNL d   1      58.222   0.673  33.227  0.00  0.00     0.220 A 
ATOM      4  C   UNL d   1      58.116   0.668  31.893  0.00  0.00     0.105 A 
ATOM      5  O   UNL d   1      57.356   0.662  32.210  0.00  0.00    -0.304 OA
ATOM      6  C   UNL d   1      58.398   0.668  31.111  0.00  0.00     0.050 A 
ATOM      7  C   UNL d   1      59.472   0.682  32.372  0.00  0.00     0.007 A 
ATOM      8  C   UNL d   1      59.206   0.675  30.964  0.00  0.00     0.116 A 
ATOM      9  O   UNL d   1      58.539   0.678  33.987  0.00  0.00    -0.284 OA
ATOM     10  C   UNL d   1      59.743   0.682  31.594  0.00  0.00     0.026 A 
ENDROOT
BRANCH   8  11
ATOM     11  O   UNL d   1      59.484   0.675  30.192  0.00  0.00    -0.227 OA
BRANCH  11  12
ATOM     12  S   UNL d   1      59.761  -0.012  29.847  0.00  0.00     0.304 S 
ATOM     13  O   UNL d   1      60.500   0.330  29.750  0.00  0.00    -0.193 OA
ATOM     14  O   UNL d   1      59.023  -0.353  29.945  0.00  0.00    -0.193 OA
BRANCH  12  15
ATOM     15  C   UNL d   1      60.039  -0.705  29.500  0.00  0.00     0.111 A 
ATOM     16  C   UNL d   1      60.787  -0.993  29.692  0.00  0.00     0.013 A 
ATOM     17  C   UNL d   1      61.068  -1.690  29.344  0.00  0.00     0.001 A 
ATOM     18  C   UNL d   1      60.594  -2.091  28.803  0.00  0.00     0.000 A 
ATOM     19  C   UNL d   1      59.843  -1.805  28.607  0.00  0.00     0.001 A 
ATOM     20  C   UNL d   1      60.872  -2.784  28.456  0.00  0.00     0.000 C 
ATOM     21  C   UNL d   1      59.569  -1.115  28.955  0.00  0.00     0.013 A 
ENDBRANCH  12  15
ENDBRANCH  11  12
ENDBRANCH   8  11
BRANCH   1  22
ATOM     22  C   UNL d   1      56.790   0.661  33.569  0.00  0.00     0.029 C 
BRANCH  22  23
ATOM     23  C   UNL d   1      56.146   0.174  33.436  0.00  0.00     0.021 A 
ATOM     24  C   UNL d   1      55.380   0.484  33.483  0.00  0.00     0.099 A 
ATOM     25  N   UNL d   1      54.726  -0.001  33.350  0.00  0.00    -0.242 NA
ATOM     26  C   UNL d   1      54.842  -0.797  33.169  0.00  0.00     0.099 A 
ATOM     27  C   UNL d   1      55.609  -1.107  33.121  0.00  0.00     0.021 A 
ATOM     28  C   UNL d   1      56.253  -0.619  33.255  0.00  0.00     0.003 A 
ENDBRANCH  22  23
ENDBRANCH   1  22
TORSDOF 5
ENDMDL
MODEL 3
REMARK VINA RESULT:      -1.1      1.528      2.317
REMARK  5 active torsions:
REMARK  status: ('A' for Active; 'I' for Inactive)
REMARK    1  A    between atoms: O_8  and  S_1 
REMARK    2  A    between atoms: C_9  and  S_1 
REMARK    3  A    between atoms: C_7  and  C_2 
REMARK    4  A    between atoms: C_20  and  C_7 
REMARK    5  A    between atoms: C_14  and  O_8 
ROOT
ATOM      1  C   UNL d   1      57.741  -0.925  29.750  0.00  0.00     0.139 A 
ATOM      2  C   UNL d   1      57.357  -0.056  30.686  0.00  0.00     0.064 A 
ATOM      3  C   UNL d   1      57.519  -0.142  29.881  0.00  0.00     0.220 A 
ATOM      4  C   UNL d   1      57.480  -0.789  31.052  0.00  0.00     0.105 A 
ATOM      5  O   UNL d   1      57.716  -1.324  30.472  0.00  0.00    -0.304 OA
ATOM      6  C   UNL d   1      57.357  -0.866  31.870  0.00  0.00     0.050 A 
ATOM      7  C   UNL d   1      57.112   0.599  31.138  0.00  0.00     0.007 A 
ATOM      8  C   UNL d   1      57.116  -0.218  32.315  0.00  0.00     0.116 A 
ATOM      9  O   UNL d   1      57.467   0.452  29.313  0.00  0.00    -0.284 OA
ATOM     10  C   UNL d   1      56.993   0.514  31.949  0.00  0.00     0.026 A 
ENDROOT
BRANCH   8  11
ATOM     11  O   UNL d   1      56.995  -0.295  33.122  0.00  0.00    -0.227 OA
BRANCH  11  12
ATOM     12  S   UNL d   1      56.275  -0.102  33.457  0.00  0.00     0.304 S 
ATOM     13  O   UNL d   1      56.380   0.682  33.240  0.00  0.00    -0.193 OA
ATOM     14  O   UNL d   1      56.171  -0.885  33.675  0.00  0.00    -0.193 OA
BRANCH  12  15
ATOM     15  C   UNL d   1      55.550   0.092  33.796  0.00  0.00     0.111 A 
ATOM     16  C   UNL d   1      55.494   0.228  34.606  0.00  0.00     0.013 A 
ATOM     17  C   UNL d   1      54.765   0.424  34.948  0.00  0.00     0.001 A 
ATOM     18  C   UNL d   1      54.097   0.480  34.470  0.00  0.00     0.000 A 
ATOM     19  C   UNL d   1      54.149   0.344  33.656  0.00  0.00     0.001 A 
ATOM     20  C   UNL d   1      53.371   0.674  34.807  0.00  0.00     0.000 C 
ATOM     21  C   UNL d   1      54.873   0.151  33.322  0.00  0.00     0.013 A 
ENDBRANCH  12  15
ENDBRANCH  11  12
ENDBRANCH   8  11
BRANCH   1  22
ATOM     22  C   UNL d   1      57.951  -1.255  29.020  0.00  0.00     0.029 C 
BRANCH  22  23
ATOM     23  C   UNL d   1      58.722  -1.498  28.892  0.00  0.00     0.021 A 
ATOM     24  C   UNL d   1      59.305  -0.938  28.711  0.00  0.00     0.099 A 
ATOM     25  N   UNL d   1      60.083  -1.175  28.580  0.00  0.00    -0.242 NA
ATOM     26  C   UNL d   1      60.277  -1.975  28.631  0.00  0.00     0.099 A 
ATOM     27  C   UNL d   1      59.695  -2.535  28.812  0.00  0.00     0.021 A 
ATOM     28  C   UNL d   1      58.923  -2.291  28.941  0.00  0.00     0.003 A 
ENDBRANCH  22  23
ENDBRANCH   1  22
TORSDOF 5
ENDMDL
