MODEL 1
REMARK VINA RESULT:      -2.2      0.000      0.000
REMARK  4 active torsions:
REMARK  status: ('A' for Active; 'I' for Inactive)
REMARK    1  A    between atoms: C_6  and  C_1 
REMARK    2  A    between atoms: S_7  and  C_3 
REMARK    3  A    between atoms: C_17  and  S_7 
REMARK    4  A    between atoms: C_18  and  C_17 
ROOT
ATOM      1  C   UNL d   1      57.684  -0.127  30.706  0.00  0.00     0.087 A 
ATOM      2  N   UNL d   1      57.584  -0.372  29.933  0.00  0.00    -0.245 NA
ATOM      3  C   UNL d   1      58.386   0.304  30.769  0.00  0.00     0.049 A 
ATOM      4  C   UNL d   1      58.730   0.329  30.030  0.00  0.00     0.025 A 
ATOM      5  C   UNL d   1      58.237  -0.088  29.512  0.00  0.00     0.082 A 
ATOM      6  C   UNL d   1      59.429   0.680  29.770  0.00  0.00     0.002 A 
ATOM      7  C   UNL d   1      58.430  -0.163  28.727  0.00  0.00     0.019 A 
ATOM      8  C   UNL d   1      59.629   0.605  28.971  0.00  0.00     0.000 A 
ATOM      9  C   UNL d   1      59.130   0.188  28.461  0.00  0.00     0.002 A 
ENDROOT
BRANCH   1  10
ATOM     10  C   UNL d   1      57.194  -0.262  31.346  0.00  0.00     0.018 A 
ATOM     11  C   UNL d   1      56.782   0.375  31.694  0.00  0.00     0.002 A 
ATOM     12  C   UNL d   1      56.291   0.252  32.332  0.00  0.00     0.011 A 
ATOM     13  C   UNL d   1      56.209  -0.511  32.626  0.00  0.00     0.058 A 
ATOM     14  C   UNL d   1      56.630  -1.147  32.266  0.00  0.00     0.011 A 
ATOM     15 CL   UNL d   1      55.715  -0.637  33.268  0.00  0.00    -0.082 Cl
ATOM     16  C   UNL d   1      57.114  -1.023  31.636  0.00  0.00     0.002 A 
ENDBRANCH   1  10
BRANCH   3  17
ATOM     17  S   UNL d   1      58.703   0.655  31.449  0.00  0.00    -0.083 SA
BRANCH  17  18
ATOM     18  C   UNL d   1      59.496   0.520  31.679  0.00  0.00     0.058 C 
BRANCH  18  19
ATOM     19  C   UNL d   1      59.759   0.682  32.445  0.00  0.00     0.129 C 
ATOM     20  N   UNL d   1      60.503   0.433  32.706  0.00  0.00    -0.146 N 
ENDBRANCH  18  19
ENDBRANCH  17  18
ENDBRANCH   3  17
TORSDOF 4
ENDMDL
MODEL 2
REMARK VINA RESULT:      -2.0      1.425      1.753
REMARK  4 active torsions:
REMARK  status: ('A' for Active; 'I' for Inactive)
REMARK    1  A    between atoms: C_6  and  C_1 
REMARK    2  A    between atoms: S_7  and  C_3 
REMARK    3  A    between atoms: C_17  and  S_7 
REMARK    4  A    between atoms: C_18  and  C_17 
ROOT
ATOM      1  C   UNL d   1      57.984  -0.975  30.278  0.00  0.00     0.087 A 
ATOM      2  N   UNL d   1      57.802  -1.691  29.927  0.00  0.00    -0.245 NA
ATOM      3  C   UNL d   1      58.712  -0.709  29.993  0.00  0.00     0.049 A 
ATOM      4  C   UNL d   1      58.990  -1.261  29.460  0.00  0.00     0.025 A 
ATOM      5  C   UNL d   1      58.428  -1.869  29.418  0.00  0.00     0.082 A 
ATOM      6  C   UNL d   1      59.681  -1.282  29.012  0.00  0.00     0.002 A 
ATOM      7  C   UNL d   1      58.545  -2.507  28.930  0.00  0.00     0.019 A 
ATOM      8  C   UNL d   1      59.803  -1.931  28.514  0.00  0.00     0.000 A 
ATOM      9  C   UNL d   1      59.237  -2.532  28.478  0.00  0.00     0.002 A 
ENDROOT
BRANCH   1  10
ATOM     10  C   UNL d   1      57.547  -0.555  30.826  0.00  0.00     0.018 A 
ATOM     11  C   UNL d   1      57.426  -0.872  31.588  0.00  0.00     0.002 A 
ATOM     12  C   UNL d   1      56.992  -0.462  32.142  0.00  0.00     0.011 A 
ATOM     13  C   UNL d   1      56.677   0.268  31.936  0.00  0.00     0.058 A 
ATOM     14  C   UNL d   1      56.806   0.578  31.163  0.00  0.00     0.011 A 
ATOM     15 CL   UNL d   1      56.240   0.682  32.493  0.00  0.00    -0.082 Cl
ATOM     16  C   UNL d   1      57.235   0.172  30.617  0.00  0.00     0.002 A 
ENDBRANCH   1  10
BRANCH   3  17
ATOM     17  S   UNL d   1      59.110  -0.011  30.197  0.00  0.00    -0.083 SA
BRANCH  17  18
ATOM     18  C   UNL d   1      59.945   0.035  30.183  0.00  0.00     0.058 C 
BRANCH  18  19
ATOM     19  C   UNL d   1      60.349   0.682  30.498  0.00  0.00     0.129 C 
ATOM     20  N   UNL d   1      61.063   0.588  30.904  0.00  0.00    -0.146 N 
ENDBRANCH  18  19
ENDBRANCH  17  18
ENDBRANCH   3  17
TORSDOF 4
ENDMDL
MODEL 3
REMARK VINA RESULT:      -1.6      1.569      3.399
REMARK  4 active torsions:
REMARK  status: ('A' for Active; 'I' for Inactive)
REMARK    1  A    between atoms: C_6  and  C_1 
REMARK    2  A    between atoms: S_7  and  C_3 
REMARK    3  A    between atoms: C_17  and  S_7 
REMARK    4  A    between atoms: C_18  and  C_17 
ROOT
ATOM      1  C   UNL d   1      57.272  -0.415  31.291  0.00  0.00     0.087 A 
ATOM      2  N   UNL d   1      56.591  -0.826  31.482  0.00  0.00    -0.245 NA
ATOM      3  C   UNL d   1      57.465   0.099  31.908  0.00  0.00     0.049 A 
ATOM      4  C   UNL d   1      56.902   0.010  32.492  0.00  0.00     0.025 A 
ATOM      5  C   UNL d   1      56.361  -0.561  32.231  0.00  0.00     0.082 A 
ATOM      6  C   UNL d   1      56.818   0.378  33.224  0.00  0.00     0.002 A 
ATOM      7  C   UNL d   1      55.729  -0.774  32.693  0.00  0.00     0.019 A 
ATOM      8  C   UNL d   1      56.175   0.163  33.698  0.00  0.00     0.000 A 
ATOM      9  C   UNL d   1      55.640  -0.407  33.429  0.00  0.00     0.002 A 
ENDROOT
BRANCH   1  10
ATOM     10  C   UNL d   1      57.722  -0.471  30.611  0.00  0.00     0.018 A 
ATOM     11  C   UNL d   1      58.148  -1.171  30.454  0.00  0.00     0.002 A 
ATOM     12  C   UNL d   1      58.599  -1.238  29.779  0.00  0.00     0.011 A 
ATOM     13  C   UNL d   1      58.626  -0.604  29.257  0.00  0.00     0.058 A 
ATOM     14  C   UNL d   1      58.191   0.098  29.427  0.00  0.00     0.011 A 
ATOM     15 CL   UNL d   1      59.080  -0.670  28.577  0.00  0.00    -0.082 Cl
ATOM     16  C   UNL d   1      57.747   0.162  30.093  0.00  0.00     0.002 A 
ENDBRANCH   1  10
BRANCH   3  17
ATOM     17  S   UNL d   1      58.108   0.619  31.951  0.00  0.00    -0.083 SA
BRANCH  17  18
ATOM     18  C   UNL d   1      58.657   0.582  32.581  0.00  0.00     0.058 C 
BRANCH  18  19
ATOM     19  C   UNL d   1      59.467   0.682  32.456  0.00  0.00     0.129 C 
ATOM     20  N   UNL d   1      60.005   0.669  33.086  0.00  0.00    -0.146 N 
ENDBRANCH  18  19
ENDBRANCH  17  18
ENDBRANCH   3  17
TORSDOF 4
ENDMDL
MODEL 4
REMARK VINA RESULT:      -1.4      9.482      9.989
REMARK  4 active torsions:
REMARK  status: ('A' for Active; 'I' for Inactive)
REMARK    1  A    between atoms: C_6  and  C_1 
REMARK    2  A    between atoms: S_7  and  C_3 
REMARK    3  A    between atoms: C_17  and  S_7 
REMARK    4  A    between atoms: C_18  and  C_17 
ROOT
ATOM      1  C   UNL d   1      60.032  -9.300  32.989  0.00  0.00     0.087 A 
ATOM      2  N   UNL d   1      60.740  -9.142  32.611  0.00  0.00    -0.245 NA
ATOM      3  C   UNL d   1      59.483  -9.577  32.438  0.00  0.00     0.049 A 
ATOM      4  C   UNL d   1      59.847  -9.593  31.708  0.00  0.00     0.025 A 
ATOM      5  C   UNL d   1      60.624  -9.324  31.812  0.00  0.00     0.082 A 
ATOM      6  C   UNL d   1      59.566  -9.817  30.967  0.00  0.00     0.002 A 
ATOM      7  C   UNL d   1      61.133  -9.274  31.182  0.00  0.00     0.019 A 
ATOM      8  C   UNL d   1      60.083  -9.768  30.322  0.00  0.00     0.000 A 
ATOM      9  C   UNL d   1      60.855  -9.499  30.436  0.00  0.00     0.002 A 
ENDROOT
BRANCH   1  10
ATOM     10  C   UNL d   1      59.853  -9.214  33.781  0.00  0.00     0.018 A 
ATOM     11  C   UNL d   1      59.445  -8.533  34.041  0.00  0.00     0.002 A 
ATOM     12  C   UNL d   1      59.261  -8.437  34.829  0.00  0.00     0.011 A 
ATOM     13  C   UNL d   1      59.484  -9.022  35.361  0.00  0.00     0.058 A 
ATOM     14  C   UNL d   1      59.895  -9.705  35.087  0.00  0.00     0.011 A 
ATOM     15 CL   UNL d   1      59.299  -8.926  36.155  0.00  0.00    -0.082 Cl
ATOM     16  C   UNL d   1      60.076  -9.798  34.309  0.00  0.00     0.002 A 
ENDBRANCH   1  10
BRANCH   3  17
ATOM     17  S   UNL d   1      58.698  -9.804  32.577  0.00  0.00    -0.083 SA
BRANCH  17  18
ATOM     18  C   UNL d   1      58.070  -9.510  32.108  0.00  0.00     0.058 C 
BRANCH  18  19
ATOM     19  C   UNL d   1      57.303  -9.808  32.176  0.00  0.00     0.129 C 
ATOM     20  N   UNL d   1      56.734  -9.668  31.592  0.00  0.00    -0.146 N 
ENDBRANCH  18  19
ENDBRANCH  17  18
ENDBRANCH   3  17
TORSDOF 4
ENDMDL
MODEL 5
REMARK VINA RESULT:       0.7      1.148      2.334
REMARK  4 active torsions:
REMARK  status: ('A' for Active; 'I' for Inactive)
REMARK    1  A    between atoms: C_6  and  C_1 
REMARK    2  A    between atoms: S_7  and  C_3 
REMARK    3  A    between atoms: C_17  and  S_7 
REMARK    4  A    between atoms: C_18  and  C_17 
ROOT
ATOM      1  C   UNL d   1      57.936   0.229  32.184  0.00  0.00     0.087 A 
ATOM      2  N   UNL d   1      58.610   0.339  32.635  0.00  0.00    -0.245 NA
ATOM      3  C   UNL d   1      58.131   0.274  31.383  0.00  0.00     0.049 A 
ATOM      4  C   UNL d   1      58.934   0.413  31.329  0.00  0.00     0.025 A 
ATOM      5  C   UNL d   1      59.232   0.453  32.101  0.00  0.00     0.082 A 
ATOM      6  C   UNL d   1      59.424   0.507  30.674  0.00  0.00     0.002 A 
ATOM      7  C   UNL d   1      60.021   0.587  32.234  0.00  0.00     0.019 A 
ATOM      8  C   UNL d   1      60.229   0.644  30.805  0.00  0.00     0.000 A 
ATOM      9  C   UNL d   1      60.517   0.682  31.578  0.00  0.00     0.002 A 
ENDROOT
BRANCH   1  10
ATOM     10  C   UNL d   1      57.173   0.094  32.443  0.00  0.00     0.018 A 
ATOM     11  C   UNL d   1      56.805   0.645  32.950  0.00  0.00     0.002 A 
ATOM     12  C   UNL d   1      56.044   0.521  33.214  0.00  0.00     0.011 A 
ATOM     13  C   UNL d   1      55.648  -0.156  32.972  0.00  0.00     0.058 A 
ATOM     14  C   UNL d   1      56.030  -0.706  32.459  0.00  0.00     0.011 A 
ATOM     15 CL   UNL d   1      54.882  -0.283  33.237  0.00  0.00    -0.082 Cl
ATOM     16  C   UNL d   1      56.780  -0.582  32.199  0.00  0.00     0.002 A 
ENDBRANCH   1  10
BRANCH   3  17
ATOM     17  S   UNL d   1      57.623   0.196  30.734  0.00  0.00    -0.083 SA
BRANCH  17  18
ATOM     18  C   UNL d   1      57.829   0.494  29.981  0.00  0.00     0.058 C 
BRANCH  18  19
ATOM     19  C   UNL d   1      57.262   0.618  29.393  0.00  0.00     0.129 C 
ATOM     20  N   UNL d   1      57.474   0.680  28.596  0.00  0.00    -0.146 N 
ENDBRANCH  18  19
ENDBRANCH  17  18
ENDBRANCH   3  17
TORSDOF 4
ENDMDL
