MODEL 1
REMARK VINA RESULT:      -4.0      0.000      0.000
REMARK  5 active torsions:
REMARK  status: ('A' for Active; 'I' for Inactive)
REMARK    1  A    between atoms: N_2  and  C_14 
REMARK    2  A    between atoms: C_17  and  N_4 
REMARK    3  A    between atoms: C_15  and  C_9 
REMARK    4  A    between atoms: C_14  and  O_16 
REMARK    5  A    between atoms: O_16  and  C_15 
ROOT
ATOM      1  C   UNL d   1      56.764   0.555  33.128  0.00  0.00     0.114 A 
ATOM      2  C   UNL d   1      57.586   0.569  33.201  0.00  0.00     0.044 A 
ATOM      3  N   UNL d   1      56.444   0.621  33.881  0.00  0.00    -0.224 N 
ATOM      4  N   UNL d   1      57.059   0.676  34.419  0.00  0.00    -0.165 NA
ATOM      5  S   UNL d   1      56.586   0.481  32.341  0.00  0.00    -0.062 SA
ATOM      6  C   UNL d   1      57.287   0.448  31.913  0.00  0.00     0.094 A 
ATOM      7  C   UNL d   1      57.907   0.504  32.459  0.00  0.00     0.015 A 
ATOM      8  C   UNL d   1      57.765   0.645  34.008  0.00  0.00     0.103 A 
ATOM      9  C   UNL d   1      58.518   0.682  34.329  0.00  0.00     0.022 C 
ENDROOT
BRANCH   6  10
ATOM     10  C   UNL d   1      57.360   0.374  31.098  0.00  0.00     0.307 C 
ATOM     11  O   UNL d   1      56.772   0.682  30.602  0.00  0.00    -0.258 OA
BRANCH  10  12
ATOM     12  O   UNL d   1      58.017  -0.007  30.772  0.00  0.00    -0.252 OA
BRANCH  12  13
ATOM     13  C   UNL d   1      58.039  -0.170  29.960  0.00  0.00     0.216 C 
BRANCH  13  14
ATOM     14  N   UNL d   1      58.673  -0.595  29.642  0.00  0.00    -0.218 N 
ATOM     15  C   UNL d   1      58.711  -1.409  29.558  0.00  0.00     0.269 A 
ATOM     16  C   UNL d   1      59.440  -1.602  29.216  0.00  0.00     0.061 A 
ATOM     17  O   UNL d   1      58.123  -1.952  29.775  0.00  0.00    -0.267 OA
ATOM     18  C   UNL d   1      59.784  -2.318  29.004  0.00  0.00     0.005 A 
ATOM     19  C   UNL d   1      59.852  -0.895  29.091  0.00  0.00     0.061 A 
ATOM     20  C   UNL d   1      60.532  -2.334  28.669  0.00  0.00     0.000 A 
ATOM     21  C   UNL d   1      60.943  -1.628  28.544  0.00  0.00     0.000 A 
ATOM     22  C   UNL d   1      60.607  -0.905  28.754  0.00  0.00     0.005 A 
ATOM     23  C   UNL d   1      59.378  -0.265  29.355  0.00  0.00     0.269 A 
ATOM     24  O   UNL d   1      59.571   0.534  29.335  0.00  0.00    -0.267 OA
ENDBRANCH  13  14
ENDBRANCH  12  13
ENDBRANCH  10  12
ENDBRANCH   6  10
BRANCH   3  25
ATOM     25  C   UNL d   1      55.640   0.630  34.064  0.00  0.00     0.083 A 
ATOM     26  C   UNL d   1      55.405   0.671  34.850  0.00  0.00     0.019 A 
ATOM     27  C   UNL d   1      54.601   0.680  35.034  0.00  0.00     0.002 A 
ATOM     28  C   UNL d   1      54.033   0.648  34.432  0.00  0.00     0.000 A 
ATOM     29  C   UNL d   1      54.278   0.607  33.639  0.00  0.00     0.002 A 
ATOM     30  C   UNL d   1      55.078   0.598  33.453  0.00  0.00     0.019 A 
ENDBRANCH   3  25
TORSDOF 5
ENDMDL
MODEL 2
REMARK VINA RESULT:      -3.1      1.354      5.827
REMARK  5 active torsions:
REMARK  status: ('A' for Active; 'I' for Inactive)
REMARK    1  A    between atoms: N_2  and  C_14 
REMARK    2  A    between atoms: C_17  and  N_4 
REMARK    3  A    between atoms: C_15  and  C_9 
REMARK    4  A    between atoms: C_14  and  O_16 
REMARK    5  A    between atoms: O_16  and  C_15 
ROOT
ATOM      1  C   UNL d   1      59.288  -0.807  29.303  0.00  0.00     0.114 A 
ATOM      2  C   UNL d   1      59.524  -0.020  29.225  0.00  0.00     0.044 A 
ATOM      3  N   UNL d   1      59.876  -1.278  28.975  0.00  0.00    -0.224 N 
ATOM      4  N   UNL d   1      60.472  -0.790  28.697  0.00  0.00    -0.165 NA
ATOM      5  S   UNL d   1      58.567  -0.815  29.672  0.00  0.00    -0.062 SA
ATOM      6  C   UNL d   1      58.342  -0.041  29.830  0.00  0.00     0.094 A 
ATOM      7  C   UNL d   1      58.946   0.450  29.547  0.00  0.00     0.015 A 
ATOM      8  C   UNL d   1      60.263  -0.015  28.846  0.00  0.00     0.103 A 
ATOM      9  C   UNL d   1      60.699   0.653  28.660  0.00  0.00     0.022 C 
ENDROOT
BRANCH   6  10
ATOM     10  C   UNL d   1      57.649   0.201  30.199  0.00  0.00     0.307 C 
ATOM     11  O   UNL d   1      57.058   0.581  29.760  0.00  0.00    -0.258 OA
BRANCH  10  12
ATOM     12  O   UNL d   1      57.539   0.066  31.008  0.00  0.00    -0.252 OA
BRANCH  12  13
ATOM     13  C   UNL d   1      57.280   0.682  31.498  0.00  0.00     0.216 C 
BRANCH  13  14
ATOM     14  N   UNL d   1      56.906   0.508  32.215  0.00  0.00    -0.218 N 
ATOM     15  C   UNL d   1      57.263   0.496  32.952  0.00  0.00     0.269 A 
ATOM     16  C   UNL d   1      56.690   0.297  33.515  0.00  0.00     0.061 A 
ATOM     17  O   UNL d   1      58.061   0.656  33.112  0.00  0.00    -0.267 OA
ATOM     18  C   UNL d   1      56.721   0.202  34.332  0.00  0.00     0.005 A 
ATOM     19  C   UNL d   1      55.975   0.187  33.115  0.00  0.00     0.061 A 
ATOM     20  C   UNL d   1      56.046  -0.001  34.749  0.00  0.00     0.000 A 
ATOM     21  C   UNL d   1      55.331  -0.112  34.349  0.00  0.00     0.000 A 
ATOM     22  C   UNL d   1      55.290  -0.019  33.532  0.00  0.00     0.005 A 
ATOM     23  C   UNL d   1      56.104   0.317  32.304  0.00  0.00     0.269 A 
ATOM     24  O   UNL d   1      55.544   0.266  31.705  0.00  0.00    -0.267 OA
ENDBRANCH  13  14
ENDBRANCH  12  13
ENDBRANCH  10  12
ENDBRANCH   6  10
BRANCH   3  25
ATOM     25  C   UNL d   1      59.867  -2.101  28.934  0.00  0.00     0.083 A 
ATOM     26  C   UNL d   1      59.227  -2.483  28.590  0.00  0.00     0.019 A 
ATOM     27  C   UNL d   1      59.218  -3.307  28.549  0.00  0.00     0.002 A 
ATOM     28  C   UNL d   1      59.849  -3.749  28.852  0.00  0.00     0.000 A 
ATOM     29  C   UNL d   1      60.495  -3.356  29.200  0.00  0.00     0.002 A 
ATOM     30  C   UNL d   1      60.506  -2.536  29.242  0.00  0.00     0.019 A 
ENDBRANCH   3  25
TORSDOF 5
ENDMDL
