MODEL 1
REMARK VINA RESULT:      -6.8      0.000      0.000
REMARK  8 active torsions:
REMARK  status: ('A' for Active; 'I' for Inactive)
REMARK    1  A    between atoms: C_6  and  N_1 
REMARK    2  A    between atoms: C_7  and  C_2 
REMARK    3  A    between atoms: C_3  and  C_9 
REMARK    4  A    between atoms: O_5  and  C_3 
REMARK    5  A    between atoms: C_4  and  O_5 
REMARK    6  A    between atoms: C_8  and  C_7 
REMARK    7  A    between atoms: C_12  and  C_8 
REMARK    8  A    between atoms: C_10  and  C_12 
ROOT
ATOM      1  C   UNL d   1     -48.510  12.461  22.840  0.00  0.00     0.064 A 
ATOM      2  C   UNL d   1     -47.733  12.312  23.077  0.00  0.00     0.106 A 
ATOM      3  C   UNL d   1     -49.113  11.920  23.034  0.00  0.00     0.035 A 
ATOM      4  C   UNL d   1     -47.557  11.621  23.508  0.00  0.00     0.027 A 
ATOM      5  C   UNL d   1     -48.934  11.236  23.461  0.00  0.00     0.140 A 
ATOM      6  C   UNL d   1     -48.157  11.087  23.698  0.00  0.00     0.032 A 
ATOM      7  F   UNL d   1     -49.534  10.702  23.651  0.00  0.00    -0.204 F 
ENDROOT
BRANCH   2   8
ATOM      8  O   UNL d   1     -47.129  12.845  22.888  0.00  0.00    -0.273 OA
BRANCH   8   9
ATOM      9  C   UNL d   1     -46.347  12.666  23.088  0.00  0.00     0.300 C 
ATOM     10  O   UNL d   1     -46.183  12.117  23.679  0.00  0.00    -0.259 OA
BRANCH   9  11
ATOM     11  C   UNL d   1     -45.731  13.043  22.690  0.00  0.00     0.065 A 
ATOM     12  C   UNL d   1     -45.124  12.596  22.358  0.00  0.00     0.029 A 
ATOM     13  C   UNL d   1     -44.509  12.964  21.961  0.00  0.00     0.127 A 
ATOM     14  C   UNL d   1     -44.516  13.810  21.903  0.00  0.00     0.024 A 
ATOM     15  C   UNL d   1     -45.102  14.238  22.224  0.00  0.00     0.002 A 
ATOM     16  C   UNL d   1     -45.724  13.865  22.626  0.00  0.00     0.005 A 
BRANCH  13  17
ATOM     17  N   UNL d   1     -43.887  12.523  21.620  0.00  0.00    -0.114 N 
ATOM     18  O   UNL d   1     -43.766  12.542  20.810  0.00  0.00    -0.532 OA
ATOM     19  O   UNL d   1     -43.397  12.071  22.107  0.00  0.00    -0.532 OA
ENDBRANCH  13  17
ENDBRANCH   9  11
ENDBRANCH   8   9
ENDBRANCH   2   8
BRANCH   1  20
ATOM     20  C   UNL d   1     -48.688  13.148  22.411  0.00  0.00     0.198 C 
ATOM     21  O   UNL d   1     -48.593  13.158  21.591  0.00  0.00    -0.286 OA
BRANCH  20  22
ATOM     22  C   UNL d   1     -48.960  13.820  22.805  0.00  0.00     0.043 C 
BRANCH  22  23
ATOM     23  C   UNL d   1     -49.502  14.321  22.436  0.00  0.00     0.010 C 
BRANCH  23  24
ATOM     24  C   UNL d   1     -49.926  14.869  22.884  0.00  0.00     0.030 A 
ATOM     25  S   UNL d   1     -49.618  15.528  23.278  0.00  0.00    -0.086 SA
ATOM     26  C   UNL d   1     -50.237  15.922  23.656  0.00  0.00     0.035 A 
ATOM     27  C   UNL d   1     -50.935  15.510  23.500  0.00  0.00     0.007 A 
ATOM     28  C   UNL d   1     -50.744  14.860  23.023  0.00  0.00     0.007 A 
ENDBRANCH  23  24
ENDBRANCH  22  23
ENDBRANCH  20  22
ENDBRANCH   1  20
TORSDOF 8
ENDMDL
MODEL 2
REMARK VINA RESULT:      -6.1      7.875      9.585
REMARK  8 active torsions:
REMARK  status: ('A' for Active; 'I' for Inactive)
REMARK    1  A    between atoms: C_6  and  N_1 
REMARK    2  A    between atoms: C_7  and  C_2 
REMARK    3  A    between atoms: C_3  and  C_9 
REMARK    4  A    between atoms: O_5  and  C_3 
REMARK    5  A    between atoms: C_4  and  O_5 
REMARK    6  A    between atoms: C_8  and  C_7 
REMARK    7  A    between atoms: C_12  and  C_8 
REMARK    8  A    between atoms: C_10  and  C_12 
ROOT
ATOM      1  C   UNL d   1     -39.949  14.997  20.362  0.00  0.00     0.064 A 
ATOM      2  C   UNL d   1     -40.113  14.705  19.607  0.00  0.00     0.106 A 
ATOM      3  C   UNL d   1     -40.540  15.404  20.785  0.00  0.00     0.035 A 
ATOM      4  C   UNL d   1     -40.867  14.820  19.273  0.00  0.00     0.027 A 
ATOM      5  C   UNL d   1     -41.286  15.516  20.451  0.00  0.00     0.140 A 
ATOM      6  C   UNL d   1     -41.450  15.224  19.696  0.00  0.00     0.032 A 
ATOM      7  F   UNL d   1     -41.868  15.920  20.874  0.00  0.00    -0.204 F 
ENDROOT
BRANCH   2   8
ATOM      8  O   UNL d   1     -39.531  14.299  19.180  0.00  0.00    -0.273 OA
BRANCH   8   9
ATOM      9  C   UNL d   1     -39.740  13.879  18.499  0.00  0.00     0.300 C 
ATOM     10  O   UNL d   1     -40.528  13.697  18.347  0.00  0.00    -0.259 OA
BRANCH   9  11
ATOM     11  C   UNL d   1     -39.151  13.644  17.972  0.00  0.00     0.065 A 
ATOM     12  C   UNL d   1     -39.051  14.051  17.263  0.00  0.00     0.029 A 
ATOM     13  C   UNL d   1     -38.468  13.823  16.734  0.00  0.00     0.127 A 
ATOM     14  C   UNL d   1     -37.977  13.162  16.937  0.00  0.00     0.024 A 
ATOM     15  C   UNL d   1     -38.076  12.772  17.621  0.00  0.00     0.002 A 
ATOM     16  C   UNL d   1     -38.666  13.003  18.156  0.00  0.00     0.005 A 
BRANCH  13  17
ATOM     17  N   UNL d   1     -38.354  14.226  16.012  0.00  0.00    -0.114 N 
ATOM     18  O   UNL d   1     -38.359  13.813  15.305  0.00  0.00    -0.532 OA
ATOM     19  O   UNL d   1     -38.237  15.043  16.019  0.00  0.00    -0.532 OA
ENDBRANCH  13  17
ENDBRANCH   9  11
ENDBRANCH   8   9
ENDBRANCH   2   8
BRANCH   1  20
ATOM     20  C   UNL d   1     -39.199  14.884  20.696  0.00  0.00     0.198 C 
ATOM     21  O   UNL d   1     -38.537  15.240  20.353  0.00  0.00    -0.286 OA
BRANCH  20  22
ATOM     22  C   UNL d   1     -39.115  14.416  21.370  0.00  0.00     0.043 C 
BRANCH  22  23
ATOM     23  C   UNL d   1     -38.360  14.233  21.651  0.00  0.00     0.010 C 
BRANCH  23  24
ATOM     24  C   UNL d   1     -38.276  13.789  22.342  0.00  0.00     0.030 A 
ATOM     25  S   UNL d   1     -37.952  13.031  22.405  0.00  0.00    -0.086 SA
ATOM     26  C   UNL d   1     -37.977  12.798  23.196  0.00  0.00     0.035 A 
ATOM     27  C   UNL d   1     -38.318  13.411  23.631  0.00  0.00     0.007 A 
ATOM     28  C   UNL d   1     -38.503  14.024  23.105  0.00  0.00     0.007 A 
ENDBRANCH  23  24
ENDBRANCH  22  23
ENDBRANCH  20  22
ENDBRANCH   1  20
TORSDOF 8
ENDMDL
MODEL 3
REMARK VINA RESULT:      -4.9      1.746      2.644
REMARK  8 active torsions:
REMARK  status: ('A' for Active; 'I' for Inactive)
REMARK    1  A    between atoms: C_6  and  N_1 
REMARK    2  A    between atoms: C_7  and  C_2 
REMARK    3  A    between atoms: C_3  and  C_9 
REMARK    4  A    between atoms: O_5  and  C_3 
REMARK    5  A    between atoms: C_4  and  O_5 
REMARK    6  A    between atoms: C_8  and  C_7 
REMARK    7  A    between atoms: C_12  and  C_8 
REMARK    8  A    between atoms: C_10  and  C_12 
ROOT
ATOM      1  C   UNL d   1     -47.905  13.890  22.274  0.00  0.00     0.064 A 
ATOM      2  C   UNL d   1     -47.103  14.065  22.373  0.00  0.00     0.106 A 
ATOM      3  C   UNL d   1     -48.470  14.500  22.321  0.00  0.00     0.035 A 
ATOM      4  C   UNL d   1     -46.866  14.850  22.518  0.00  0.00     0.027 A 
ATOM      5  C   UNL d   1     -48.230  15.277  22.465  0.00  0.00     0.140 A 
ATOM      6  C   UNL d   1     -47.429  15.451  22.564  0.00  0.00     0.032 A 
ATOM      7  F   UNL d   1     -48.794  15.878  22.511  0.00  0.00    -0.204 F 
ENDROOT
BRANCH   2   8
ATOM      8  O   UNL d   1     -46.536  13.464  22.328  0.00  0.00    -0.273 OA
BRANCH   8   9
ATOM      9  C   UNL d   1     -45.772  13.599  22.614  0.00  0.00     0.300 C 
ATOM     10  O   UNL d   1     -45.598  14.290  23.026  0.00  0.00    -0.259 OA
BRANCH   9  11
ATOM     11  C   UNL d   1     -45.185  13.035  22.484  0.00  0.00     0.065 A 
ATOM     12  C   UNL d   1     -44.562  13.205  21.973  0.00  0.00     0.029 A 
ATOM     13  C   UNL d   1     -43.975  12.649  21.838  0.00  0.00     0.127 A 
ATOM     14  C   UNL d   1     -44.028  11.902  22.238  0.00  0.00     0.024 A 
ATOM     15  C   UNL d   1     -44.630  11.743  22.730  0.00  0.00     0.002 A 
ATOM     16  C   UNL d   1     -45.224  12.305  22.865  0.00  0.00     0.005 A 
BRANCH  13  17
ATOM     17  N   UNL d   1     -43.337  12.806  21.323  0.00  0.00    -0.114 N 
ATOM     18  O   UNL d   1     -42.685  13.223  21.590  0.00  0.00    -0.532 OA
ATOM     19  O   UNL d   1     -43.372  12.536  20.543  0.00  0.00    -0.532 OA
ENDBRANCH  13  17
ENDBRANCH   9  11
ENDBRANCH   8   9
ENDBRANCH   2   8
BRANCH   1  20
ATOM     20  C   UNL d   1     -48.144  13.110  22.130  0.00  0.00     0.198 C 
ATOM     21  O   UNL d   1     -47.933  12.738  21.423  0.00  0.00    -0.286 OA
BRANCH  20  22
ATOM     22  C   UNL d   1     -48.592  12.705  22.692  0.00  0.00     0.043 C 
BRANCH  22  23
ATOM     23  C   UNL d   1     -49.069  12.073  22.460  0.00  0.00     0.010 C 
BRANCH  23  24
ATOM     24  C   UNL d   1     -49.780  11.930  22.853  0.00  0.00     0.030 A 
ATOM     25  S   UNL d   1     -50.503  12.309  22.721  0.00  0.00    -0.086 SA
ATOM     26  C   UNL d   1     -51.064  11.994  23.237  0.00  0.00     0.035 A 
ATOM     27  C   UNL d   1     -50.695  11.414  23.694  0.00  0.00     0.007 A 
ATOM     28  C   UNL d   1     -49.901  11.373  23.458  0.00  0.00     0.007 A 
ENDBRANCH  23  24
ENDBRANCH  22  23
ENDBRANCH  20  22
ENDBRANCH   1  20
TORSDOF 8
ENDMDL
MODEL 4
REMARK VINA RESULT:      -4.3      6.040      8.599
REMARK  8 active torsions:
REMARK  status: ('A' for Active; 'I' for Inactive)
REMARK    1  A    between atoms: C_6  and  N_1 
REMARK    2  A    between atoms: C_7  and  C_2 
REMARK    3  A    between atoms: C_3  and  C_9 
REMARK    4  A    between atoms: O_5  and  C_3 
REMARK    5  A    between atoms: C_4  and  O_5 
REMARK    6  A    between atoms: C_8  and  C_7 
REMARK    7  A    between atoms: C_12  and  C_8 
REMARK    8  A    between atoms: C_10  and  C_12 
ROOT
ATOM      1  C   UNL d   1     -40.075  15.493  21.036  0.00  0.00     0.064 A 
ATOM      2  C   UNL d   1     -39.506  15.516  20.437  0.00  0.00     0.106 A 
ATOM      3  C   UNL d   1     -39.849  15.630  21.827  0.00  0.00     0.035 A 
ATOM      4  C   UNL d   1     -38.711  15.675  20.628  0.00  0.00     0.027 A 
ATOM      5  C   UNL d   1     -39.060  15.787  22.011  0.00  0.00     0.140 A 
ATOM      6  C   UNL d   1     -38.492  15.810  21.412  0.00  0.00     0.032 A 
ATOM      7  F   UNL d   1     -38.841  15.921  22.795  0.00  0.00    -0.204 F 
ENDROOT
BRANCH   2   8
ATOM      8  O   UNL d   1     -39.723  15.382  19.650  0.00  0.00    -0.273 OA
BRANCH   8   9
ATOM      9  C   UNL d   1     -39.156  15.449  19.052  0.00  0.00     0.300 C 
ATOM     10  O   UNL d   1     -38.451  15.851  19.189  0.00  0.00    -0.259 OA
BRANCH   9  11
ATOM     11  C   UNL d   1     -39.302  15.108  18.315  0.00  0.00     0.065 A 
ATOM     12  C   UNL d   1     -39.003  14.361  18.144  0.00  0.00     0.029 A 
ATOM     13  C   UNL d   1     -39.145  14.016  17.414  0.00  0.00     0.127 A 
ATOM     14  C   UNL d   1     -39.603  14.448  16.847  0.00  0.00     0.024 A 
ATOM     15  C   UNL d   1     -39.890  15.169  17.015  0.00  0.00     0.002 A 
ATOM     16  C   UNL d   1     -39.747  15.517  17.754  0.00  0.00     0.005 A 
BRANCH  13  17
ATOM     17  N   UNL d   1     -38.848  13.258  17.226  0.00  0.00    -0.114 N 
ATOM     18  O   UNL d   1     -39.149  12.594  17.598  0.00  0.00    -0.532 OA
ATOM     19  O   UNL d   1     -38.249  13.188  16.662  0.00  0.00    -0.532 OA
ENDBRANCH  13  17
ENDBRANCH   9  11
ENDBRANCH   8   9
ENDBRANCH   2   8
BRANCH   1  20
ATOM     20  C   UNL d   1     -40.867  15.335  20.850  0.00  0.00     0.198 C 
ATOM     21  O   UNL d   1     -41.334  15.922  20.505  0.00  0.00    -0.286 OA
BRANCH  20  22
ATOM     22  C   UNL d   1     -41.186  14.591  21.009  0.00  0.00     0.043 C 
BRANCH  22  23
ATOM     23  C   UNL d   1     -41.963  14.422  20.786  0.00  0.00     0.010 C 
BRANCH  23  24
ATOM     24  C   UNL d   1     -42.325  13.731  21.053  0.00  0.00     0.030 A 
ATOM     25  S   UNL d   1     -43.138  13.597  21.131  0.00  0.00    -0.086 SA
ATOM     26  C   UNL d   1     -43.253  12.832  21.417  0.00  0.00     0.035 A 
ATOM     27  C   UNL d   1     -42.512  12.483  21.519  0.00  0.00     0.007 A 
ATOM     28  C   UNL d   1     -41.938  13.037  21.295  0.00  0.00     0.007 A 
ENDBRANCH  23  24
ENDBRANCH  22  23
ENDBRANCH  20  22
ENDBRANCH   1  20
TORSDOF 8
ENDMDL
MODEL 5
REMARK VINA RESULT:      -4.1      5.956      8.585
REMARK  8 active torsions:
REMARK  status: ('A' for Active; 'I' for Inactive)
REMARK    1  A    between atoms: C_6  and  N_1 
REMARK    2  A    between atoms: C_7  and  C_2 
REMARK    3  A    between atoms: C_3  and  C_9 
REMARK    4  A    between atoms: O_5  and  C_3 
REMARK    5  A    between atoms: C_4  and  O_5 
REMARK    6  A    between atoms: C_8  and  C_7 
REMARK    7  A    between atoms: C_12  and  C_8 
REMARK    8  A    between atoms: C_10  and  C_12 
ROOT
ATOM      1  C   UNL d   1     -39.658  14.291  20.510  0.00  0.00     0.064 A 
ATOM      2  C   UNL d   1     -39.347  14.289  19.745  0.00  0.00     0.106 A 
ATOM      3  C   UNL d   1     -39.185  14.047  21.150  0.00  0.00     0.035 A 
ATOM      4  C   UNL d   1     -38.561  14.043  19.618  0.00  0.00     0.027 A 
ATOM      5  C   UNL d   1     -38.407  13.804  21.021  0.00  0.00     0.140 A 
ATOM      6  C   UNL d   1     -38.095  13.802  20.256  0.00  0.00     0.032 A 
ATOM      7  F   UNL d   1     -37.941  13.564  21.658  0.00  0.00    -0.204 F 
ENDROOT
BRANCH   2   8
ATOM      8  O   UNL d   1     -39.811  14.529  19.103  0.00  0.00    -0.273 OA
BRANCH   8   9
ATOM      9  C   UNL d   1     -39.558  14.371  18.332  0.00  0.00     0.300 C 
ATOM     10  O   UNL d   1     -39.098  13.708  18.171  0.00  0.00    -0.259 OA
BRANCH   9  11
ATOM     11  C   UNL d   1     -39.771  14.885  17.723  0.00  0.00     0.065 A 
ATOM     12  C   UNL d   1     -40.566  15.004  17.547  0.00  0.00     0.029 A 
ATOM     13  C   UNL d   1     -40.785  15.514  16.943  0.00  0.00     0.127 A 
ATOM     14  C   UNL d   1     -40.173  15.910  16.510  0.00  0.00     0.024 A 
ATOM     15  C   UNL d   1     -39.407  15.793  16.682  0.00  0.00     0.002 A 
ATOM     16  C   UNL d   1     -39.186  15.277  17.293  0.00  0.00     0.005 A 
BRANCH  13  17
ATOM     17  N   UNL d   1     -41.587  15.645  16.754  0.00  0.00    -0.114 N 
ATOM     18  O   UNL d   1     -42.110  15.898  17.331  0.00  0.00    -0.532 OA
ATOM     19  O   UNL d   1     -41.845  15.516  15.980  0.00  0.00    -0.532 OA
ENDBRANCH  13  17
ENDBRANCH   9  11
ENDBRANCH   8   9
ENDBRANCH   2   8
BRANCH   1  20
ATOM     20  C   UNL d   1     -40.440  14.535  20.638  0.00  0.00     0.198 C 
ATOM     21  O   UNL d   1     -40.618  15.339  20.691  0.00  0.00    -0.286 OA
BRANCH  20  22
ATOM     22  C   UNL d   1     -41.040  13.972  20.711  0.00  0.00     0.043 C 
BRANCH  22  23
ATOM     23  C   UNL d   1     -41.747  14.174  21.086  0.00  0.00     0.010 C 
BRANCH  23  24
ATOM     24  C   UNL d   1     -42.331  13.602  21.195  0.00  0.00     0.030 A 
ATOM     25  S   UNL d   1     -43.140  13.687  21.047  0.00  0.00    -0.086 SA
ATOM     26  C   UNL d   1     -43.519  12.978  21.233  0.00  0.00     0.035 A 
ATOM     27  C   UNL d   1     -42.947  12.445  21.499  0.00  0.00     0.007 A 
ATOM     28  C   UNL d   1     -42.213  12.829  21.477  0.00  0.00     0.007 A 
ENDBRANCH  23  24
ENDBRANCH  22  23
ENDBRANCH  20  22
ENDBRANCH   1  20
TORSDOF 8
ENDMDL
