MODEL 1
REMARK VINA RESULT:      -3.8      0.000      0.000
REMARK  4 active torsions:
REMARK  status: ('A' for Active; 'I' for Inactive)
REMARK    1  A    between atoms: N_8  and  C_1 
REMARK    2  A    between atoms: O_11  and  C_2 
REMARK       I    between atoms: C_12  and  N_8 
REMARK    3  A    between atoms: C_16  and  O_11 
REMARK    4  A    between atoms: O_22  and  C_17 
ROOT
ATOM      1  C   UNL d   1      32.875  18.610 -23.412  0.00  0.00     0.272 A 
ATOM      2  C   UNL d   1      32.789  18.138 -24.019  0.00  0.00     0.284 A 
ATOM      3  C   UNL d   1      33.052  19.672 -22.218  0.00  0.00     0.207 A 
ATOM      4  C   UNL d   1      32.964  19.718 -23.180  0.00  0.00     0.220 A 
ATOM      5  O   UNL d   1      32.877  18.089 -23.054  0.00  0.00    -0.325 OA
ATOM      6  C   UNL d   1      32.961  19.151 -22.850  0.00  0.00     0.182 A 
ATOM      7  O   UNL d   1      33.114  20.451 -22.072  0.00  0.00    -0.327 OA
ATOM      8  C   UNL d   1      33.174  20.412 -21.411  0.00  0.00     0.188 A 
ATOM      9  O   UNL d   1      33.111  19.716 -21.621  0.00  0.00    -0.332 OA
ATOM     10  C   UNL d   1      33.021  19.133 -22.202  0.00  0.00     0.177 A 
ATOM     11  O   UNL d   1      33.037  20.092 -22.656  0.00  0.00    -0.290 OA
ATOM     12  C   UNL d   1      33.221  21.140 -21.383  0.00  0.00     0.061 C 
ATOM     13  C   UNL d   1      33.241  20.391 -20.683  0.00  0.00     0.061 C 
ENDROOT
BRANCH   2  14
ATOM     14  O   UNL d   1      32.727  17.356 -24.167  0.00  0.00    -0.303 OA
BRANCH  14  15
ATOM     15  C   UNL d   1      32.013  16.958 -23.993  0.00  0.00     0.097 A 
ATOM     16  C   UNL d   1      31.339  17.131 -24.433  0.00  0.00     0.026 A 
ATOM     17  C   UNL d   1      30.625  16.738 -24.265  0.00  0.00     0.026 A 
ATOM     18  C   UNL d   1      30.598  16.175 -23.653  0.00  0.00     0.094 A 
ATOM     19  C   UNL d   1      31.283  16.007 -23.214  0.00  0.00     0.026 A 
ATOM     20  C   UNL d   1      31.996  16.401 -23.384  0.00  0.00     0.026 A 
BRANCH  18  21
ATOM     21  O   UNL d   1      29.884  15.782 -23.486  0.00  0.00    -0.328 OA
ATOM     22  C   UNL d   1      29.198  15.969 -23.908  0.00  0.00     0.181 C 
ENDBRANCH  18  21
ENDBRANCH  14  15
ENDBRANCH   2  14
BRANCH   1  23
ATOM     23  N   UNL d   1      32.815  18.630 -24.064  0.00  0.00    -0.380 NA
ATOM     24  C   UNL d   1      32.756  18.649 -24.713  0.00  0.00     0.324 C 
ATOM     25  O   UNL d   1      32.213  18.890 -24.984  0.00  0.00    -0.251 OA
ATOM     26  C   UNL d   1      33.241  18.428 -25.097  0.00  0.00     0.082 C 
ENDBRANCH   1  23
TORSDOF 4
ENDMDL
MODEL 2
REMARK VINA RESULT:      -3.8      0.966      4.346
REMARK  4 active torsions:
REMARK  status: ('A' for Active; 'I' for Inactive)
REMARK    1  A    between atoms: N_8  and  C_1 
REMARK    2  A    between atoms: O_11  and  C_2 
REMARK       I    between atoms: C_12  and  N_8 
REMARK    3  A    between atoms: C_16  and  O_11 
REMARK    4  A    between atoms: O_22  and  C_17 
ROOT
ATOM      1  C   UNL d   1      31.586  16.434 -23.823  0.00  0.00     0.272 A 
ATOM      2  C   UNL d   1      32.356  16.509 -23.844  0.00  0.00     0.284 A 
ATOM      3  C   UNL d   1      30.000  16.185 -23.736  0.00  0.00     0.207 A 
ATOM      4  C   UNL d   1      30.794  15.693 -23.486  0.00  0.00     0.220 A 
ATOM      5  O   UNL d   1      31.559  17.004 -24.096  0.00  0.00    -0.325 OA
ATOM      6  C   UNL d   1      30.818  16.285 -23.767  0.00  0.00     0.182 A 
ATOM      7  O   UNL d   1      29.458  15.655 -23.494  0.00  0.00    -0.327 OA
ATOM      8  C   UNL d   1      28.916  15.999 -23.669  0.00  0.00     0.188 A 
ATOM      9  O   UNL d   1      29.468  16.433 -23.865  0.00  0.00    -0.332 OA
ATOM     10  C   UNL d   1      30.275  16.607 -23.931  0.00  0.00     0.177 A 
ATOM     11  O   UNL d   1      30.148  15.654 -23.480  0.00  0.00    -0.290 OA
ATOM     12  C   UNL d   1      28.503  15.453 -23.416  0.00  0.00     0.061 C 
ATOM     13  C   UNL d   1      28.307  16.360 -23.853  0.00  0.00     0.061 C 
ENDROOT
BRANCH   2  14
ATOM     14  O   UNL d   1      32.900  17.040 -24.086  0.00  0.00    -0.303 OA
BRANCH  14  15
ATOM     15  C   UNL d   1      32.953  17.781 -23.703  0.00  0.00     0.097 A 
ATOM     16  C   UNL d   1      32.770  18.464 -24.123  0.00  0.00     0.026 A 
ATOM     17  C   UNL d   1      32.821  19.206 -23.748  0.00  0.00     0.026 A 
ATOM     18  C   UNL d   1      33.057  19.248 -22.951  0.00  0.00     0.094 A 
ATOM     19  C   UNL d   1      33.240  18.554 -22.535  0.00  0.00     0.026 A 
ATOM     20  C   UNL d   1      33.189  17.814 -22.912  0.00  0.00     0.026 A 
BRANCH  18  21
ATOM     21  O   UNL d   1      33.108  19.990 -22.576  0.00  0.00    -0.328 OA
ATOM     22  C   UNL d   1      33.113  20.039 -21.751  0.00  0.00     0.181 C 
ENDBRANCH  18  21
ENDBRANCH  14  15
ENDBRANCH   2  14
BRANCH   1  23
ATOM     23  N   UNL d   1      32.130  16.110 -23.658  0.00  0.00    -0.380 NA
ATOM     24  C   UNL d   1      32.672  15.787 -23.495  0.00  0.00     0.324 C 
ATOM     25  O   UNL d   1      32.854  15.750 -22.868  0.00  0.00    -0.251 OA
ATOM     26  C   UNL d   1      33.038  15.497 -23.957  0.00  0.00     0.082 C 
ENDBRANCH   1  23
TORSDOF 4
ENDMDL
MODEL 3
REMARK VINA RESULT:      -3.7      1.074      4.165
REMARK  4 active torsions:
REMARK  status: ('A' for Active; 'I' for Inactive)
REMARK    1  A    between atoms: N_8  and  C_1 
REMARK    2  A    between atoms: O_11  and  C_2 
REMARK       I    between atoms: C_12  and  N_8 
REMARK    3  A    between atoms: C_16  and  O_11 
REMARK    4  A    between atoms: O_22  and  C_17 
ROOT
ATOM      1  C   UNL d   1      31.855  17.459 -24.004  0.00  0.00     0.272 A 
ATOM      2  C   UNL d   1      32.594  17.471 -23.774  0.00  0.00     0.284 A 
ATOM      3  C   UNL d   1      30.312  17.338 -24.439  0.00  0.00     0.207 A 
ATOM      4  C   UNL d   1      30.950  16.773 -23.984  0.00  0.00     0.220 A 
ATOM      5  O   UNL d   1      31.954  18.041 -24.232  0.00  0.00    -0.325 OA
ATOM      6  C   UNL d   1      31.101  17.372 -24.204  0.00  0.00     0.182 A 
ATOM      7  O   UNL d   1      29.688  16.846 -24.418  0.00  0.00    -0.327 OA
ATOM      8  C   UNL d   1      29.254  17.240 -24.732  0.00  0.00     0.188 A 
ATOM      9  O   UNL d   1      29.867  17.636 -24.714  0.00  0.00    -0.332 OA
ATOM     10  C   UNL d   1      30.662  17.744 -24.509  0.00  0.00     0.177 A 
ATOM     11  O   UNL d   1      30.335  16.787 -24.186  0.00  0.00    -0.290 OA
ATOM     12  C   UNL d   1      28.747  16.720 -24.660  0.00  0.00     0.061 C 
ATOM     13  C   UNL d   1      28.761  17.658 -25.075  0.00  0.00     0.061 C 
ENDROOT
BRANCH   2  14
ATOM     14  O   UNL d   1      33.221  17.965 -23.796  0.00  0.00    -0.303 OA
BRANCH  14  15
ATOM     15  C   UNL d   1      33.226  18.646 -23.313  0.00  0.00     0.097 A 
ATOM     16  C   UNL d   1      33.231  19.389 -23.667  0.00  0.00     0.026 A 
ATOM     17  C   UNL d   1      33.236  20.073 -23.192  0.00  0.00     0.026 A 
ATOM     18  C   UNL d   1      33.236  19.998 -22.363  0.00  0.00     0.094 A 
ATOM     19  C   UNL d   1      33.231  19.245 -22.014  0.00  0.00     0.026 A 
ATOM     20  C   UNL d   1      33.226  18.563 -22.491  0.00  0.00     0.026 A 
BRANCH  18  21
ATOM     21  O   UNL d   1      33.241  20.682 -21.888  0.00  0.00    -0.328 OA
ATOM     22  C   UNL d   1      32.666  20.787 -21.304  0.00  0.00     0.181 C 
ENDBRANCH  18  21
ENDBRANCH  14  15
ENDBRANCH   2  14
BRANCH   1  23
ATOM     23  N   UNL d   1      32.295  17.084 -23.697  0.00  0.00    -0.380 NA
ATOM     24  C   UNL d   1      32.734  16.711 -23.392  0.00  0.00     0.324 C 
ATOM     25  O   UNL d   1      32.739  16.679 -22.740  0.00  0.00    -0.251 OA
ATOM     26  C   UNL d   1      33.172  16.364 -23.737  0.00  0.00     0.082 C 
ENDBRANCH   1  23
TORSDOF 4
ENDMDL
MODEL 4
REMARK VINA RESULT:      -2.0      1.792      2.506
REMARK  4 active torsions:
REMARK  status: ('A' for Active; 'I' for Inactive)
REMARK    1  A    between atoms: N_8  and  C_1 
REMARK    2  A    between atoms: O_11  and  C_2 
REMARK       I    between atoms: C_12  and  N_8 
REMARK    3  A    between atoms: C_16  and  O_11 
REMARK    4  A    between atoms: O_22  and  C_17 
ROOT
ATOM      1  C   UNL d   1      32.255  16.860 -24.167  0.00  0.00     0.272 A 
ATOM      2  C   UNL d   1      32.175  16.105 -24.014  0.00  0.00     0.284 A 
ATOM      3  C   UNL d   1      32.510  18.425 -24.432  0.00  0.00     0.207 A 
ATOM      4  C   UNL d   1      32.977  17.714 -23.972  0.00  0.00     0.220 A 
ATOM      5  O   UNL d   1      31.704  16.818 -24.476  0.00  0.00    -0.325 OA
ATOM      6  C   UNL d   1      32.406  17.621 -24.280  0.00  0.00     0.182 A 
ATOM      7  O   UNL d   1      33.027  19.012 -24.287  0.00  0.00    -0.327 OA
ATOM      8  C   UNL d   1      32.700  19.496 -24.605  0.00  0.00     0.188 A 
ATOM      9  O   UNL d   1      32.275  18.911 -24.697  0.00  0.00    -0.332 OA
ATOM     10  C   UNL d   1      32.100  18.108 -24.587  0.00  0.00     0.177 A 
ATOM     11  O   UNL d   1      33.021  18.344 -24.113  0.00  0.00    -0.290 OA
ATOM     12  C   UNL d   1      33.231  19.961 -24.419  0.00  0.00     0.061 C 
ATOM     13  C   UNL d   1      32.357  20.043 -24.949  0.00  0.00     0.061 C 
ENDROOT
BRANCH   2  14
ATOM     14  O   UNL d   1      31.658  15.515 -24.159  0.00  0.00    -0.303 OA
BRANCH  14  15
ATOM     15  C   UNL d   1      30.868  15.585 -23.895  0.00  0.00     0.097 A 
ATOM     16  C   UNL d   1      30.272  15.729 -24.444  0.00  0.00     0.026 A 
ATOM     17  C   UNL d   1      29.483  15.799 -24.188  0.00  0.00     0.026 A 
ATOM     18  C   UNL d   1      29.304  15.723 -23.379  0.00  0.00     0.094 A 
ATOM     19  C   UNL d   1      29.911  15.577 -22.832  0.00  0.00     0.026 A 
ATOM     20  C   UNL d   1      30.699  15.507 -23.090  0.00  0.00     0.026 A 
BRANCH  18  21
ATOM     21  O   UNL d   1      28.515  15.793 -23.124  0.00  0.00    -0.328 OA
ATOM     22  C   UNL d   1      27.935  16.076 -23.639  0.00  0.00     0.181 C 
ENDBRANCH  18  21
ENDBRANCH  14  15
ENDBRANCH   2  14
BRANCH   1  23
ATOM     23  N   UNL d   1      32.562  16.371 -23.858  0.00  0.00    -0.380 NA
ATOM     24  C   UNL d   1      32.869  15.884 -23.553  0.00  0.00     0.324 C 
ATOM     25  O   UNL d   1      32.815  15.820 -22.905  0.00  0.00    -0.251 OA
ATOM     26  C   UNL d   1      33.234  15.456 -23.892  0.00  0.00     0.082 C 
ENDBRANCH   1  23
TORSDOF 4
ENDMDL
