MODEL 1
REMARK VINA RESULT:      -3.5      0.000      0.000
REMARK  6 active torsions:
REMARK  status: ('A' for Active; 'I' for Inactive)
REMARK    1  A    between atoms: C_3  and  C_4 
REMARK    2  A    between atoms: C_9  and  O_18 
REMARK    3  A    between atoms: O_17  and  C_10 
REMARK    4  A    between atoms: C_21  and  O_17 
REMARK    5  A    between atoms: O_18  and  C_20 
REMARK    6  A    between atoms: C_20  and  C_21 
ROOT
ATOM      1  N   UNL d   1      31.921  23.642 -20.386  0.00  0.00    -0.191 NA
ATOM      2  C   UNL d   1      32.180  22.949 -20.702  0.00  0.00     0.101 C 
ATOM      3  C   UNL d   1      32.444  22.241 -21.025  0.00  0.00     0.068 A 
ATOM      4  C   UNL d   1      32.974  20.822 -21.671  0.00  0.00     0.100 A 
ATOM      5  C   UNL d   1      32.882  22.245 -21.719  0.00  0.00     0.012 A 
ATOM      6  C   UNL d   1      32.269  21.528 -20.649  0.00  0.00     0.012 A 
ATOM      7  C   UNL d   1      32.534  20.817 -20.973  0.00  0.00     0.025 A 
ATOM      8  C   UNL d   1      33.148  21.534 -22.043  0.00  0.00     0.025 A 
ENDROOT
BRANCH   4   9
ATOM      9  O   UNL d   1      33.241  20.108 -21.997  0.00  0.00    -0.303 OA
BRANCH   9  10
ATOM     10  C   UNL d   1      32.781  19.717 -22.560  0.00  0.00     0.149 C 
BRANCH  10  11
ATOM     11  C   UNL d   1      32.929  18.923 -22.730  0.00  0.00     0.149 C 
BRANCH  11  12
ATOM     12  O   UNL d   1      32.872  18.644 -23.509  0.00  0.00    -0.303 OA
BRANCH  12  13
ATOM     13  C   UNL d   1      32.363  17.997 -23.694  0.00  0.00     0.100 A 
ATOM     14  C   UNL d   1      31.773  18.088 -24.265  0.00  0.00     0.025 A 
ATOM     15  C   UNL d   1      31.275  17.455 -24.445  0.00  0.00     0.005 A 
ATOM     16  C   UNL d   1      31.369  16.734 -24.054  0.00  0.00     0.039 A 
ATOM     17  C   UNL d   1      31.954  16.648 -23.489  0.00  0.00     0.005 A 
ATOM     18  C   UNL d   1      32.452  17.281 -23.309  0.00  0.00     0.025 A 
BRANCH  16  19
ATOM     19  C   UNL d   1      30.869  16.098 -24.235  0.00  0.00     0.196 C 
ATOM     20  O   UNL d   1      31.151  15.466 -24.670  0.00  0.00    -0.287 OA
ATOM     21  C   UNL d   1      30.086  16.105 -23.975  0.00  0.00     0.045 C 
ENDBRANCH  16  19
ENDBRANCH  12  13
ENDBRANCH  11  12
ENDBRANCH  10  11
ENDBRANCH   9  10
ENDBRANCH   4   9
TORSDOF 6
ENDMDL
MODEL 2
REMARK VINA RESULT:      -1.1      1.757      2.902
REMARK  6 active torsions:
REMARK  status: ('A' for Active; 'I' for Inactive)
REMARK    1  A    between atoms: C_3  and  C_4 
REMARK    2  A    between atoms: C_9  and  O_18 
REMARK    3  A    between atoms: O_17  and  C_10 
REMARK    4  A    between atoms: C_21  and  O_17 
REMARK    5  A    between atoms: O_18  and  C_20 
REMARK    6  A    between atoms: C_20  and  C_21 
ROOT
ATOM      1  N   UNL d   1      33.236  23.011 -16.918  0.00  0.00    -0.191 NA
ATOM      2  C   UNL d   1      33.138  22.952 -17.715  0.00  0.00     0.101 C 
ATOM      3  C   UNL d   1      33.037  22.892 -18.528  0.00  0.00     0.068 A 
ATOM      4  C   UNL d   1      32.837  22.770 -20.158  0.00  0.00     0.100 A 
ATOM      5  C   UNL d   1      33.079  23.563 -18.998  0.00  0.00     0.012 A 
ATOM      6  C   UNL d   1      32.895  22.154 -18.871  0.00  0.00     0.012 A 
ATOM      7  C   UNL d   1      32.794  22.093 -19.687  0.00  0.00     0.025 A 
ATOM      8  C   UNL d   1      32.979  23.503 -19.815  0.00  0.00     0.025 A 
ENDROOT
BRANCH   4   9
ATOM      9  O   UNL d   1      32.735  22.709 -20.979  0.00  0.00    -0.303 OA
BRANCH   9  10
ATOM     10  C   UNL d   1      33.222  22.206 -21.415  0.00  0.00     0.149 C 
BRANCH  10  11
ATOM     11  C   UNL d   1      32.886  21.626 -21.896  0.00  0.00     0.149 C 
BRANCH  11  12
ATOM     12  O   UNL d   1      33.241  21.423 -22.618  0.00  0.00    -0.303 OA
BRANCH  12  13
ATOM     13  C   UNL d   1      33.158  20.642 -22.929  0.00  0.00     0.100 A 
ATOM     14  C   UNL d   1      33.225  20.515 -23.742  0.00  0.00     0.025 A 
ATOM     15  C   UNL d   1      33.145  19.752 -24.046  0.00  0.00     0.005 A 
ATOM     16  C   UNL d   1      32.997  19.120 -23.536  0.00  0.00     0.039 A 
ATOM     17  C   UNL d   1      32.931  19.251 -22.731  0.00  0.00     0.005 A 
ATOM     18  C   UNL d   1      33.011  20.014 -22.427  0.00  0.00     0.025 A 
BRANCH  16  19
ATOM     19  C   UNL d   1      32.915  18.353 -23.841  0.00  0.00     0.196 C 
ATOM     20  O   UNL d   1      33.240  17.717 -23.444  0.00  0.00    -0.287 OA
ATOM     21  C   UNL d   1      32.506  18.235 -24.547  0.00  0.00     0.045 C 
ENDBRANCH  16  19
ENDBRANCH  12  13
ENDBRANCH  11  12
ENDBRANCH  10  11
ENDBRANCH   9  10
ENDBRANCH   4   9
TORSDOF 6
ENDMDL
MODEL 3
REMARK VINA RESULT:      -0.6      2.166      5.274
REMARK  6 active torsions:
REMARK  status: ('A' for Active; 'I' for Inactive)
REMARK    1  A    between atoms: C_3  and  C_4 
REMARK    2  A    between atoms: C_9  and  O_18 
REMARK    3  A    between atoms: O_17  and  C_10 
REMARK    4  A    between atoms: C_21  and  O_17 
REMARK    5  A    between atoms: O_18  and  C_20 
REMARK    6  A    between atoms: C_20  and  C_21 
ROOT
ATOM      1  N   UNL d   1      27.542  16.358 -23.145  0.00  0.00    -0.191 NA
ATOM      2  C   UNL d   1      28.306  16.443 -23.384  0.00  0.00     0.101 C 
ATOM      3  C   UNL d   1      29.085  16.531 -23.627  0.00  0.00     0.068 A 
ATOM      4  C   UNL d   1      30.648  16.707 -24.116  0.00  0.00     0.100 A 
ATOM      5  C   UNL d   1      29.267  17.034 -24.250  0.00  0.00     0.012 A 
ATOM      6  C   UNL d   1      29.685  16.112 -23.245  0.00  0.00     0.012 A 
ATOM      7  C   UNL d   1      30.468  16.200 -23.490  0.00  0.00     0.025 A 
ATOM      8  C   UNL d   1      30.050  17.122 -24.495  0.00  0.00     0.025 A 
ENDROOT
BRANCH   4   9
ATOM      9  O   UNL d   1      31.435  16.795 -24.362  0.00  0.00    -0.303 OA
BRANCH   9  10
ATOM     10  C   UNL d   1      31.812  17.524 -24.276  0.00  0.00     0.149 C 
BRANCH  10  11
ATOM     11  C   UNL d   1      32.388  17.621 -23.692  0.00  0.00     0.149 C 
BRANCH  11  12
ATOM     12  O   UNL d   1      32.975  18.201 -23.775  0.00  0.00    -0.303 OA
BRANCH  12  13
ATOM     13  C   UNL d   1      33.033  18.831 -23.217  0.00  0.00     0.100 A 
ATOM     14  C   UNL d   1      32.955  19.613 -23.470  0.00  0.00     0.025 A 
ATOM     15  C   UNL d   1      33.012  20.229 -22.925  0.00  0.00     0.005 A 
ATOM     16  C   UNL d   1      33.147  20.061 -22.128  0.00  0.00     0.039 A 
ATOM     17  C   UNL d   1      33.224  19.285 -21.881  0.00  0.00     0.005 A 
ATOM     18  C   UNL d   1      33.167  18.669 -22.427  0.00  0.00     0.025 A 
BRANCH  16  19
ATOM     19  C   UNL d   1      33.204  20.680 -21.579  0.00  0.00     0.196 C 
ATOM     20  O   UNL d   1      33.241  20.517 -20.779  0.00  0.00    -0.287 OA
ATOM     21  C   UNL d   1      33.224  21.462 -21.844  0.00  0.00     0.045 C 
ENDBRANCH  16  19
ENDBRANCH  12  13
ENDBRANCH  11  12
ENDBRANCH  10  11
ENDBRANCH   9  10
ENDBRANCH   4   9
TORSDOF 6
ENDMDL
MODEL 4
REMARK VINA RESULT:      -0.5      2.262      5.587
REMARK  6 active torsions:
REMARK  status: ('A' for Active; 'I' for Inactive)
REMARK    1  A    between atoms: C_3  and  C_4 
REMARK    2  A    between atoms: C_9  and  O_18 
REMARK    3  A    between atoms: O_17  and  C_10 
REMARK    4  A    between atoms: C_21  and  O_17 
REMARK    5  A    between atoms: O_18  and  C_20 
REMARK    6  A    between atoms: C_20  and  C_21 
ROOT
ATOM      1  N   UNL d   1      29.406  15.750 -24.841  0.00  0.00    -0.191 NA
ATOM      2  C   UNL d   1      30.020  16.216 -24.608  0.00  0.00     0.101 C 
ATOM      3  C   UNL d   1      30.645  16.691 -24.370  0.00  0.00     0.068 A 
ATOM      4  C   UNL d   1      31.900  17.645 -23.893  0.00  0.00     0.100 A 
ATOM      5  C   UNL d   1      30.498  17.427 -24.036  0.00  0.00     0.012 A 
ATOM      6  C   UNL d   1      31.422  16.428 -24.468  0.00  0.00     0.012 A 
ATOM      7  C   UNL d   1      32.050  16.906 -24.229  0.00  0.00     0.025 A 
ATOM      8  C   UNL d   1      31.127  17.905 -23.797  0.00  0.00     0.025 A 
ENDROOT
BRANCH   4   9
ATOM      9  O   UNL d   1      32.532  18.125 -23.652  0.00  0.00    -0.303 OA
BRANCH   9  10
ATOM     10  C   UNL d   1      32.706  18.202 -22.850  0.00  0.00     0.149 C 
BRANCH  10  11
ATOM     11  C   UNL d   1      33.184  18.823 -22.591  0.00  0.00     0.149 C 
BRANCH  11  12
ATOM     12  O   UNL d   1      33.050  19.596 -22.863  0.00  0.00    -0.303 OA
BRANCH  12  13
ATOM     13  C   UNL d   1      33.034  20.241 -22.320  0.00  0.00     0.100 A 
ATOM     14  C   UNL d   1      33.173  20.107 -21.517  0.00  0.00     0.025 A 
ATOM     15  C   UNL d   1      33.158  20.739 -20.987  0.00  0.00     0.005 A 
ATOM     16  C   UNL d   1      33.003  21.502 -21.260  0.00  0.00     0.039 A 
ATOM     17  C   UNL d   1      32.865  21.631 -22.056  0.00  0.00     0.005 A 
ATOM     18  C   UNL d   1      32.881  20.999 -22.587  0.00  0.00     0.025 A 
BRANCH  16  19
ATOM     19  C   UNL d   1      32.987  22.136 -20.727  0.00  0.00     0.196 C 
ATOM     20  O   UNL d   1      33.241  22.031 -19.957  0.00  0.00    -0.287 OA
ATOM     21  C   UNL d   1      32.715  22.875 -20.976  0.00  0.00     0.045 C 
ENDBRANCH  16  19
ENDBRANCH  12  13
ENDBRANCH  11  12
ENDBRANCH  10  11
ENDBRANCH   9  10
ENDBRANCH   4   9
TORSDOF 6
ENDMDL
