MODEL 1
REMARK VINA RESULT:      26.6      0.000      0.000
REMARK  3 active torsions:
REMARK  status: ('A' for Active; 'I' for Inactive)
REMARK    1  A    between atoms: C_4  and  C_1 
REMARK    2  A    between atoms: C_7  and  C_4 
REMARK    3  A    between atoms: C_10  and  C_7 
ROOT
ATOM      1  C   UNL d   1     -57.957 -98.755 -44.828  0.00  0.00     0.062 A 
ATOM      2  C   UNL d   1     -58.335 -98.756 -44.094  0.00  0.00     0.279 A 
ATOM      3  N   UNL d   1     -59.147 -98.756 -44.226  0.00  0.00    -0.208 NA
ATOM      4  C   UNL d   1     -58.537 -98.756 -45.409  0.00  0.00     0.022 A 
ATOM      5  C   UNL d   1     -59.270 -98.756 -45.043  0.00  0.00     0.085 A 
ATOM      6  O   UNL d   1     -57.967 -98.756 -43.357  0.00  0.00    -0.265 OA
ATOM      7  C   UNL d   1     -58.482 -98.755 -46.235  0.00  0.00     0.002 A 
ATOM      8  C   UNL d   1     -59.961 -98.756 -45.504  0.00  0.00     0.019 A 
ATOM      9  C   UNL d   1     -59.172 -98.756 -46.694  0.00  0.00     0.000 A 
ATOM     10  C   UNL d   1     -59.908 -98.756 -46.321  0.00  0.00     0.002 A 
ENDROOT
BRANCH   1  11
ATOM     11  C   UNL d   1     -57.144 -98.755 -44.952  0.00  0.00     0.047 C 
BRANCH  11  12
ATOM     12  C   UNL d   1     -56.792 -99.148 -44.314  0.00  0.00     0.196 C 
ATOM     13  O   UNL d   1     -57.110 -99.076 -43.561  0.00  0.00    -0.287 OA
BRANCH  12  14
ATOM     14  C   UNL d   1     -56.122 -99.611 -44.441  0.00  0.00     0.039 A 
ATOM     15  C   UNL d   1     -56.172-100.434 -44.398  0.00  0.00     0.003 A 
ATOM     16  C   UNL d   1     -55.510-100.900 -44.523  0.00  0.00     0.000 A 
ATOM     17  C   UNL d   1     -54.780-100.545 -44.695  0.00  0.00     0.000 A 
ATOM     18  C   UNL d   1     -54.729 -99.723 -44.738  0.00  0.00     0.000 A 
ATOM     19  C   UNL d   1     -55.394 -99.254 -44.612  0.00  0.00     0.003 A 
ENDBRANCH  12  14
ENDBRANCH  11  12
ENDBRANCH   1  11
TORSDOF 3
ENDMDL
