MODEL 1
REMARK VINA RESULT:      79.6      0.000      0.000
REMARK  6 active torsions:
REMARK  status: ('A' for Active; 'I' for Inactive)
REMARK    1  A    between atoms: C_21  and  C_3 
REMARK    2  A    between atoms: S_17  and  C_5 
REMARK    3  A    between atoms: C_11  and  C_16 
REMARK       I    between atoms: N_14  and  C_11 
REMARK    4  A    between atoms: C_19  and  N_14 
REMARK    5  A    between atoms: C_16  and  C_20 
REMARK    6  A    between atoms: C_20  and  S_17 
ROOT
ATOM      1  C   UNL d   1      60.124  49.698  50.352  0.00  0.00     0.092 A 
ATOM      2  C   UNL d   1      58.706  49.686  50.530  0.00  0.00     0.057 A 
ATOM      3  C   UNL d   1      59.360  49.691  50.033  0.00  0.00     0.016 A 
ATOM      4  N   UNL d   1      59.565  49.695  51.666  0.00  0.00    -0.239 NA
ATOM      5  C   UNL d   1      60.227  49.700  51.168  0.00  0.00     0.120 A 
ATOM      6  C   UNL d   1      58.809  49.688  51.347  0.00  0.00     0.081 A 
ATOM      7  C   UNL d   1      57.949  49.679  50.211  0.00  0.00     0.193 A 
ATOM      8  C   UNL d   1      60.781  49.702  49.841  0.00  0.00     0.103 C 
ATOM      9  N   UNL d   1      61.442  49.707  49.335  0.00  0.00    -0.191 NA
ATOM     10  C   UNL d   1      57.394  49.677  51.525  0.00  0.00     0.042 A 
ATOM     11  C   UNL d   1      57.291  49.674  50.709  0.00  0.00     0.019 A 
ATOM     12  C   UNL d   1      58.155  49.684  51.844  0.00  0.00    -0.003 A 
ATOM     13  O   UNL d   1      57.846  49.677  49.394  0.00  0.00    -0.287 OA
ATOM     14  C   UNL d   1      57.211  49.676  52.327  0.00  0.00     0.009 C 
ATOM     15  C   UNL d   1      56.629  49.670  51.206  0.00  0.00     0.009 C 
ENDROOT
BRANCH   3  16
ATOM     16  C   UNL d   1      59.257  49.688  49.216  0.00  0.00     0.001 C 
ATOM     17  C   UNL d   1      58.837  49.081  48.856  0.00  0.00     0.000 C 
ENDBRANCH   3  16
BRANCH   5  18
ATOM     18  S   UNL d   1      60.988  49.707  51.487  0.00  0.00    -0.067 SA
BRANCH  18  19
ATOM     19  C   UNL d   1      61.113  49.417  52.250  0.00  0.00     0.042 C 
BRANCH  19  20
ATOM     20  C   UNL d   1      61.325  48.625  52.359  0.00  0.00     0.070 C 
BRANCH  20  21
ATOM     21  C   UNL d   1      61.428  48.129  51.703  0.00  0.00     0.280 C 
ATOM     22  N   UNL d   1      61.108  47.367  51.706  0.00  0.00    -0.208 NA
ATOM     23  O   UNL d   1      61.851  48.395  51.043  0.00  0.00    -0.265 OA
BRANCH  22  24
ATOM     24  C   UNL d   1      61.211  46.871  51.049  0.00  0.00     0.085 A 
ATOM     25  C   UNL d   1      60.790  46.161  50.995  0.00  0.00     0.019 A 
ATOM     26  C   UNL d   1      60.896  45.673  50.343  0.00  0.00     0.002 A 
ATOM     27  C   UNL d   1      61.420  45.883  49.737  0.00  0.00     0.000 A 
ATOM     28  C   UNL d   1      61.839  46.589  49.791  0.00  0.00     0.002 A 
ATOM     29  C   UNL d   1      61.524  45.382  49.073  0.00  0.00     0.000 C 
ATOM     30  C   UNL d   1      61.736  47.085  50.447  0.00  0.00     0.019 A 
ENDBRANCH  22  24
ENDBRANCH  20  21
ENDBRANCH  19  20
ENDBRANCH  18  19
ENDBRANCH   5  18
TORSDOF 6
ENDMDL
