MODEL 1
REMARK VINA RESULT:      -7.1      0.000      0.000
REMARK  8 active torsions:
REMARK  status: ('A' for Active; 'I' for Inactive)
REMARK    1  A    between atoms: C_9  and  S_1 
REMARK    2  A    between atoms: N_10  and  S_1 
REMARK    3  A    between atoms: C_17  and  C_3 
REMARK    4  A    between atoms: C_4  and  N_14 
REMARK    5  A    between atoms: C_8  and  C_16 
REMARK       I    between atoms: N_11  and  C_8 
REMARK    6  A    between atoms: C_27  and  N_10 
REMARK    7  A    between atoms: C_28  and  N_10 
REMARK    8  A    between atoms: N_14  and  N_11 
ROOT
ATOM      1  N   UNL d   1      50.817  34.422  52.850  0.00  0.00     0.049 NA
ENDROOT
BRANCH   1   2
ATOM      2  C   UNL d   1      50.011  34.678  52.634  0.00  0.00     0.768 A 
ATOM      3  N   UNL d   1      49.525  35.017  53.203  0.00  0.00    -0.058 NA
ATOM      4  C   UNL d   1      48.773  35.255  52.997  0.00  0.00     0.101 A 
ATOM      5  C   UNL d   1      48.481  35.166  52.226  0.00  0.00     0.037 A 
ATOM      6  C   UNL d   1      48.995  34.819  51.666  0.00  0.00     0.101 A 
ATOM      7  C   UNL d   1      47.736  35.400  52.017  0.00  0.00     0.010 A 
ATOM      8  N   UNL d   1      49.748  34.575  51.853  0.00  0.00    -0.058 NA
ATOM      9  C   UNL d   1      48.739  34.713  50.883  0.00  0.00     0.020 A 
ATOM     10  C   UNL d   1      47.995  34.947  50.674  0.00  0.00     0.008 A 
ATOM     11  C   UNL d   1      47.464  35.307  51.258  0.00  0.00     0.035 A 
ATOM     12 BR   UNL d   1      46.680  35.558  51.053  0.00  0.00    -0.049 Br
BRANCH   4  13
ATOM     13  C   UNL d   1      48.255  35.601  53.549  0.00  0.00     0.018 A 
ATOM     14  C   UNL d   1      47.589  35.219  53.799  0.00  0.00     0.002 A 
ATOM     15  C   UNL d   1      47.074  35.574  54.354  0.00  0.00     0.000 A 
ATOM     16  C   UNL d   1      47.270  36.348  54.648  0.00  0.00     0.000 A 
ATOM     17  C   UNL d   1      47.956  36.709  54.372  0.00  0.00     0.000 A 
ATOM     18  C   UNL d   1      48.433  36.360  53.846  0.00  0.00     0.002 A 
ENDBRANCH   4  13
ENDBRANCH   1   2
BRANCH   1  19
ATOM     19  N   UNL d   1      51.406  34.987  52.995  0.00  0.00    -0.090 NA
ATOM     20  C   UNL d   1      52.169  34.762  53.166  0.00  0.00     0.297 C 
ATOM     21  O   UNL d   1      52.744  35.300  53.307  0.00  0.00    -0.264 OA
BRANCH  20  22
ATOM     22  C   UNL d   1      52.356  33.972  53.195  0.00  0.00     0.059 A 
ATOM     23  C   UNL d   1      52.546  33.585  52.489  0.00  0.00     0.006 A 
ATOM     24  C   UNL d   1      52.733  32.791  52.522  0.00  0.00     0.013 A 
ATOM     25  C   UNL d   1      52.728  32.405  53.238  0.00  0.00     0.104 A 
ATOM     26  C   UNL d   1      52.536  32.789  53.965  0.00  0.00     0.013 A 
ATOM     27  C   UNL d   1      52.348  33.594  53.918  0.00  0.00     0.006 A 
BRANCH  25  28
ATOM     28  S   UNL d   1      52.922  31.582  53.268  0.00  0.00     0.271 S 
ATOM     29  O   UNL d   1      52.210  31.382  52.895  0.00  0.00    -0.200 OA
ATOM     30  O   UNL d   1      53.650  31.737  53.647  0.00  0.00    -0.200 OA
BRANCH  28  31
ATOM     31  N   UNL d   1      53.115  30.752  53.297  0.00  0.00    -0.229 N 
BRANCH  31  32
ATOM     32  C   UNL d   1      52.855  30.237  52.716  0.00  0.00     0.092 C 
ATOM     33  C   UNL d   1      52.655  29.475  52.894  0.00  0.00     0.021 C 
ENDBRANCH  31  32
BRANCH  31  34
ATOM     34  C   UNL d   1      53.570  30.449  53.915  0.00  0.00     0.092 C 
ATOM     35  C   UNL d   1      53.341  29.753  54.294  0.00  0.00     0.021 C 
ENDBRANCH  31  34
ENDBRANCH  28  31
ENDBRANCH  25  28
ENDBRANCH  20  22
ENDBRANCH   1  19
TORSDOF 8
ENDMDL
MODEL 2
REMARK VINA RESULT:      -6.8      2.569      6.038
REMARK  8 active torsions:
REMARK  status: ('A' for Active; 'I' for Inactive)
REMARK    1  A    between atoms: C_9  and  S_1 
REMARK    2  A    between atoms: N_10  and  S_1 
REMARK    3  A    between atoms: C_17  and  C_3 
REMARK    4  A    between atoms: C_4  and  N_14 
REMARK    5  A    between atoms: C_8  and  C_16 
REMARK       I    between atoms: N_11  and  C_8 
REMARK    6  A    between atoms: C_27  and  N_10 
REMARK    7  A    between atoms: C_28  and  N_10 
REMARK    8  A    between atoms: N_14  and  N_11 
ROOT
ATOM      1  N   UNL d   1      51.290  33.544  52.579  0.00  0.00     0.049 NA
ENDROOT
BRANCH   1   2
ATOM      2  C   UNL d   1      51.860  32.972  52.909  0.00  0.00     0.768 A 
ATOM      3  N   UNL d   1      52.507  33.243  53.337  0.00  0.00    -0.058 NA
ATOM      4  C   UNL d   1      53.037  32.706  53.643  0.00  0.00     0.101 A 
ATOM      5  C   UNL d   1      52.945  31.889  53.538  0.00  0.00     0.037 A 
ATOM      6  C   UNL d   1      52.279  31.639  53.099  0.00  0.00     0.101 A 
ATOM      7  C   UNL d   1      53.468  31.353  53.840  0.00  0.00     0.010 A 
ATOM      8  N   UNL d   1      51.739  32.160  52.785  0.00  0.00    -0.058 NA
ATOM      9  C   UNL d   1      52.151  30.828  52.971  0.00  0.00     0.020 A 
ATOM     10  C   UNL d   1      52.674  30.292  53.273  0.00  0.00     0.008 A 
ATOM     11  C   UNL d   1      53.364  30.556  53.728  0.00  0.00     0.035 A 
ATOM     12 BR   UNL d   1      53.922  30.003  54.052  0.00  0.00    -0.049 Br
BRANCH   4  13
ATOM     13  C   UNL d   1      53.703  32.947  54.081  0.00  0.00     0.018 A 
ATOM     14  C   UNL d   1      53.671  33.035  54.884  0.00  0.00     0.002 A 
ATOM     15  C   UNL d   1      54.344  33.277  55.316  0.00  0.00     0.000 A 
ATOM     16  C   UNL d   1      55.064  33.429  54.889  0.00  0.00     0.000 A 
ATOM     17  C   UNL d   1      55.063  33.330  54.072  0.00  0.00     0.000 A 
ATOM     18  C   UNL d   1      54.417  33.100  53.677  0.00  0.00     0.002 A 
ENDBRANCH   4  13
ENDBRANCH   1   2
BRANCH   1  19
ATOM     19  N   UNL d   1      51.316  33.738  51.773  0.00  0.00    -0.090 NA
ATOM     20  C   UNL d   1      50.777  34.252  51.447  0.00  0.00     0.297 C 
ATOM     21  O   UNL d   1      50.796  34.445  50.672  0.00  0.00    -0.264 OA
BRANCH  20  22
ATOM     22  C   UNL d   1      50.204  34.581  51.919  0.00  0.00     0.059 A 
ATOM     23  C   UNL d   1      49.413  34.509  51.688  0.00  0.00     0.006 A 
ATOM     24  C   UNL d   1      48.839  34.841  52.165  0.00  0.00     0.013 A 
ATOM     25  C   UNL d   1      49.056  35.229  52.846  0.00  0.00     0.104 A 
ATOM     26  C   UNL d   1      49.860  35.311  53.092  0.00  0.00     0.013 A 
ATOM     27  C   UNL d   1      50.432  34.969  52.600  0.00  0.00     0.006 A 
BRANCH  25  28
ATOM     28  S   UNL d   1      48.459  35.572  53.338  0.00  0.00     0.271 S 
ATOM     29  O   UNL d   1      48.113  35.948  52.685  0.00  0.00    -0.200 OA
ATOM     30  O   UNL d   1      48.774  35.213  54.023  0.00  0.00    -0.200 OA
BRANCH  28  31
ATOM     31  N   UNL d   1      47.856  35.919  53.830  0.00  0.00    -0.229 N 
BRANCH  31  32
ATOM     32  C   UNL d   1      47.113  35.579  53.892  0.00  0.00     0.092 C 
ATOM     33  C   UNL d   1      46.449  35.990  53.689  0.00  0.00     0.021 C 
ENDBRANCH  31  32
BRANCH  31  34
ATOM     34  C   UNL d   1      48.008  36.609  54.256  0.00  0.00     0.092 C 
ATOM     35  C   UNL d   1      47.683  36.709  55.008  0.00  0.00     0.021 C 
ENDBRANCH  31  34
ENDBRANCH  28  31
ENDBRANCH  25  28
ENDBRANCH  20  22
ENDBRANCH   1  19
TORSDOF 8
ENDMDL
MODEL 3
REMARK VINA RESULT:      -5.6      1.749      2.357
REMARK  8 active torsions:
REMARK  status: ('A' for Active; 'I' for Inactive)
REMARK    1  A    between atoms: C_9  and  S_1 
REMARK    2  A    between atoms: N_10  and  S_1 
REMARK    3  A    between atoms: C_17  and  C_3 
REMARK    4  A    between atoms: C_4  and  N_14 
REMARK    5  A    between atoms: C_8  and  C_16 
REMARK       I    between atoms: N_11  and  C_8 
REMARK    6  A    between atoms: C_27  and  N_10 
REMARK    7  A    between atoms: C_28  and  N_10 
REMARK    8  A    between atoms: N_14  and  N_11 
ROOT
ATOM      1  N   UNL d   1      49.564  34.770  52.312  0.00  0.00     0.049 NA
ENDROOT
BRANCH   1   2
ATOM      2  C   UNL d   1      48.780  35.140  52.411  0.00  0.00     0.768 A 
ATOM      3  N   UNL d   1      48.524  35.357  53.161  0.00  0.00    -0.058 NA
ATOM      4  C   UNL d   1      47.791  35.702  53.249  0.00  0.00     0.101 A 
ATOM      5  C   UNL d   1      47.292  35.843  52.603  0.00  0.00     0.037 A 
ATOM      6  C   UNL d   1      47.575  35.613  51.851  0.00  0.00     0.101 A 
ATOM      7  C   UNL d   1      46.564  36.184  52.685  0.00  0.00     0.010 A 
ATOM      8  N   UNL d   1      48.304  35.267  51.743  0.00  0.00    -0.058 NA
ATOM      9  C   UNL d   1      47.104  35.736  51.178  0.00  0.00     0.020 A 
ATOM     10  C   UNL d   1      46.377  36.078  51.260  0.00  0.00     0.008 A 
ATOM     11  C   UNL d   1      46.086  36.315  52.042  0.00  0.00     0.035 A 
ATOM     12 BR   UNL d   1      45.324  36.675  52.144  0.00  0.00    -0.049 Br
BRANCH   4  13
ATOM     13  C   UNL d   1      47.502  35.934  53.994  0.00  0.00     0.018 A 
ATOM     14  C   UNL d   1      46.803  35.650  54.282  0.00  0.00     0.002 A 
ATOM     15  C   UNL d   1      46.519  35.887  55.032  0.00  0.00     0.000 A 
ATOM     16  C   UNL d   1      46.986  36.437  55.483  0.00  0.00     0.000 A 
ATOM     17  C   UNL d   1      47.693  36.707  55.161  0.00  0.00     0.000 A 
ATOM     18  C   UNL d   1      47.948  36.472  54.450  0.00  0.00     0.002 A 
ENDBRANCH   4  13
ENDBRANCH   1   2
BRANCH   1  19
ATOM     19  N   UNL d   1      49.795  34.480  51.571  0.00  0.00    -0.090 NA
ATOM     20  C   UNL d   1      50.529  34.147  51.460  0.00  0.00     0.297 C 
ATOM     21  O   UNL d   1      50.759  33.865  50.749  0.00  0.00    -0.264 OA
BRANCH  20  22
ATOM     22  C   UNL d   1      51.043  34.098  52.086  0.00  0.00     0.059 A 
ATOM     23  C   UNL d   1      51.659  34.647  52.135  0.00  0.00     0.006 A 
ATOM     24  C   UNL d   1      52.175  34.595  52.767  0.00  0.00     0.013 A 
ATOM     25  C   UNL d   1      52.071  34.012  53.324  0.00  0.00     0.104 A 
ATOM     26  C   UNL d   1      51.446  33.445  53.286  0.00  0.00     0.013 A 
ATOM     27  C   UNL d   1      50.930  33.509  52.641  0.00  0.00     0.006 A 
BRANCH  25  28
ATOM     28  S   UNL d   1      52.607  33.961  53.978  0.00  0.00     0.271 S 
ATOM     29  O   UNL d   1      52.680  34.786  54.005  0.00  0.00    -0.200 OA
ATOM     30  O   UNL d   1      52.564  33.127  53.987  0.00  0.00    -0.200 OA
BRANCH  28  31
ATOM     31  N   UNL d   1      53.147  33.913  54.635  0.00  0.00    -0.229 N 
BRANCH  31  32
ATOM     32  C   UNL d   1      53.255  34.548  55.141  0.00  0.00     0.092 C 
ATOM     33  C   UNL d   1      53.988  34.735  55.424  0.00  0.00     0.021 C 
ENDBRANCH  31  32
BRANCH  31  34
ATOM     34  C   UNL d   1      53.575  33.221  54.776  0.00  0.00     0.092 C 
ATOM     35  C   UNL d   1      54.310  33.260  55.148  0.00  0.00     0.021 C 
ENDBRANCH  31  34
ENDBRANCH  28  31
ENDBRANCH  25  28
ENDBRANCH  20  22
ENDBRANCH   1  19
TORSDOF 8
ENDMDL
