MODEL 1
REMARK VINA RESULT:     104.0      0.000      0.000
REMARK  5 active torsions:
REMARK  status: ('A' for Active; 'I' for Inactive)
REMARK    1  A    between atoms: C_11  and  C_4 
REMARK    2  A    between atoms: N_10  and  C_5 
REMARK    3  A    between atoms: C_12  and  C_8 
REMARK    4  A    between atoms: C_16  and  N_10 
REMARK    5  A    between atoms: C_17  and  C_16 
ROOT
ATOM      1  C   UNL d   1     -50.572  27.130  37.001  0.00  0.00     0.167 A 
ATOM      2  N   UNL d   1     -49.952  27.669  36.882  0.00  0.00    -0.195 N 
ATOM      3  N   UNL d   1     -50.884  26.735  36.367  0.00  0.00    -0.231 NA
ATOM      4  C   UNL d   1     -50.855  27.005  37.741  0.00  0.00     0.057 A 
ATOM      5  C   UNL d   1     -49.675  27.787  36.135  0.00  0.00     0.167 A 
ATOM      6  N   UNL d   1     -49.927  27.934  38.249  0.00  0.00    -0.161 NA
ATOM      7  C   UNL d   1     -49.985  27.393  35.496  0.00  0.00     0.054 A 
ATOM      8  C   UNL d   1     -50.601  26.857  35.614  0.00  0.00     0.063 A 
ATOM      9  C   UNL d   1     -50.533  27.406  38.365  0.00  0.00     0.124 A 
ENDROOT
BRANCH   5  10
ATOM     10  N   UNL d   1     -49.043  28.337  36.013  0.00  0.00    -0.224 NA
BRANCH  10  11
ATOM     11  C   UNL d   1     -48.385  28.489  35.511  0.00  0.00     0.120 C 
BRANCH  11  12
ATOM     12  C   UNL d   1     -47.968  29.214  35.558  0.00  0.00     0.101 A 
ATOM     13  N   UNL d   1     -47.526  29.407  36.258  0.00  0.00    -0.242 NA
ATOM     14  C   UNL d   1     -47.107  30.140  36.299  0.00  0.00     0.099 A 
ATOM     15  C   UNL d   1     -47.127  30.680  35.647  0.00  0.00     0.021 A 
ATOM     16  C   UNL d   1     -47.573  30.479  34.947  0.00  0.00     0.003 A 
ATOM     17  C   UNL d   1     -47.987  29.752  34.909  0.00  0.00     0.021 A 
ENDBRANCH  11  12
ENDBRANCH  10  11
ENDBRANCH   5  10
BRANCH   8  18
ATOM     18  C   UNL d   1     -50.934  26.440  34.954  0.00  0.00     0.036 C 
ATOM     19  C   UNL d   1     -51.267  26.028  34.300  0.00  0.00     0.006 C 
ATOM     20  C   UNL d   1     -50.481  25.839  34.563  0.00  0.00     0.006 C 
ATOM     21  C   UNL d   1     -51.721  26.630  34.692  0.00  0.00     0.006 C 
ENDBRANCH   8  18
BRANCH   4  22
ATOM     22  C   UNL d   1     -51.461  26.477  37.858  0.00  0.00     0.005 A 
ATOM     23  C   UNL d   1     -51.313  25.744  38.187  0.00  0.00     0.001 A 
ATOM     24  C   UNL d   1     -51.910  25.225  38.301  0.00  0.00     0.011 A 
ATOM     25  C   UNL d   1     -52.680  25.416  38.092  0.00  0.00     0.058 A 
ATOM     26  C   UNL d   1     -52.833  26.134  37.768  0.00  0.00     0.011 A 
ATOM     27 CL   UNL d   1     -53.309  24.869  38.213  0.00  0.00    -0.082 Cl
ATOM     28  C   UNL d   1     -52.220  26.667  37.651  0.00  0.00     0.001 A 
ENDBRANCH   4  22
TORSDOF 5
ENDMDL
