MODEL 1
REMARK VINA RESULT:      54.7      0.000      0.000
REMARK  8 active torsions:
REMARK  status: ('A' for Active; 'I' for Inactive)
REMARK    1  A    between atoms: C_2  and  S_1 
REMARK    2  A    between atoms: N_11  and  S_1 
REMARK    3  A    between atoms: N_6  and  C_17 
REMARK    4  A    between atoms: C_21  and  N_11 
REMARK    5  A    between atoms: O_16  and  C_12 
REMARK    6  A    between atoms: C_22  and  O_16 
REMARK    7  A    between atoms: C_17  and  C_18 
REMARK    8  A    between atoms: C_18  and  C_21 
ROOT
ATOM      1  C   UNL d   1      59.603  49.497  50.424  0.00  0.00     0.105 A 
ATOM      2  C   UNL d   1      59.245  49.563  51.166  0.00  0.00     0.014 A 
ATOM      3  C   UNL d   1      58.425  49.629  51.220  0.00  0.00     0.024 A 
ATOM      4  C   UNL d   1      59.138  49.497  49.735  0.00  0.00     0.015 A 
ATOM      5  C   UNL d   1      57.953  49.629  50.541  0.00  0.00     0.100 A 
ATOM      6  C   UNL d   1      58.318  49.563  49.793  0.00  0.00     0.025 A 
ATOM      7  C   UNL d   1      59.709  49.563  51.847  0.00  0.00     0.001 A 
ATOM      8  C   UNL d   1      58.067  49.694  51.951  0.00  0.00     0.002 A 
ATOM      9  C   UNL d   1      59.343  49.630  52.586  0.00  0.00     0.000 A 
ATOM     10  C   UNL d   1      58.523  49.695  52.641  0.00  0.00     0.000 A 
ENDROOT
BRANCH   1  11
ATOM     11  S   UNL d   1      60.423  49.432  50.366  0.00  0.00     0.285 S 
ATOM     12  O   UNL d   1      60.458  49.179  51.149  0.00  0.00    -0.198 OA
ATOM     13  O   UNL d   1      60.388  49.685  49.580  0.00  0.00    -0.198 OA
BRANCH  11  14
ATOM     14  N   UNL d   1      61.243  49.366  50.307  0.00  0.00    -0.157 NA
BRANCH  14  15
ATOM     15  C   UNL d   1      61.618  48.664  50.544  0.00  0.00     0.114 C 
BRANCH  15  16
ATOM     16  C   UNL d   1      61.604  48.005  50.047  0.00  0.00     0.041 C 
BRANCH  16  17
ATOM     17  C   UNL d   1      62.164  47.405  50.135  0.00  0.00     0.083 C 
BRANCH  17  18
ATOM     18  N   UNL d   1      62.093  46.703  49.706  0.00  0.00    -0.285 N 
ATOM     19  C   UNL d   1      61.384  46.341  49.486  0.00  0.00     0.183 A 
ATOM     20  N   UNL d   1      61.573  45.653  49.065  0.00  0.00    -0.222 NA
ATOM     21  C   UNL d   1      62.395  45.593  49.027  0.00  0.00     0.120 A 
ATOM     22  C   UNL d   1      62.716  46.244  49.425  0.00  0.00     0.102 A 
ENDBRANCH  17  18
ENDBRANCH  16  17
ENDBRANCH  15  16
ENDBRANCH  14  15
ENDBRANCH  11  14
ENDBRANCH   1  11
BRANCH   5  23
ATOM     23  O   UNL d   1      57.133  49.695  50.599  0.00  0.00    -0.305 OA
BRANCH  23  24
ATOM     24  C   UNL d   1      56.660  49.400  49.999  0.00  0.00     0.123 C 
ATOM     25  C   UNL d   1      56.034  48.896  50.184  0.00  0.00     0.029 C 
ENDBRANCH  23  24
ENDBRANCH   5  23
TORSDOF 8
ENDMDL
