MODEL 1
REMARK VINA RESULT:      -5.8      0.000      0.000
REMARK  0 active torsions:
REMARK  status: ('A' for Active; 'I' for Inactive)
ROOT
ATOM      1  C   UNL d   1      57.056  -0.475  31.745  0.00  0.00     0.062 A 
ATOM      2  C   UNL d   1      57.291   0.302  31.905  0.00  0.00     0.116 A 
ATOM      3  C   UNL d   1      57.384  -0.876  31.079  0.00  0.00     0.192 A 
ATOM      4  N   UNL d   1      57.939  -0.475  30.601  0.00  0.00    -0.171 N 
ATOM      5  N   UNL d   1      57.842   0.680  31.418  0.00  0.00    -0.217 NA
ATOM      6  S   UNL d   1      56.864   0.512  32.584  0.00  0.00    -0.068 SA
ATOM      7  C   UNL d   1      56.516  -0.728  32.292  0.00  0.00     0.011 A 
ATOM      8  N   UNL d   1      57.772  -1.677  30.097  0.00  0.00    -0.022 NA
ATOM      9  N   UNL d   1      58.184  -0.988  29.976  0.00  0.00    -0.037 NA
ATOM     10  N   UNL d   1      57.278  -1.615  30.773  0.00  0.00    -0.108 NA
ATOM     11  C   UNL d   1      56.402  -0.095  32.819  0.00  0.00     0.031 A 
ATOM     12  C   UNL d   1      58.158   0.299  30.780  0.00  0.00     0.204 A 
ATOM     13  C   UNL d   1      56.020  -1.323  32.578  0.00  0.00     0.001 A 
ATOM     14  C   UNL d   1      55.866  -0.299  33.390  0.00  0.00     0.006 A 
ATOM     15  C   UNL d   1      55.633  -1.053  33.241  0.00  0.00     0.001 A 
ENDROOT
TORSDOF 0
ENDMDL
MODEL 2
REMARK VINA RESULT:      -4.4      1.273      1.560
REMARK  0 active torsions:
REMARK  status: ('A' for Active; 'I' for Inactive)
ROOT
ATOM      1  C   UNL d   1      56.777   0.387  32.763  0.00  0.00     0.062 A 
ATOM      2  C   UNL d   1      57.337   0.594  33.335  0.00  0.00     0.116 A 
ATOM      3  C   UNL d   1      57.026   0.267  31.966  0.00  0.00     0.192 A 
ATOM      4  N   UNL d   1      57.835   0.361  31.779  0.00  0.00    -0.171 N 
ATOM      5  N   UNL d   1      58.132   0.682  33.129  0.00  0.00    -0.217 NA
ATOM      6  S   UNL d   1      56.900   0.664  34.037  0.00  0.00    -0.068 SA
ATOM      7  C   UNL d   1      56.039   0.334  33.091  0.00  0.00     0.011 A 
ATOM      8  N   UNL d   1      57.205   0.036  30.673  0.00  0.00    -0.022 NA
ATOM      9  N   UNL d   1      57.945   0.213  30.955  0.00  0.00    -0.037 NA
ATOM     10  N   UNL d   1      56.636   0.067  31.289  0.00  0.00    -0.108 NA
ATOM     11  C   UNL d   1      56.129   0.511  33.899  0.00  0.00     0.031 A 
ATOM     12  C   UNL d   1      58.375   0.568  32.366  0.00  0.00     0.204 A 
ATOM     13  C   UNL d   1      55.231   0.185  33.005  0.00  0.00     0.001 A 
ATOM     14  C   UNL d   1      55.414   0.471  34.275  0.00  0.00     0.006 A 
ATOM     15  C   UNL d   1      54.864   0.270  33.725  0.00  0.00     0.001 A 
ENDROOT
TORSDOF 0
ENDMDL
MODEL 3
REMARK VINA RESULT:      -4.2      8.504      9.113
REMARK  0 active torsions:
REMARK  status: ('A' for Active; 'I' for Inactive)
ROOT
ATOM      1  C   UNL d   1      60.193  -7.874  35.332  0.00  0.00     0.062 A 
ATOM      2  C   UNL d   1      59.491  -8.134  35.683  0.00  0.00     0.116 A 
ATOM      3  C   UNL d   1      60.466  -7.092  35.486  0.00  0.00     0.192 A 
ATOM      4  N   UNL d   1      60.018  -6.600  35.991  0.00  0.00    -0.171 N 
ATOM      5  N   UNL d   1      59.062  -7.631  36.180  0.00  0.00    -0.217 NA
ATOM      6  S   UNL d   1      59.398  -8.912  35.413  0.00  0.00    -0.068 SA
ATOM      7  C   UNL d   1      60.514  -8.458  34.872  0.00  0.00     0.011 A 
ATOM      8  N   UNL d   1      61.065  -5.914  35.594  0.00  0.00    -0.022 NA
ATOM      9  N   UNL d   1      60.402  -5.851  36.057  0.00  0.00    -0.037 NA
ATOM     10  N   UNL d   1      61.111  -6.674  35.240  0.00  0.00    -0.108 NA
ATOM     11  C   UNL d   1      60.002  -9.110  34.930  0.00  0.00     0.031 A 
ATOM     12  C   UNL d   1      59.320  -6.880  36.330  0.00  0.00     0.204 A 
ATOM     13  C   UNL d   1      61.115  -8.715  34.367  0.00  0.00     0.001 A 
ATOM     14  C   UNL d   1      60.282  -9.725  34.484  0.00  0.00     0.006 A 
ATOM     15  C   UNL d   1      60.964  -9.481  34.139  0.00  0.00     0.001 A 
ENDROOT
TORSDOF 0
ENDMDL
MODEL 4
REMARK VINA RESULT:      -3.9      8.889      9.242
REMARK  0 active torsions:
REMARK  status: ('A' for Active; 'I' for Inactive)
ROOT
ATOM      1  C   UNL d   1      59.906  -8.708  34.593  0.00  0.00     0.062 A 
ATOM      2  C   UNL d   1      60.731  -8.764  34.605  0.00  0.00     0.116 A 
ATOM      3  C   UNL d   1      59.478  -9.064  33.960  0.00  0.00     0.192 A 
ATOM      4  N   UNL d   1      59.902  -9.465  33.362  0.00  0.00    -0.171 N 
ATOM      5  N   UNL d   1      61.131  -9.165  34.003  0.00  0.00    -0.217 NA
ATOM      6  S   UNL d   1      60.957  -8.358  35.292  0.00  0.00    -0.068 SA
ATOM      7  C   UNL d   1      59.639  -8.293  35.234  0.00  0.00     0.011 A 
ATOM      8  N   UNL d   1      58.624  -9.548  33.068  0.00  0.00    -0.022 NA
ATOM      9  N   UNL d   1      59.355  -9.772  32.795  0.00  0.00    -0.037 NA
ATOM     10  N   UNL d   1      58.692  -9.113  33.783  0.00  0.00    -0.108 NA
ATOM     11  C   UNL d   1      60.313  -8.076  35.670  0.00  0.00     0.031 A 
ATOM     12  C   UNL d   1      60.725  -9.508  33.394  0.00  0.00     0.204 A 
ATOM     13  C   UNL d   1      59.008  -7.979  35.665  0.00  0.00     0.001 A 
ATOM     14  C   UNL d   1      60.098  -7.655  36.327  0.00  0.00     0.006 A 
ATOM     15  C   UNL d   1      59.297  -7.597  36.322  0.00  0.00     0.001 A 
ENDROOT
TORSDOF 0
ENDMDL
MODEL 5
REMARK VINA RESULT:      -3.9      2.824      3.600
REMARK  0 active torsions:
REMARK  status: ('A' for Active; 'I' for Inactive)
ROOT
ATOM      1  C   UNL d   1      56.301   0.668  33.411  0.00  0.00     0.062 A 
ATOM      2  C   UNL d   1      56.959   0.674  33.911  0.00  0.00     0.116 A 
ATOM      3  C   UNL d   1      55.528   0.668  33.747  0.00  0.00     0.192 A 
ATOM      4  N   UNL d   1      55.450   0.675  34.579  0.00  0.00    -0.171 N 
ATOM      5  N   UNL d   1      56.861   0.681  34.731  0.00  0.00    -0.217 NA
ATOM      6  S   UNL d   1      57.610   0.672  33.397  0.00  0.00    -0.068 SA
ATOM      7  C   UNL d   1      56.531   0.662  32.635  0.00  0.00     0.011 A 
ATOM      8  N   UNL d   1      54.241   0.667  34.066  0.00  0.00    -0.022 NA
ATOM      9  N   UNL d   1      54.629   0.675  34.779  0.00  0.00    -0.037 NA
ATOM     10  N   UNL d   1      54.787   0.663  33.428  0.00  0.00    -0.108 NA
ATOM     11  C   UNL d   1      57.363   0.664  32.638  0.00  0.00     0.031 A 
ATOM     12  C   UNL d   1      56.121   0.682  35.058  0.00  0.00     0.204 A 
ATOM     13  C   UNL d   1      56.331   0.654  31.833  0.00  0.00     0.001 A 
ATOM     14  C   UNL d   1      57.645   0.659  31.879  0.00  0.00     0.006 A 
ATOM     15  C   UNL d   1      57.010   0.652  31.387  0.00  0.00     0.001 A 
ENDROOT
TORSDOF 0
ENDMDL
MODEL 6
REMARK VINA RESULT:      -3.9      2.148      3.360
REMARK  0 active torsions:
REMARK  status: ('A' for Active; 'I' for Inactive)
ROOT
ATOM      1  C   UNL d   1      58.291  -0.746  29.912  0.00  0.00     0.062 A 
ATOM      2  C   UNL d   1      58.572  -0.005  29.677  0.00  0.00     0.116 A 
ATOM      3  C   UNL d   1      57.732  -0.794  30.541  0.00  0.00     0.192 A 
ATOM      4  N   UNL d   1      57.478  -0.088  30.909  0.00  0.00    -0.171 N 
ATOM      5  N   UNL d   1      58.308   0.682  30.054  0.00  0.00    -0.217 NA
ATOM      6  S   UNL d   1      59.100  -0.170  29.059  0.00  0.00    -0.068 SA
ATOM      7  C   UNL d   1      58.625  -1.333  29.466  0.00  0.00     0.011 A 
ATOM      8  N   UNL d   1      56.860  -1.088  31.496  0.00  0.00    -0.022 NA
ATOM      9  N   UNL d   1      56.923  -0.279  31.517  0.00  0.00    -0.037 NA
ATOM     10  N   UNL d   1      57.354  -1.411  30.899  0.00  0.00    -0.108 NA
ATOM     11  C   UNL d   1      59.136  -0.956  28.929  0.00  0.00     0.031 A 
ATOM     12  C   UNL d   1      57.772   0.640  30.658  0.00  0.00     0.204 A 
ATOM     13  C   UNL d   1      58.700  -2.136  29.289  0.00  0.00     0.001 A 
ATOM     14  C   UNL d   1      59.498  -1.505  28.456  0.00  0.00     0.006 A 
ATOM     15  C   UNL d   1      59.229  -2.228  28.679  0.00  0.00     0.001 A 
ENDROOT
TORSDOF 0
ENDMDL
MODEL 7
REMARK VINA RESULT:      -3.5      9.425      9.643
REMARK  0 active torsions:
REMARK  status: ('A' for Active; 'I' for Inactive)
ROOT
ATOM      1  C   UNL d   1      59.745  -9.046  34.299  0.00  0.00     0.062 A 
ATOM      2  C   UNL d   1      60.532  -9.050  34.045  0.00  0.00     0.116 A 
ATOM      3  C   UNL d   1      59.563  -8.764  35.073  0.00  0.00     0.192 A 
ATOM      4  N   UNL d   1      60.186  -8.497  35.561  0.00  0.00    -0.171 N 
ATOM      5  N   UNL d   1      61.133  -8.781  34.544  0.00  0.00    -0.217 NA
ATOM      6  S   UNL d   1      60.499  -9.356  33.275  0.00  0.00    -0.068 SA
ATOM      7  C   UNL d   1      59.256  -9.332  33.721  0.00  0.00     0.011 A 
ATOM      8  N   UNL d   1      59.067  -8.368  36.237  0.00  0.00    -0.022 NA
ATOM      9  N   UNL d   1      59.867  -8.246  36.302  0.00  0.00    -0.037 NA
ATOM     10  N   UNL d   1      58.874  -8.687  35.485  0.00  0.00    -0.108 NA
ATOM     11  C   UNL d   1      59.745  -9.525  33.076  0.00  0.00     0.031 A 
ATOM     12  C   UNL d   1      60.964  -8.511  35.287  0.00  0.00     0.204 A 
ATOM     13  C   UNL d   1      58.495  -9.524  33.464  0.00  0.00     0.001 A 
ATOM     14  C   UNL d   1      59.301  -9.818  32.467  0.00  0.00     0.006 A 
ATOM     15  C   UNL d   1      58.534  -9.817  32.707  0.00  0.00     0.001 A 
ENDROOT
TORSDOF 0
ENDMDL
MODEL 8
REMARK VINA RESULT:      -3.1      8.579      9.192
REMARK  0 active torsions:
REMARK  status: ('A' for Active; 'I' for Inactive)
ROOT
ATOM      1  C   UNL d   1      59.978  -7.668  36.029  0.00  0.00     0.062 A 
ATOM      2  C   UNL d   1      59.188  -7.557  35.810  0.00  0.00     0.116 A 
ATOM      3  C   UNL d   1      60.274  -8.452  36.122  0.00  0.00     0.192 A 
ATOM      4  N   UNL d   1      59.758  -9.095  35.991  0.00  0.00    -0.171 N 
ATOM      5  N   UNL d   1      58.695  -8.208  35.685  0.00  0.00    -0.217 NA
ATOM      6  S   UNL d   1      59.097  -6.734  35.772  0.00  0.00    -0.068 SA
ATOM      7  C   UNL d   1      60.352  -6.955  36.120  0.00  0.00     0.011 A 
ATOM      8  N   UNL d   1      60.932  -9.586  36.321  0.00  0.00    -0.022 NA
ATOM      9  N   UNL d   1      60.180  -9.816  36.118  0.00  0.00    -0.037 NA
ATOM     10  N   UNL d   1      60.996  -8.749  36.325  0.00  0.00    -0.108 NA
ATOM     11  C   UNL d   1      59.784  -6.371  35.955  0.00  0.00     0.031 A 
ATOM     12  C   UNL d   1      58.974  -8.961  35.774  0.00  0.00     0.204 A 
ATOM     13  C   UNL d   1      61.036  -6.529  36.301  0.00  0.00     0.001 A 
ATOM     14  C   UNL d   1      60.110  -5.634  36.032  0.00  0.00     0.006 A 
ATOM     15  C   UNL d   1      60.878  -5.734  36.245  0.00  0.00     0.001 A 
ENDROOT
TORSDOF 0
ENDMDL
MODEL 9
REMARK VINA RESULT:      -3.0      2.941      3.765
REMARK  0 active torsions:
REMARK  status: ('A' for Active; 'I' for Inactive)
ROOT
ATOM      1  C   UNL d   1      59.257  -1.342  29.207  0.00  0.00     0.062 A 
ATOM      2  C   UNL d   1      59.951  -1.028  28.886  0.00  0.00     0.116 A 
ATOM      3  C   UNL d   1      59.114  -2.171  29.149  0.00  0.00     0.192 A 
ATOM      4  N   UNL d   1      59.680  -2.652  28.768  0.00  0.00    -0.171 N 
ATOM      5  N   UNL d   1      60.499  -1.522  28.512  0.00  0.00    -0.217 NA
ATOM      6  S   UNL d   1      59.904  -0.216  29.043  0.00  0.00    -0.068 SA
ATOM      7  C   UNL d   1      58.808  -0.758  29.542  0.00  0.00     0.011 A 
ATOM      8  N   UNL d   1      58.700  -3.430  29.167  0.00  0.00    -0.022 NA
ATOM      9  N   UNL d   1      59.413  -3.454  28.781  0.00  0.00    -0.037 NA
ATOM     10  N   UNL d   1      58.510  -2.645  29.396  0.00  0.00    -0.108 NA
ATOM     11  C   UNL d   1      59.228  -0.048  29.433  0.00  0.00     0.031 A 
ATOM     12  C   UNL d   1      60.365  -2.317  28.455  0.00  0.00     0.204 A 
ATOM     13  C   UNL d   1      58.124  -0.529  29.946  0.00  0.00     0.001 A 
ATOM     14  C   UNL d   1      58.818   0.572  29.753  0.00  0.00     0.006 A 
ATOM     15  C   UNL d   1      58.141   0.274  30.067  0.00  0.00     0.001 A 
ENDROOT
TORSDOF 0
ENDMDL
