MODEL 1
REMARK VINA RESULT:      -2.0      0.000      0.000
REMARK  5 active torsions:
REMARK  status: ('A' for Active; 'I' for Inactive)
REMARK    1  A    between atoms: C_6  and  C_1 
REMARK    2  A    between atoms: C_14  and  N_3 
REMARK    3  A    between atoms: O_9  and  C_6 
REMARK    4  A    between atoms: C_15  and  O_9 
REMARK    5  A    between atoms: C_16  and  C_14 
ROOT
ATOM      1  C   UNL d   1      32.758  22.307 -21.264  0.00  0.00     0.120 A 
ATOM      2  C   UNL d   1      32.853  22.884 -21.847  0.00  0.00     0.177 A 
ATOM      3  N   UNL d   1      33.013  22.499 -22.558  0.00  0.00    -0.273 N 
ATOM      4  C   UNL d   1      33.017  21.688 -22.420  0.00  0.00     0.167 A 
ATOM      5  C   UNL d   1      32.860  21.571 -21.622  0.00  0.00     0.124 A 
ATOM      6  N   UNL d   1      33.144  21.050 -22.919  0.00  0.00    -0.225 NA
ATOM      7  N   UNL d   1      32.830  20.807 -21.323  0.00  0.00    -0.241 NA
ATOM      8  C   UNL d   1      33.114  20.287 -22.619  0.00  0.00     0.101 A 
ATOM      9  C   UNL d   1      32.957  20.162 -21.821  0.00  0.00     0.099 A 
ATOM     10  N   UNL d   1      32.799  23.702 -21.744  0.00  0.00    -0.128 N 
ATOM     11  C   UNL d   1      33.241  19.650 -23.119  0.00  0.00     0.021 A 
ATOM     12  C   UNL d   1      32.928  19.398 -21.526  0.00  0.00     0.021 A 
ATOM     13  C   UNL d   1      33.211  18.875 -22.817  0.00  0.00     0.002 A 
ATOM     14  C   UNL d   1      33.055  18.761 -22.024  0.00  0.00     0.002 A 
ENDROOT
BRANCH   1  15
ATOM     15  C   UNL d   1      32.591  22.451 -20.468  0.00  0.00     0.300 C 
ATOM     16  O   UNL d   1      31.811  22.550 -20.228  0.00  0.00    -0.259 OA
BRANCH  15  17
ATOM     17  O   UNL d   1      33.203  22.496 -19.912  0.00  0.00    -0.303 OA
BRANCH  17  18
ATOM     18  C   UNL d   1      33.045  22.768 -19.161  0.00  0.00     0.102 C 
ATOM     19  C   UNL d   1      33.158  22.011 -18.849  0.00  0.00     0.030 C 
ATOM     20  C   UNL d   1      32.928  23.530 -19.461  0.00  0.00     0.030 C 
ATOM     21  C   UNL d   1      32.880  23.056 -18.390  0.00  0.00     0.030 C 
ENDBRANCH  17  18
ENDBRANCH  15  17
ENDBRANCH   1  15
BRANCH   3  22
ATOM     22  C   UNL d   1      33.145  22.860 -23.285  0.00  0.00     0.083 C 
BRANCH  22  23
ATOM     23  C   UNL d   1      32.567  23.356 -23.603  0.00  0.00     0.019 C 
ATOM     24  C   UNL d   1      32.467  23.393 -24.425  0.00  0.00     0.002 C 
ENDBRANCH  22  23
ENDBRANCH   3  22
TORSDOF 5
ENDMDL
MODEL 2
REMARK VINA RESULT:      -0.3      2.084      4.630
REMARK  5 active torsions:
REMARK  status: ('A' for Active; 'I' for Inactive)
REMARK    1  A    between atoms: C_6  and  C_1 
REMARK    2  A    between atoms: C_14  and  N_3 
REMARK    3  A    between atoms: O_9  and  C_6 
REMARK    4  A    between atoms: C_15  and  O_9 
REMARK    5  A    between atoms: C_16  and  C_14 
ROOT
ATOM      1  C   UNL d   1      32.971  19.710 -23.363  0.00  0.00     0.120 A 
ATOM      2  C   UNL d   1      33.046  19.657 -22.542  0.00  0.00     0.177 A 
ATOM      3  N   UNL d   1      33.145  20.421 -22.249  0.00  0.00    -0.273 N 
ATOM      4  C   UNL d   1      33.132  20.947 -22.883  0.00  0.00     0.167 A 
ATOM      5  C   UNL d   1      33.024  20.507 -23.568  0.00  0.00     0.124 A 
ATOM      6  N   UNL d   1      33.204  21.763 -22.916  0.00  0.00    -0.225 NA
ATOM      7  N   UNL d   1      32.989  20.889 -24.294  0.00  0.00    -0.241 NA
ATOM      8  C   UNL d   1      33.168  22.144 -23.642  0.00  0.00     0.101 A 
ATOM      9  C   UNL d   1      33.061  21.710 -24.333  0.00  0.00     0.099 A 
ATOM     10  N   UNL d   1      33.026  18.966 -22.089  0.00  0.00    -0.128 N 
ATOM     11  C   UNL d   1      33.240  22.960 -23.675  0.00  0.00     0.021 A 
ATOM     12  C   UNL d   1      33.026  22.095 -25.055  0.00  0.00     0.021 A 
ATOM     13  C   UNL d   1      33.205  23.349 -24.410  0.00  0.00     0.002 A 
ATOM     14  C   UNL d   1      33.098  22.911 -25.089  0.00  0.00     0.002 A 
ENDROOT
BRANCH   1  15
ATOM     15  C   UNL d   1      32.862  19.072 -23.877  0.00  0.00     0.300 C 
ATOM     16  O   UNL d   1      33.241  19.070 -24.607  0.00  0.00    -0.259 OA
BRANCH  15  17
ATOM     17  O   UNL d   1      32.374  18.439 -23.663  0.00  0.00    -0.303 OA
BRANCH  17  18
ATOM     18  C   UNL d   1      32.144  17.899 -24.228  0.00  0.00     0.102 C 
ATOM     19  C   UNL d   1      32.917  17.613 -24.288  0.00  0.00     0.030 C 
ATOM     20  C   UNL d   1      31.366  18.178 -24.177  0.00  0.00     0.030 C 
ATOM     21  C   UNL d   1      31.898  17.346 -24.810  0.00  0.00     0.030 C 
ENDBRANCH  17  18
ENDBRANCH  15  17
ENDBRANCH   1  15
BRANCH   3  22
ATOM     22  C   UNL d   1      33.241  20.629 -21.459  0.00  0.00     0.083 C 
BRANCH  22  23
ATOM     23  C   UNL d   1      32.577  20.821 -21.007  0.00  0.00     0.019 C 
ATOM     24  C   UNL d   1      32.646  21.376 -20.397  0.00  0.00     0.002 C 
ENDBRANCH  22  23
ENDBRANCH   3  22
TORSDOF 5
ENDMDL
MODEL 3
REMARK VINA RESULT:       0.1      4.857      6.485
REMARK  5 active torsions:
REMARK  status: ('A' for Active; 'I' for Inactive)
REMARK    1  A    between atoms: C_6  and  C_1 
REMARK    2  A    between atoms: C_14  and  N_3 
REMARK    3  A    between atoms: O_9  and  C_6 
REMARK    4  A    between atoms: C_15  and  O_9 
REMARK    5  A    between atoms: C_16  and  C_14 
ROOT
ATOM      1  C   UNL d   1      30.629  16.811 -24.034  0.00  0.00     0.120 A 
ATOM      2  C   UNL d   1      31.016  16.154 -23.717  0.00  0.00     0.177 A 
ATOM      3  N   UNL d   1      31.824  16.321 -23.705  0.00  0.00    -0.273 N 
ATOM      4  C   UNL d   1      31.938  17.076 -24.012  0.00  0.00     0.167 A 
ATOM      5  C   UNL d   1      31.201  17.377 -24.214  0.00  0.00     0.124 A 
ATOM      6  N   UNL d   1      32.618  17.520 -24.129  0.00  0.00    -0.225 NA
ATOM      7  N   UNL d   1      31.145  18.129 -24.537  0.00  0.00    -0.241 NA
ATOM      8  C   UNL d   1      32.561  18.273 -24.452  0.00  0.00     0.101 A 
ATOM      9  C   UNL d   1      31.825  18.580 -24.657  0.00  0.00     0.099 A 
ATOM     10  N   UNL d   1      30.666  15.453 -23.457  0.00  0.00    -0.128 N 
ATOM     11  C   UNL d   1      33.241  18.715 -24.569  0.00  0.00     0.021 A 
ATOM     12  C   UNL d   1      31.773  19.332 -24.979  0.00  0.00     0.021 A 
ATOM     13  C   UNL d   1      33.185  19.479 -24.897  0.00  0.00     0.002 A 
ATOM     14  C   UNL d   1      32.452  19.776 -25.097  0.00  0.00     0.002 A 
ENDROOT
BRANCH   1  15
ATOM     15  C   UNL d   1      29.813  16.879 -24.146  0.00  0.00     0.300 C 
ATOM     16  O   UNL d   1      29.467  16.558 -24.819  0.00  0.00    -0.259 OA
BRANCH  15  17
ATOM     17  O   UNL d   1      29.344  17.269 -23.586  0.00  0.00    -0.303 OA
BRANCH  17  18
ATOM     18  C   UNL d   1      28.532  17.219 -23.637  0.00  0.00     0.102 C 
ATOM     19  C   UNL d   1      28.534  17.682 -24.322  0.00  0.00     0.030 C 
ATOM     20  C   UNL d   1      28.517  16.754 -22.953  0.00  0.00     0.030 C 
ATOM     21  C   UNL d   1      27.696  17.162 -23.683  0.00  0.00     0.030 C 
ENDBRANCH  17  18
ENDBRANCH  15  17
ENDBRANCH   1  15
BRANCH   3  22
ATOM     22  C   UNL d   1      32.418  15.821 -23.434  0.00  0.00     0.083 C 
BRANCH  22  23
ATOM     23  C   UNL d   1      32.347  15.476 -22.687  0.00  0.00     0.019 C 
ATOM     24  C   UNL d   1      33.005  15.453 -22.184  0.00  0.00     0.002 C 
ENDBRANCH  22  23
ENDBRANCH   3  22
TORSDOF 5
ENDMDL
MODEL 4
REMARK VINA RESULT:       0.4      0.736      2.755
REMARK  5 active torsions:
REMARK  status: ('A' for Active; 'I' for Inactive)
REMARK    1  A    between atoms: C_6  and  C_1 
REMARK    2  A    between atoms: C_14  and  N_3 
REMARK    3  A    between atoms: O_9  and  C_6 
REMARK    4  A    between atoms: C_15  and  O_9 
REMARK    5  A    between atoms: C_16  and  C_14 
ROOT
ATOM      1  C   UNL d   1      33.030  21.949 -21.435  0.00  0.00     0.120 A 
ATOM      2  C   UNL d   1      33.088  21.128 -21.371  0.00  0.00     0.177 A 
ATOM      3  N   UNL d   1      33.165  20.822 -22.134  0.00  0.00    -0.273 N 
ATOM      4  C   UNL d   1      33.155  21.449 -22.667  0.00  0.00     0.167 A 
ATOM      5  C   UNL d   1      33.072  22.142 -22.235  0.00  0.00     0.124 A 
ATOM      6  N   UNL d   1      33.211  21.469 -23.485  0.00  0.00    -0.225 NA
ATOM      7  N   UNL d   1      33.045  22.863 -22.627  0.00  0.00    -0.241 NA
ATOM      8  C   UNL d   1      33.184  22.191 -23.876  0.00  0.00     0.101 A 
ATOM      9  C   UNL d   1      33.101  22.890 -23.449  0.00  0.00     0.099 A 
ATOM     10  N   UNL d   1      33.073  20.684 -20.675  0.00  0.00    -0.128 N 
ATOM     11  C   UNL d   1      33.240  22.210 -24.693  0.00  0.00     0.021 A 
ATOM     12  C   UNL d   1      33.074  23.607 -23.844  0.00  0.00     0.021 A 
ATOM     13  C   UNL d   1      33.213  22.941 -25.092  0.00  0.00     0.002 A 
ATOM     14  C   UNL d   1      33.130  23.629 -24.661  0.00  0.00     0.002 A 
ENDROOT
BRANCH   1  15
ATOM     15  C   UNL d   1      32.946  22.474 -20.802  0.00  0.00     0.300 C 
ATOM     16  O   UNL d   1      33.109  23.272 -20.913  0.00  0.00    -0.259 OA
BRANCH  15  17
ATOM     17  O   UNL d   1      32.699  22.202 -20.060  0.00  0.00    -0.303 OA
BRANCH  17  18
ATOM     18  C   UNL d   1      32.559  22.736 -19.462  0.00  0.00     0.102 C 
ATOM     19  C   UNL d   1      33.182  22.424 -19.019  0.00  0.00     0.030 C 
ATOM     20  C   UNL d   1      31.932  23.057 -19.897  0.00  0.00     0.030 C 
ATOM     21  C   UNL d   1      32.407  23.291 -18.850  0.00  0.00     0.030 C 
ENDBRANCH  17  18
ENDBRANCH  15  17
ENDBRANCH   1  15
BRANCH   3  22
ATOM     22  C   UNL d   1      33.239  20.027 -22.332  0.00  0.00     0.083 C 
BRANCH  22  23
ATOM     23  C   UNL d   1      32.602  19.517 -22.207  0.00  0.00     0.019 C 
ATOM     24  C   UNL d   1      32.714  18.700 -22.273  0.00  0.00     0.002 C 
ENDBRANCH  22  23
ENDBRANCH   3  22
TORSDOF 5
ENDMDL
