MODEL 1
REMARK VINA RESULT:      -7.0      0.000      0.000
REMARK  7 active torsions:
REMARK  status: ('A' for Active; 'I' for Inactive)
REMARK    1  A    between atoms: C_9  and  N_1 
REMARK    2  A    between atoms: O_18  and  C_6 
REMARK    3  A    between atoms: C_7  and  C_8 
REMARK    4  A    between atoms: C_8  and  O_12 
REMARK    5  A    between atoms: O_12  and  C_9 
REMARK    6  A    between atoms: O_20  and  C_10 
REMARK    7  A    between atoms: O_19  and  C_11 
ROOT
ATOM      1  C   UNL d   1     -47.523  13.919  22.847  0.00  0.00     0.302 C 
ATOM      2  O   UNL d   1     -47.058  14.603  22.879  0.00  0.00    -0.259 OA
ENDROOT
BRANCH   1   3
ATOM      3  C   UNL d   1     -48.332  13.976  22.689  0.00  0.00     0.068 A 
ATOM      4  C   UNL d   1     -48.725  13.342  22.299  0.00  0.00     0.032 A 
ATOM      5  C   UNL d   1     -49.525  13.416  22.152  0.00  0.00     0.118 A 
ATOM      6  C   UNL d   1     -49.946  14.087  22.374  0.00  0.00     0.138 A 
ATOM      7  C   UNL d   1     -49.550  14.701  22.755  0.00  0.00     0.118 A 
ATOM      8  C   UNL d   1     -48.745  14.643  22.911  0.00  0.00     0.032 A 
BRANCH   5   9
ATOM      9  O   UNL d   1     -49.928  12.789  21.763  0.00  0.00    -0.326 OA
ATOM     10  C   UNL d   1     -49.847  12.016  22.044  0.00  0.00     0.181 C 
ENDBRANCH   5   9
BRANCH   6  11
ATOM     11  O   UNL d   1     -50.761  14.140  22.213  0.00  0.00    -0.324 OA
ATOM     12  C   UNL d   1     -51.042  14.222  21.446  0.00  0.00     0.182 C 
ENDBRANCH   6  11
BRANCH   7  13
ATOM     13  O   UNL d   1     -49.974  15.385  22.983  0.00  0.00    -0.326 OA
ATOM     14  C   UNL d   1     -49.713  15.850  23.601  0.00  0.00     0.181 C 
ENDBRANCH   7  13
ENDBRANCH   1   3
BRANCH   1  15
ATOM     15  O   UNL d   1     -47.180  13.179  22.971  0.00  0.00    -0.251 OA
BRANCH  15  16
ATOM     16  C   UNL d   1     -46.358  13.104  22.987  0.00  0.00     0.233 C 
BRANCH  16  17
ATOM     17  N   UNL d   1     -46.012  12.370  23.153  0.00  0.00    -0.150 N 
ATOM     18  N   UNL d   1     -46.455  11.779  23.525  0.00  0.00    -0.055 NA
ATOM     19  N   UNL d   1     -46.109  11.050  23.690  0.00  0.00    -0.130 NA
ATOM     20  C   UNL d   1     -45.328  10.908  23.486  0.00  0.00     0.109 A 
ATOM     21  C   UNL d   1     -44.885  11.499  23.114  0.00  0.00     0.077 A 
ATOM     22  C   UNL d   1     -44.982  10.180  23.650  0.00  0.00     0.021 A 
ATOM     23  C   UNL d   1     -45.218  12.237  22.942  0.00  0.00     0.285 A 
ATOM     24  C   UNL d   1     -44.098  11.358  22.908  0.00  0.00     0.006 A 
ATOM     25  O   UNL d   1     -44.779  12.822  22.573  0.00  0.00    -0.265 OA
ATOM     26  C   UNL d   1     -43.753  10.629  23.072  0.00  0.00     0.000 A 
ATOM     27  C   UNL d   1     -44.198  10.035  23.446  0.00  0.00     0.002 A 
ENDBRANCH  16  17
ENDBRANCH  15  16
ENDBRANCH   1  15
TORSDOF 7
ENDMDL
MODEL 2
REMARK VINA RESULT:      -6.9      8.227      9.485
REMARK  7 active torsions:
REMARK  status: ('A' for Active; 'I' for Inactive)
REMARK    1  A    between atoms: C_9  and  N_1 
REMARK    2  A    between atoms: O_18  and  C_6 
REMARK    3  A    between atoms: C_7  and  C_8 
REMARK    4  A    between atoms: C_8  and  O_12 
REMARK    5  A    between atoms: O_12  and  C_9 
REMARK    6  A    between atoms: O_20  and  C_10 
REMARK    7  A    between atoms: O_19  and  C_11 
ROOT
ATOM      1  C   UNL d   1     -40.395  14.313  18.887  0.00  0.00     0.302 C 
ATOM      2  O   UNL d   1     -40.951  13.705  18.949  0.00  0.00    -0.259 OA
ENDROOT
BRANCH   1   3
ATOM      3  C   UNL d   1     -40.109  14.537  18.145  0.00  0.00     0.068 A 
ATOM      4  C   UNL d   1     -40.528  15.113  17.694  0.00  0.00     0.032 A 
ATOM      5  C   UNL d   1     -40.230  15.322  16.963  0.00  0.00     0.118 A 
ATOM      6  C   UNL d   1     -39.540  14.987  16.664  0.00  0.00     0.138 A 
ATOM      7  C   UNL d   1     -39.139  14.425  17.115  0.00  0.00     0.118 A 
ATOM      8  C   UNL d   1     -39.425  14.203  17.853  0.00  0.00     0.032 A 
BRANCH   5   9
ATOM      9  O   UNL d   1     -40.640  15.895  16.504  0.00  0.00    -0.326 OA
ATOM     10  C   UNL d   1     -41.466  15.921  16.529  0.00  0.00     0.181 C 
ENDBRANCH   5   9
BRANCH   6  11
ATOM     11  O   UNL d   1     -39.256  15.216  15.916  0.00  0.00    -0.324 OA
ATOM     12  C   UNL d   1     -38.649  15.763  15.838  0.00  0.00     0.182 C 
ENDBRANCH   6  11
BRANCH   7  13
ATOM     13  O   UNL d   1     -38.438  14.082  16.816  0.00  0.00    -0.326 OA
ATOM     14  C   UNL d   1     -38.253  13.303  16.976  0.00  0.00     0.181 C 
ENDBRANCH   7  13
ENDBRANCH   1   3
BRANCH   1  15
ATOM     15  O   UNL d   1     -40.124  14.698  19.565  0.00  0.00    -0.251 OA
BRANCH  15  16
ATOM     16  C   UNL d   1     -40.190  14.329  20.301  0.00  0.00     0.233 C 
BRANCH  16  17
ATOM     17  N   UNL d   1     -39.941  14.724  20.986  0.00  0.00    -0.150 N 
ATOM     18  N   UNL d   1     -40.162  15.510  21.112  0.00  0.00    -0.055 NA
ATOM     19  N   UNL d   1     -39.912  15.900  21.794  0.00  0.00    -0.130 NA
ATOM     20  C   UNL d   1     -39.447  15.512  22.346  0.00  0.00     0.109 A 
ATOM     21  C   UNL d   1     -39.227  14.725  22.219  0.00  0.00     0.077 A 
ATOM     22  C   UNL d   1     -39.199  15.902  23.026  0.00  0.00     0.021 A 
ATOM     23  C   UNL d   1     -39.469  14.319  21.539  0.00  0.00     0.285 A 
ATOM     24  C   UNL d   1     -38.759  14.332  22.773  0.00  0.00     0.006 A 
ATOM     25  O   UNL d   1     -39.251  13.540  21.413  0.00  0.00    -0.265 OA
ATOM     26  C   UNL d   1     -38.510  14.723  23.454  0.00  0.00     0.000 A 
ATOM     27  C   UNL d   1     -38.732  15.513  23.581  0.00  0.00     0.002 A 
ENDBRANCH  16  17
ENDBRANCH  15  16
ENDBRANCH   1  15
TORSDOF 7
ENDMDL
MODEL 3
REMARK VINA RESULT:      -5.7      1.251      1.793
REMARK  7 active torsions:
REMARK  status: ('A' for Active; 'I' for Inactive)
REMARK    1  A    between atoms: C_9  and  N_1 
REMARK    2  A    between atoms: O_18  and  C_6 
REMARK    3  A    between atoms: C_7  and  C_8 
REMARK    4  A    between atoms: C_8  and  O_12 
REMARK    5  A    between atoms: O_12  and  C_9 
REMARK    6  A    between atoms: O_20  and  C_10 
REMARK    7  A    between atoms: O_19  and  C_11 
ROOT
ATOM      1  C   UNL d   1     -48.033  12.735  23.334  0.00  0.00     0.302 C 
ATOM      2  O   UNL d   1     -48.129  11.983  23.665  0.00  0.00    -0.259 OA
ENDROOT
BRANCH   1   3
ATOM      3  C   UNL d   1     -48.687  13.230  23.234  0.00  0.00     0.068 A 
ATOM      4  C   UNL d   1     -49.459  12.940  23.412  0.00  0.00     0.032 A 
ATOM      5  C   UNL d   1     -50.093  13.444  23.307  0.00  0.00     0.118 A 
ATOM      6  C   UNL d   1     -49.994  14.214  23.035  0.00  0.00     0.138 A 
ATOM      7  C   UNL d   1     -49.235  14.485  22.864  0.00  0.00     0.118 A 
ATOM      8  C   UNL d   1     -48.585  13.992  22.964  0.00  0.00     0.032 A 
BRANCH   5   9
ATOM      9  O   UNL d   1     -50.867  13.166  23.481  0.00  0.00    -0.326 OA
ATOM     10  C   UNL d   1     -51.064  12.379  23.320  0.00  0.00     0.181 C 
ENDBRANCH   5   9
BRANCH   6  11
ATOM     11  O   UNL d   1     -50.656  14.709  22.935  0.00  0.00    -0.324 OA
ATOM     12  C   UNL d   1     -50.907  15.213  23.532  0.00  0.00     0.182 C 
ENDBRANCH   6  11
BRANCH   7  13
ATOM     13  O   UNL d   1     -49.130  15.267  22.588  0.00  0.00    -0.326 OA
ATOM     14  C   UNL d   1     -48.401  15.521  22.321  0.00  0.00     0.181 C 
ENDBRANCH   7  13
ENDBRANCH   1   3
BRANCH   1  15
ATOM     15  O   UNL d   1     -47.284  12.993  23.103  0.00  0.00    -0.251 OA
BRANCH  15  16
ATOM     16  C   UNL d   1     -46.625  12.513  23.236  0.00  0.00     0.233 C 
BRANCH  16  17
ATOM     17  N   UNL d   1     -45.925  12.645  22.813  0.00  0.00    -0.150 N 
ATOM     18  N   UNL d   1     -45.864  13.297  22.308  0.00  0.00    -0.055 NA
ATOM     19  N   UNL d   1     -45.167  13.425  21.888  0.00  0.00    -0.130 NA
ATOM     20  C   UNL d   1     -44.534  12.911  21.971  0.00  0.00     0.109 A 
ATOM     21  C   UNL d   1     -44.595  12.260  22.477  0.00  0.00     0.077 A 
ATOM     22  C   UNL d   1     -43.838  13.040  21.552  0.00  0.00     0.021 A 
ATOM     23  C   UNL d   1     -45.289  12.116  22.905  0.00  0.00     0.285 A 
ATOM     24  C   UNL d   1     -43.959  11.741  22.561  0.00  0.00     0.006 A 
ATOM     25  O   UNL d   1     -45.349  11.471  23.406  0.00  0.00    -0.265 OA
ATOM     26  C   UNL d   1     -43.262  11.871  22.142  0.00  0.00     0.000 A 
ATOM     27  C   UNL d   1     -43.201  12.525  21.633  0.00  0.00     0.002 A 
ENDBRANCH  16  17
ENDBRANCH  15  16
ENDBRANCH   1  15
TORSDOF 7
ENDMDL
MODEL 4
REMARK VINA RESULT:      -5.4      1.549      5.376
REMARK  7 active torsions:
REMARK  status: ('A' for Active; 'I' for Inactive)
REMARK    1  A    between atoms: C_9  and  N_1 
REMARK    2  A    between atoms: O_18  and  C_6 
REMARK    3  A    between atoms: C_7  and  C_8 
REMARK    4  A    between atoms: C_8  and  O_12 
REMARK    5  A    between atoms: O_12  and  C_9 
REMARK    6  A    between atoms: O_20  and  C_10 
REMARK    7  A    between atoms: O_19  and  C_11 
ROOT
ATOM      1  C   UNL d   1     -45.961  13.622  22.318  0.00  0.00     0.302 C 
ATOM      2  O   UNL d   1     -45.740  14.408  22.454  0.00  0.00    -0.259 OA
ENDROOT
BRANCH   1   3
ATOM      3  C   UNL d   1     -45.419  13.012  22.448  0.00  0.00     0.068 A 
ATOM      4  C   UNL d   1     -44.688  13.008  22.029  0.00  0.00     0.032 A 
ATOM      5  C   UNL d   1     -44.165  12.397  22.170  0.00  0.00     0.118 A 
ATOM      6  C   UNL d   1     -44.337  11.795  22.704  0.00  0.00     0.138 A 
ATOM      7  C   UNL d   1     -45.056  11.810  23.108  0.00  0.00     0.118 A 
ATOM      8  C   UNL d   1     -45.593  12.418  22.978  0.00  0.00     0.032 A 
BRANCH   5   9
ATOM      9  O   UNL d   1     -43.434  12.383  21.758  0.00  0.00    -0.326 OA
ATOM     10  C   UNL d   1     -43.198  13.046  21.323  0.00  0.00     0.181 C 
ENDBRANCH   5   9
BRANCH   6  11
ATOM     11  O   UNL d   1     -43.789  11.182  22.832  0.00  0.00    -0.324 OA
ATOM     12  C   UNL d   1     -43.980  10.399  22.679  0.00  0.00     0.182 C 
ENDBRANCH   6  11
BRANCH   7  13
ATOM     13  O   UNL d   1     -45.234  11.201  23.652  0.00  0.00    -0.326 OA
ATOM     14  C   UNL d   1     -45.986  10.885  23.693  0.00  0.00     0.181 C 
ENDBRANCH   7  13
ENDBRANCH   1   3
BRANCH   1  15
ATOM     15  O   UNL d   1     -46.722  13.446  22.053  0.00  0.00    -0.251 OA
BRANCH  15  16
ATOM     16  C   UNL d   1     -47.349  13.950  22.240  0.00  0.00     0.233 C 
BRANCH  16  17
ATOM     17  N   UNL d   1     -48.121  13.756  22.007  0.00  0.00    -0.150 N 
ATOM     18  N   UNL d   1     -48.244  13.175  21.431  0.00  0.00    -0.055 NA
ATOM     19  N   UNL d   1     -49.011  12.984  21.201  0.00  0.00    -0.130 NA
ATOM     20  C   UNL d   1     -49.652  13.366  21.540  0.00  0.00     0.109 A 
ATOM     21  C   UNL d   1     -49.529  13.947  22.115  0.00  0.00     0.077 A 
ATOM     22  C   UNL d   1     -50.418  13.175  21.309  0.00  0.00     0.021 A 
ATOM     23  C   UNL d   1     -48.764  14.151  22.358  0.00  0.00     0.285 A 
ATOM     24  C   UNL d   1     -50.172  14.333  22.458  0.00  0.00     0.006 A 
ATOM     25  O   UNL d   1     -48.641  14.726  22.928  0.00  0.00    -0.265 OA
ATOM     26  C   UNL d   1     -50.939  14.141  22.227  0.00  0.00     0.000 A 
ATOM     27  C   UNL d   1     -51.063  13.558  21.649  0.00  0.00     0.002 A 
ENDBRANCH  16  17
ENDBRANCH  15  16
ENDBRANCH   1  15
TORSDOF 7
ENDMDL
MODEL 5
REMARK VINA RESULT:      -4.8      7.897     10.095
REMARK  7 active torsions:
REMARK  status: ('A' for Active; 'I' for Inactive)
REMARK    1  A    between atoms: C_9  and  N_1 
REMARK    2  A    between atoms: O_18  and  C_6 
REMARK    3  A    between atoms: C_7  and  C_8 
REMARK    4  A    between atoms: C_8  and  O_12 
REMARK    5  A    between atoms: O_12  and  C_9 
REMARK    6  A    between atoms: O_20  and  C_10 
REMARK    7  A    between atoms: O_19  and  C_11 
ROOT
ATOM      1  C   UNL d   1     -39.930  15.316  19.028  0.00  0.00     0.302 C 
ATOM      2  O   UNL d   1     -40.440  15.908  18.758  0.00  0.00    -0.259 OA
ENDROOT
BRANCH   1   3
ATOM      3  C   UNL d   1     -39.892  15.137  19.834  0.00  0.00     0.068 A 
ATOM      4  C   UNL d   1     -39.279  15.470  20.306  0.00  0.00     0.032 A 
ATOM      5  C   UNL d   1     -39.258  15.282  21.101  0.00  0.00     0.118 A 
ATOM      6  C   UNL d   1     -39.816  14.782  21.442  0.00  0.00     0.138 A 
ATOM      7  C   UNL d   1     -40.411  14.463  20.970  0.00  0.00     0.118 A 
ATOM      8  C   UNL d   1     -40.446  14.641  20.169  0.00  0.00     0.032 A 
BRANCH   5   9
ATOM      9  O   UNL d   1     -38.651  15.609  21.581  0.00  0.00    -0.326 OA
ATOM     10  C   UNL d   1     -37.967  15.909  21.226  0.00  0.00     0.181 C 
ENDBRANCH   5   9
BRANCH   6  11
ATOM     11  O   UNL d   1     -39.774  14.605  22.255  0.00  0.00    -0.324 OA
ATOM     12  C   UNL d   1     -39.265  14.029  22.541  0.00  0.00     0.182 C 
ENDBRANCH   6  11
BRANCH   7  13
ATOM     13  O   UNL d   1     -40.979  13.955  21.313  0.00  0.00    -0.326 OA
ATOM     14  C   UNL d   1     -41.740  13.921  21.019  0.00  0.00     0.181 C 
ENDBRANCH   7  13
ENDBRANCH   1   3
BRANCH   1  15
ATOM     15  O   UNL d   1     -39.456  14.902  18.494  0.00  0.00    -0.251 OA
BRANCH  15  16
ATOM     16  C   UNL d   1     -39.280  15.234  17.758  0.00  0.00     0.233 C 
BRANCH  16  17
ATOM     17  N   UNL d   1     -38.972  14.759  17.153  0.00  0.00    -0.150 N 
ATOM     18  N   UNL d   1     -38.776  13.970  17.305  0.00  0.00    -0.055 NA
ATOM     19  N   UNL d   1     -38.470  13.501  16.702  0.00  0.00    -0.130 NA
ATOM     20  C   UNL d   1     -38.359  13.812  15.952  0.00  0.00     0.109 A 
ATOM     21  C   UNL d   1     -38.554  14.601  15.800  0.00  0.00     0.077 A 
ATOM     22  C   UNL d   1     -38.053  13.343  15.350  0.00  0.00     0.021 A 
ATOM     23  C   UNL d   1     -38.863  15.086  16.395  0.00  0.00     0.285 A 
ATOM     24  C   UNL d   1     -38.443  14.917  15.045  0.00  0.00     0.006 A 
ATOM     25  O   UNL d   1     -39.057  15.868  16.244  0.00  0.00    -0.265 OA
ATOM     26  C   UNL d   1     -38.137  14.446  14.443  0.00  0.00     0.000 A 
ATOM     27  C   UNL d   1     -37.940  13.653  14.596  0.00  0.00     0.002 A 
ENDBRANCH  16  17
ENDBRANCH  15  16
ENDBRANCH   1  15
TORSDOF 7
ENDMDL
MODEL 6
REMARK VINA RESULT:      -4.6      3.869      6.875
REMARK  7 active torsions:
REMARK  status: ('A' for Active; 'I' for Inactive)
REMARK    1  A    between atoms: C_9  and  N_1 
REMARK    2  A    between atoms: O_18  and  C_6 
REMARK    3  A    between atoms: C_7  and  C_8 
REMARK    4  A    between atoms: C_8  and  O_12 
REMARK    5  A    between atoms: O_12  and  C_9 
REMARK    6  A    between atoms: O_20  and  C_10 
REMARK    7  A    between atoms: O_19  and  C_11 
ROOT
ATOM      1  C   UNL d   1     -42.173  13.431  20.935  0.00  0.00     0.302 C 
ATOM      2  O   UNL d   1     -42.162  12.851  20.346  0.00  0.00    -0.259 OA
ENDROOT
BRANCH   1   3
ATOM      3  C   UNL d   1     -41.527  13.938  21.029  0.00  0.00     0.068 A 
ATOM      4  C   UNL d   1     -40.893  13.714  21.537  0.00  0.00     0.032 A 
ATOM      5  C   UNL d   1     -40.263  14.228  21.617  0.00  0.00     0.118 A 
ATOM      6  C   UNL d   1     -40.238  14.947  21.218  0.00  0.00     0.138 A 
ATOM      7  C   UNL d   1     -40.865  15.154  20.724  0.00  0.00     0.118 A 
ATOM      8  C   UNL d   1     -41.506  14.649  20.632  0.00  0.00     0.032 A 
BRANCH   5   9
ATOM      9  O   UNL d   1     -39.625  14.015  22.121  0.00  0.00    -0.326 OA
ATOM     10  C   UNL d   1     -39.268  13.275  22.035  0.00  0.00     0.181 C 
ENDBRANCH   5   9
BRANCH   6  11
ATOM     11  O   UNL d   1     -39.585  15.455  21.316  0.00  0.00    -0.324 OA
ATOM     12  C   UNL d   1     -39.487  15.898  22.000  0.00  0.00     0.182 C 
ENDBRANCH   6  11
BRANCH   7  13
ATOM     13  O   UNL d   1     -40.842  15.884  20.317  0.00  0.00    -0.326 OA
ATOM     14  C   UNL d   1     -40.968  15.916  19.511  0.00  0.00     0.181 C 
ENDBRANCH   7  13
ENDBRANCH   1   3
BRANCH   1  15
ATOM     15  O   UNL d   1     -42.828  13.504  21.431  0.00  0.00    -0.251 OA
BRANCH  15  16
ATOM     16  C   UNL d   1     -43.367  12.881  21.496  0.00  0.00     0.233 C 
BRANCH  16  17
ATOM     17  N   UNL d   1     -44.109  13.010  21.842  0.00  0.00    -0.150 N 
ATOM     18  N   UNL d   1     -44.484  13.741  21.755  0.00  0.00    -0.055 NA
ATOM     19  N   UNL d   1     -45.222  13.866  22.099  0.00  0.00    -0.130 NA
ATOM     20  C   UNL d   1     -45.584  13.270  22.528  0.00  0.00     0.109 A 
ATOM     21  C   UNL d   1     -45.209  12.538  22.616  0.00  0.00     0.077 A 
ATOM     22  C   UNL d   1     -46.321  13.395  22.872  0.00  0.00     0.021 A 
ATOM     23  C   UNL d   1     -44.467  12.396  22.276  0.00  0.00     0.285 A 
ATOM     24  C   UNL d   1     -45.572  11.935  23.047  0.00  0.00     0.006 A 
ATOM     25  O   UNL d   1     -44.095  11.672  22.362  0.00  0.00    -0.265 OA
ATOM     26  C   UNL d   1     -46.309  12.062  23.391  0.00  0.00     0.000 A 
ATOM     27  C   UNL d   1     -46.686  12.797  23.303  0.00  0.00     0.002 A 
ENDBRANCH  16  17
ENDBRANCH  15  16
ENDBRANCH   1  15
TORSDOF 7
ENDMDL
MODEL 7
REMARK VINA RESULT:      -4.5      3.848      5.624
REMARK  7 active torsions:
REMARK  status: ('A' for Active; 'I' for Inactive)
REMARK    1  A    between atoms: C_9  and  N_1 
REMARK    2  A    between atoms: O_18  and  C_6 
REMARK    3  A    between atoms: C_7  and  C_8 
REMARK    4  A    between atoms: C_8  and  O_12 
REMARK    5  A    between atoms: O_12  and  C_9 
REMARK    6  A    between atoms: O_20  and  C_10 
REMARK    7  A    between atoms: O_19  and  C_11 
ROOT
ATOM      1  C   UNL d   1     -43.376  12.762  21.280  0.00  0.00     0.302 C 
ATOM      2  O   UNL d   1     -43.473  12.558  20.485  0.00  0.00    -0.259 OA
ENDROOT
BRANCH   1   3
ATOM      3  C   UNL d   1     -43.957  12.563  21.833  0.00  0.00     0.068 A 
ATOM      4  C   UNL d   1     -43.852  11.883  22.319  0.00  0.00     0.032 A 
ATOM      5  C   UNL d   1     -44.437  11.701  22.859  0.00  0.00     0.118 A 
ATOM      6  C   UNL d   1     -45.114  12.162  22.936  0.00  0.00     0.138 A 
ATOM      7  C   UNL d   1     -45.205  12.825  22.454  0.00  0.00     0.118 A 
ATOM      8  C   UNL d   1     -44.626  13.022  21.905  0.00  0.00     0.032 A 
BRANCH   5   9
ATOM      9  O   UNL d   1     -44.344  11.025  23.349  0.00  0.00    -0.326 OA
ATOM     10  C   UNL d   1     -43.646  10.583  23.305  0.00  0.00     0.181 C 
ENDBRANCH   5   9
BRANCH   6  11
ATOM     11  O   UNL d   1     -45.697  11.958  23.494  0.00  0.00    -0.324 OA
ATOM     12  C   UNL d   1     -46.342  11.493  23.288  0.00  0.00     0.182 C 
ENDBRANCH   6  11
BRANCH   7  13
ATOM     13  O   UNL d   1     -45.891  13.297  22.529  0.00  0.00    -0.326 OA
ATOM     14  C   UNL d   1     -45.840  14.112  22.525  0.00  0.00     0.181 C 
ENDBRANCH   7  13
ENDBRANCH   1   3
BRANCH   1  15
ATOM     15  O   UNL d   1     -42.698  13.165  21.524  0.00  0.00    -0.251 OA
BRANCH  15  16
ATOM     16  C   UNL d   1     -42.298  13.655  20.993  0.00  0.00     0.233 C 
BRANCH  16  17
ATOM     17  N   UNL d   1     -41.527  13.909  21.164  0.00  0.00    -0.150 N 
ATOM     18  N   UNL d   1     -41.005  13.405  21.561  0.00  0.00    -0.055 NA
ATOM     19  N   UNL d   1     -40.240  13.660  21.730  0.00  0.00    -0.130 NA
ATOM     20  C   UNL d   1     -39.995  14.409  21.507  0.00  0.00     0.109 A 
ATOM     21  C   UNL d   1     -40.518  14.913  21.110  0.00  0.00     0.077 A 
ATOM     22  C   UNL d   1     -39.231  14.663  21.675  0.00  0.00     0.021 A 
ATOM     23  C   UNL d   1     -41.290  14.672  20.933  0.00  0.00     0.285 A 
ATOM     24  C   UNL d   1     -40.273  15.668  20.884  0.00  0.00     0.006 A 
ATOM     25  O   UNL d   1     -41.807  15.171  20.540  0.00  0.00    -0.265 OA
ATOM     26  C   UNL d   1     -39.508  15.922  21.053  0.00  0.00     0.000 A 
ATOM     27  C   UNL d   1     -38.984  15.415  21.452  0.00  0.00     0.002 A 
ENDBRANCH  16  17
ENDBRANCH  15  16
ENDBRANCH   1  15
TORSDOF 7
ENDMDL
MODEL 8
REMARK VINA RESULT:      -4.5      3.752      6.789
REMARK  7 active torsions:
REMARK  status: ('A' for Active; 'I' for Inactive)
REMARK    1  A    between atoms: C_9  and  N_1 
REMARK    2  A    between atoms: O_18  and  C_6 
REMARK    3  A    between atoms: C_7  and  C_8 
REMARK    4  A    between atoms: C_8  and  O_12 
REMARK    5  A    between atoms: O_12  and  C_9 
REMARK    6  A    between atoms: O_20  and  C_10 
REMARK    7  A    between atoms: O_19  and  C_11 
ROOT
ATOM      1  C   UNL d   1     -42.378  13.404  20.992  0.00  0.00     0.302 C 
ATOM      2  O   UNL d   1     -42.406  12.841  20.387  0.00  0.00    -0.259 OA
ENDROOT
BRANCH   1   3
ATOM      3  C   UNL d   1     -41.721  13.899  21.066  0.00  0.00     0.068 A 
ATOM      4  C   UNL d   1     -41.712  14.640  20.665  0.00  0.00     0.032 A 
ATOM      5  C   UNL d   1     -41.054  15.117  20.750  0.00  0.00     0.118 A 
ATOM      6  C   UNL d   1     -40.411  14.890  21.211  0.00  0.00     0.138 A 
ATOM      7  C   UNL d   1     -40.432  14.162  21.598  0.00  0.00     0.118 A 
ATOM      8  C   UNL d   1     -41.086  13.671  21.523  0.00  0.00     0.032 A 
BRANCH   5   9
ATOM      9  O   UNL d   1     -41.034  15.858  20.355  0.00  0.00    -0.326 OA
ATOM     10  C   UNL d   1     -41.343  15.922  19.590  0.00  0.00     0.181 C 
ENDBRANCH   5   9
BRANCH   6  11
ATOM     11  O   UNL d   1     -39.751  15.392  21.282  0.00  0.00    -0.324 OA
ATOM     12  C   UNL d   1     -39.682  15.921  21.906  0.00  0.00     0.182 C 
ENDBRANCH   6  11
BRANCH   7  13
ATOM     13  O   UNL d   1     -39.781  13.928  22.067  0.00  0.00    -0.326 OA
ATOM     14  C   UNL d   1     -39.232  13.394  21.782  0.00  0.00     0.181 C 
ENDBRANCH   7  13
ENDBRANCH   1   3
BRANCH   1  15
ATOM     15  O   UNL d   1     -43.005  13.472  21.524  0.00  0.00    -0.251 OA
BRANCH  15  16
ATOM     16  C   UNL d   1     -43.505  12.828  21.654  0.00  0.00     0.233 C 
BRANCH  16  17
ATOM     17  N   UNL d   1     -44.249  12.945  22.001  0.00  0.00    -0.150 N 
ATOM     18  N   UNL d   1     -44.645  13.663  21.897  0.00  0.00    -0.055 NA
ATOM     19  N   UNL d   1     -45.384  13.776  22.243  0.00  0.00    -0.130 NA
ATOM     20  C   UNL d   1     -45.727  13.181  22.690  0.00  0.00     0.109 A 
ATOM     21  C   UNL d   1     -45.330  12.463  22.795  0.00  0.00     0.077 A 
ATOM     22  C   UNL d   1     -46.465  13.295  23.035  0.00  0.00     0.021 A 
ATOM     23  C   UNL d   1     -44.587  12.333  22.453  0.00  0.00     0.285 A 
ATOM     24  C   UNL d   1     -45.674  11.862  23.244  0.00  0.00     0.006 A 
ATOM     25  O   UNL d   1     -44.194  11.622  22.557  0.00  0.00    -0.265 OA
ATOM     26  C   UNL d   1     -46.412  11.977  23.590  0.00  0.00     0.000 A 
ATOM     27  C   UNL d   1     -46.811  12.698  23.485  0.00  0.00     0.002 A 
ENDBRANCH  16  17
ENDBRANCH  15  16
ENDBRANCH   1  15
TORSDOF 7
ENDMDL
