MODEL 1
REMARK VINA RESULT:      67.5      0.000      0.000
REMARK  3 active torsions:
REMARK  status: ('A' for Active; 'I' for Inactive)
REMARK    1  A    between atoms: N_7  and  C_1 
REMARK       I    between atoms: C_11  and  N_6 
REMARK       I    between atoms: C_10  and  N_7 
REMARK    2  A    between atoms: C_17  and  C_10 
REMARK    3  A    between atoms: C_14  and  C_17 
ROOT
ATOM      1  C   UNL d   1      14.402  13.055  -0.679  0.00  0.00     0.124 A 
ATOM      2  C   UNL d   1      14.293  13.823  -0.400  0.00  0.00     0.093 A 
ATOM      3  C   UNL d   1      15.606  13.639  -0.558  0.00  0.00     0.049 A 
ATOM      4  C   UNL d   1      15.036  14.184  -0.325  0.00  0.00     0.021 A 
ATOM      5  S   UNL d   1      15.220  12.933  -0.781  0.00  0.00    -0.066 SA
ATOM      6  N   UNL d   1      16.635  14.599  -0.292  0.00  0.00    -0.272 N 
ATOM      7  C   UNL d   1      16.405  13.843  -0.543  0.00  0.00     0.089 A 
ATOM      8  C   UNL d   1      13.567  14.171  -0.224  0.00  0.00     0.103 C 
ATOM      9  C   UNL d   1      17.439  14.807  -0.275  0.00  0.00     0.265 C 
ATOM     10  N   UNL d   1      12.838  14.518  -0.049  0.00  0.00    -0.191 NA
ATOM     11  C   UNL d   1      15.259  14.936  -0.074  0.00  0.00     0.020 A 
ATOM     12  C   UNL d   1      16.062  15.145  -0.057  0.00  0.00     0.083 A 
ATOM     13  O   UNL d   1      18.013  14.260  -0.510  0.00  0.00    -0.267 OA
ATOM     14  C   UNL d   1      17.670  15.563  -0.024  0.00  0.00     0.066 C 
ENDROOT
BRANCH   1  15
ATOM     15  N   UNL d   1      13.821  12.501  -0.835  0.00  0.00    -0.201 NA
ATOM     16  C   UNL d   1      13.602  12.356  -1.612  0.00  0.00     0.280 C 
ATOM     17  O   UNL d   1      13.009  11.790  -1.775  0.00  0.00    -0.265 OA
BRANCH  16  18
ATOM     18  C   UNL d   1      13.954  12.757  -2.237  0.00  0.00     0.062 C 
BRANCH  18  19
ATOM     19  C   UNL d   1      13.661  12.684  -3.004  0.00  0.00     0.005 A 
ATOM     20  C   UNL d   1      13.464  13.366  -3.442  0.00  0.00     0.000 A 
ATOM     21  C   UNL d   1      13.170  13.282  -4.211  0.00  0.00     0.000 A 
ATOM     22  C   UNL d   1      13.565  14.110  -3.102  0.00  0.00     0.000 C 
ATOM     23  C   UNL d   1      13.069  12.540  -4.549  0.00  0.00     0.000 A 
ATOM     24  C   UNL d   1      13.264  11.865  -4.115  0.00  0.00     0.000 A 
ATOM     25  C   UNL d   1      12.778  12.462  -5.311  0.00  0.00     0.000 C 
ATOM     26  C   UNL d   1      13.560  11.932  -3.343  0.00  0.00     0.000 A 
ENDBRANCH  18  19
ENDBRANCH  16  18
ENDBRANCH   1  15
TORSDOF 3
ENDMDL
MODEL 2
REMARK VINA RESULT:      69.2      2.183      2.490
REMARK  3 active torsions:
REMARK  status: ('A' for Active; 'I' for Inactive)
REMARK    1  A    between atoms: N_7  and  C_1 
REMARK       I    between atoms: C_11  and  N_6 
REMARK       I    between atoms: C_10  and  N_7 
REMARK    2  A    between atoms: C_17  and  C_10 
REMARK    3  A    between atoms: C_14  and  C_17 
ROOT
ATOM      1  C   UNL d   1      14.735  14.045  -2.200  0.00  0.00     0.124 A 
ATOM      2  C   UNL d   1      14.728  14.658  -1.649  0.00  0.00     0.093 A 
ATOM      3  C   UNL d   1      14.904  15.207  -2.853  0.00  0.00     0.049 A 
ATOM      4  C   UNL d   1      14.833  15.375  -2.051  0.00  0.00     0.021 A 
ATOM      5  S   UNL d   1      14.844  14.380  -2.955  0.00  0.00    -0.066 SA
ATOM      6  N   UNL d   1      15.055  16.604  -3.134  0.00  0.00    -0.272 N 
ATOM      7  C   UNL d   1      15.015  15.818  -3.396  0.00  0.00     0.089 A 
ATOM      8  C   UNL d   1      14.633  14.570  -0.835  0.00  0.00     0.103 C 
ATOM      9  C   UNL d   1      15.166  17.221  -3.679  0.00  0.00     0.265 C 
ATOM     10  N   UNL d   1      14.538  14.478  -0.019  0.00  0.00    -0.191 NA
ATOM     11  C   UNL d   1      14.871  16.154  -1.785  0.00  0.00     0.020 A 
ATOM     12  C   UNL d   1      14.983  16.771  -2.328  0.00  0.00     0.083 A 
ATOM     13  O   UNL d   1      15.238  17.053  -4.484  0.00  0.00    -0.267 OA
ATOM     14  C   UNL d   1      15.206  18.007  -3.417  0.00  0.00     0.066 C 
ENDROOT
BRANCH   1  15
ATOM     15  N   UNL d   1      14.650  13.245  -2.049  0.00  0.00    -0.201 NA
ATOM     16  C   UNL d   1      14.049  12.828  -2.422  0.00  0.00     0.280 C 
ATOM     17  O   UNL d   1      13.959  12.012  -2.270  0.00  0.00    -0.265 OA
BRANCH  16  18
ATOM     18  C   UNL d   1      13.532  13.198  -2.943  0.00  0.00     0.062 C 
BRANCH  18  19
ATOM     19  C   UNL d   1      13.382  12.877  -3.687  0.00  0.00     0.005 A 
ATOM     20  C   UNL d   1      12.998  13.334  -4.269  0.00  0.00     0.000 A 
ATOM     21  C   UNL d   1      12.852  13.003  -5.014  0.00  0.00     0.000 A 
ATOM     22  C   UNL d   1      12.770  14.107  -4.093  0.00  0.00     0.000 C 
ATOM     23  C   UNL d   1      13.079  12.233  -5.187  0.00  0.00     0.000 A 
ATOM     24  C   UNL d   1      13.460  11.781  -4.611  0.00  0.00     0.000 A 
ATOM     25  C   UNL d   1      12.933  11.908  -5.926  0.00  0.00     0.000 C 
ATOM     26  C   UNL d   1      13.613  12.097  -3.860  0.00  0.00     0.000 A 
ENDBRANCH  18  19
ENDBRANCH  16  18
ENDBRANCH   1  15
TORSDOF 3
ENDMDL
