MODEL 1
REMARK VINA RESULT:      -5.6      0.000      0.000
REMARK  4 active torsions:
REMARK  status: ('A' for Active; 'I' for Inactive)
REMARK    1  A    between atoms: C_2  and  N_1 
REMARK       I    between atoms: C_3  and  N_1 
REMARK    2  A    between atoms: C_4  and  C_3 
REMARK    3  A    between atoms: C_6  and  C_4 
REMARK    4  A    between atoms: C_10  and  C_6 
ROOT
ATOM      1  N   UNL d   1     -41.808-122.652 -52.541  0.00  0.00    -0.208 NA
ATOM      2  C   UNL d   1     -41.544-123.123 -51.913  0.00  0.00     0.279 C 
ATOM      3  O   UNL d   1     -41.123-123.814 -52.073  0.00  0.00    -0.265 OA
ENDROOT
BRANCH   1   4
ATOM      4  C   UNL d   1     -41.649-122.877 -53.321  0.00  0.00     0.085 A 
ATOM      5  C   UNL d   1     -41.861-122.376 -53.929  0.00  0.00     0.021 A 
ATOM      6  C   UNL d   1     -41.706-122.592 -54.716  0.00  0.00     0.021 A 
ATOM      7  C   UNL d   1     -42.229-121.654 -53.775  0.00  0.00     0.022 A 
ATOM      8  C   UNL d   1     -41.916-122.095 -55.325  0.00  0.00     0.099 A 
ATOM      9  C   UNL d   1     -41.337-123.314 -54.870  0.00  0.00     0.002 A 
ATOM     10  N   UNL d   1     -42.281-121.381 -55.173  0.00  0.00    -0.242 NA
ATOM     11  C   UNL d   1     -42.440-121.155 -54.393  0.00  0.00     0.099 A 
ATOM     12  C   UNL d   1     -41.125-123.817 -54.249  0.00  0.00     0.002 A 
ATOM     13  C   UNL d   1     -41.284-123.592 -53.474  0.00  0.00     0.019 A 
ENDBRANCH   1   4
BRANCH   2  14
ATOM     14  C   UNL d   1     -41.698-122.905 -51.134  0.00  0.00     0.062 C 
BRANCH  14  15
ATOM     15  C   UNL d   1     -41.801-123.484 -50.559  0.00  0.00     0.005 C 
BRANCH  15  16
ATOM     16  C   UNL d   1     -42.013-123.261 -49.791  0.00  0.00     0.000 A 
ATOM     17  C   UNL d   1     -41.451-123.296 -49.186  0.00  0.00     0.000 A 
ATOM     18  C   UNL d   1     -41.656-123.075 -48.420  0.00  0.00     0.000 A 
ATOM     19  C   UNL d   1     -42.427-122.818 -48.253  0.00  0.00     0.000 A 
ATOM     20  C   UNL d   1     -42.989-122.783 -48.855  0.00  0.00     0.000 A 
ATOM     21  C   UNL d   1     -42.785-123.004 -49.624  0.00  0.00     0.000 A 
ENDBRANCH  15  16
ENDBRANCH  14  15
ENDBRANCH   2  14
TORSDOF 4
ENDMDL
MODEL 2
REMARK VINA RESULT:      -4.7      1.078      4.711
REMARK  4 active torsions:
REMARK  status: ('A' for Active; 'I' for Inactive)
REMARK    1  A    between atoms: C_2  and  N_1 
REMARK       I    between atoms: C_3  and  N_1 
REMARK    2  A    between atoms: C_4  and  C_3 
REMARK    3  A    between atoms: C_6  and  C_4 
REMARK    4  A    between atoms: C_10  and  C_6 
ROOT
ATOM      1  N   UNL d   1     -41.755-122.487 -51.450  0.00  0.00    -0.208 NA
ATOM      2  C   UNL d   1     -41.487-122.858 -52.140  0.00  0.00     0.279 C 
ATOM      3  O   UNL d   1     -41.213-123.635 -52.104  0.00  0.00    -0.265 OA
ENDROOT
BRANCH   1   4
ATOM      4  C   UNL d   1     -41.746-122.896 -50.731  0.00  0.00     0.085 A 
ATOM      5  C   UNL d   1     -42.355-122.779 -50.201  0.00  0.00     0.021 A 
ATOM      6  C   UNL d   1     -42.355-123.185 -49.476  0.00  0.00     0.021 A 
ATOM      7  C   UNL d   1     -42.973-122.261 -50.373  0.00  0.00     0.022 A 
ATOM      8  C   UNL d   1     -42.961-123.071 -48.945  0.00  0.00     0.099 A 
ATOM      9  C   UNL d   1     -41.736-123.703 -49.304  0.00  0.00     0.002 A 
ATOM     10  N   UNL d   1     -43.573-122.558 -49.115  0.00  0.00    -0.242 NA
ATOM     11  C   UNL d   1     -43.583-122.149 -49.833  0.00  0.00     0.099 A 
ATOM     12  C   UNL d   1     -41.123-123.817 -49.846  0.00  0.00     0.002 A 
ATOM     13  C   UNL d   1     -41.133-123.409 -50.561  0.00  0.00     0.019 A 
ENDBRANCH   1   4
BRANCH   2  14
ATOM     14  C   UNL d   1     -41.494-122.456 -52.859  0.00  0.00     0.062 C 
BRANCH  14  15
ATOM     15  C   UNL d   1     -41.451-122.878 -53.565  0.00  0.00     0.005 C 
BRANCH  15  16
ATOM     16  C   UNL d   1     -41.707-122.522 -54.267  0.00  0.00     0.000 A 
ATOM     17  C   UNL d   1     -41.287-122.652 -54.966  0.00  0.00     0.000 A 
ATOM     18  C   UNL d   1     -41.536-122.302 -55.668  0.00  0.00     0.000 A 
ATOM     19  C   UNL d   1     -42.211-121.817 -55.674  0.00  0.00     0.000 A 
ATOM     20  C   UNL d   1     -42.630-121.687 -54.977  0.00  0.00     0.000 A 
ATOM     21  C   UNL d   1     -42.381-122.038 -54.272  0.00  0.00     0.000 A 
ENDBRANCH  15  16
ENDBRANCH  14  15
ENDBRANCH   2  14
TORSDOF 4
ENDMDL
MODEL 3
REMARK VINA RESULT:      -3.0      0.888      1.478
REMARK  4 active torsions:
REMARK  status: ('A' for Active; 'I' for Inactive)
REMARK    1  A    between atoms: C_2  and  N_1 
REMARK       I    between atoms: C_3  and  N_1 
REMARK    2  A    between atoms: C_4  and  C_3 
REMARK    3  A    between atoms: C_6  and  C_4 
REMARK    4  A    between atoms: C_10  and  C_6 
ROOT
ATOM      1  N   UNL d   1     -41.814-122.796 -52.445  0.00  0.00    -0.208 NA
ATOM      2  C   UNL d   1     -41.909-122.421 -51.712  0.00  0.00     0.279 C 
ATOM      3  O   UNL d   1     -42.056-121.610 -51.687  0.00  0.00    -0.265 OA
ENDROOT
BRANCH   1   4
ATOM      4  C   UNL d   1     -41.867-122.356 -53.143  0.00  0.00     0.085 A 
ATOM      5  C   UNL d   1     -41.641-122.701 -53.847  0.00  0.00     0.021 A 
ATOM      6  C   UNL d   1     -41.690-122.268 -54.554  0.00  0.00     0.021 A 
ATOM      7  C   UNL d   1     -41.362-123.477 -53.869  0.00  0.00     0.022 A 
ATOM      8  C   UNL d   1     -41.465-122.609 -55.258  0.00  0.00     0.099 A 
ATOM      9  C   UNL d   1     -41.969-121.492 -54.533  0.00  0.00     0.002 A 
ATOM     10  N   UNL d   1     -41.189-123.377 -55.280  0.00  0.00    -0.242 NA
ATOM     11  C   UNL d   1     -41.136-123.817 -54.581  0.00  0.00     0.099 A 
ATOM     12  C   UNL d   1     -42.197-121.148 -53.816  0.00  0.00     0.002 A 
ATOM     13  C   UNL d   1     -42.143-121.587 -53.122  0.00  0.00     0.019 A 
ENDBRANCH   1   4
BRANCH   2  14
ATOM     14  C   UNL d   1     -41.857-122.853 -51.013  0.00  0.00     0.062 C 
BRANCH  14  15
ATOM     15  C   UNL d   1     -41.558-122.499 -50.333  0.00  0.00     0.005 C 
BRANCH  15  16
ATOM     16  C   UNL d   1     -41.736-122.823 -49.593  0.00  0.00     0.000 A 
ATOM     17  C   UNL d   1     -41.123-123.021 -49.076  0.00  0.00     0.000 A 
ATOM     18  C   UNL d   1     -41.294-123.344 -48.338  0.00  0.00     0.000 A 
ATOM     19  C   UNL d   1     -42.082-123.472 -48.113  0.00  0.00     0.000 A 
ATOM     20  C   UNL d   1     -42.694-123.276 -48.628  0.00  0.00     0.000 A 
ATOM     21  C   UNL d   1     -42.525-122.951 -49.368  0.00  0.00     0.000 A 
ENDBRANCH  15  16
ENDBRANCH  14  15
ENDBRANCH   2  14
TORSDOF 4
ENDMDL
