MODEL 1
REMARK VINA RESULT:      -4.7      0.000      0.000
REMARK  4 active torsions:
REMARK  status: ('A' for Active; 'I' for Inactive)
REMARK    1  A    between atoms: N_2  and  C_1 
REMARK    2  A    between atoms: C_4  and  C_1 
REMARK    3  A    between atoms: C_6  and  N_2 
REMARK    4  A    between atoms: O_12  and  C_7 
ROOT
ATOM      1  N   UNL d   1      56.994  -0.231  31.054  0.00  0.00    -0.235 NA
ENDROOT
BRANCH   1   2
ATOM      2  C   UNL d   1      57.732   0.115  30.920  0.00  0.00     0.136 C 
ATOM      3  S   UNL d   1      58.111   0.545  31.520  0.00  0.00    -0.057 SA
BRANCH   2   4
ATOM      4  C   UNL d   1      58.100   0.032  30.178  0.00  0.00     0.031 A 
ATOM      5  C   UNL d   1      58.129   0.682  29.654  0.00  0.00     0.023 A 
ATOM      6  C   UNL d   1      58.493   0.603  28.918  0.00  0.00     0.099 A 
ATOM      7  N   UNL d   1      58.828  -0.125  28.706  0.00  0.00    -0.242 NA
ATOM      8  C   UNL d   1      58.799  -0.768  29.225  0.00  0.00     0.099 A 
ATOM      9  C   UNL d   1      58.435  -0.690  29.961  0.00  0.00     0.023 A 
ENDBRANCH   2   4
ENDBRANCH   1   2
BRANCH   1  10
ATOM     10  C   UNL d   1      56.633  -0.144  31.790  0.00  0.00     0.082 A 
ATOM     11  C   UNL d   1      56.508  -0.814  32.258  0.00  0.00     0.021 A 
ATOM     12  C   UNL d   1      56.146  -0.734  32.999  0.00  0.00     0.026 A 
ATOM     13  C   UNL d   1      55.913   0.011  33.266  0.00  0.00     0.094 A 
ATOM     14  C   UNL d   1      56.042   0.680  32.789  0.00  0.00     0.026 A 
ATOM     15  C   UNL d   1      56.401   0.598  32.054  0.00  0.00     0.021 A 
BRANCH  13  16
ATOM     16  O   UNL d   1      55.552   0.089  34.004  0.00  0.00    -0.328 OA
ATOM     17  C   UNL d   1      54.830   0.486  34.072  0.00  0.00     0.181 C 
ENDBRANCH  13  16
ENDBRANCH   1  10
TORSDOF 4
ENDMDL
MODEL 2
REMARK VINA RESULT:      -4.5      1.829      4.171
REMARK  4 active torsions:
REMARK  status: ('A' for Active; 'I' for Inactive)
REMARK    1  A    between atoms: N_2  and  C_1 
REMARK    2  A    between atoms: C_4  and  C_1 
REMARK    3  A    between atoms: C_6  and  N_2 
REMARK    4  A    between atoms: O_12  and  C_7 
ROOT
ATOM      1  N   UNL d   1      57.023  -0.260  31.071  0.00  0.00    -0.235 NA
ENDROOT
BRANCH   1   2
ATOM      2  C   UNL d   1      57.065   0.097  31.815  0.00  0.00     0.136 C 
ATOM      3  S   UNL d   1      57.702   0.592  32.010  0.00  0.00    -0.057 SA
BRANCH   2   4
ATOM      4  C   UNL d   1      56.465  -0.040  32.374  0.00  0.00     0.031 A 
ATOM      5  C   UNL d   1      56.249  -0.823  32.569  0.00  0.00     0.023 A 
ATOM      6  C   UNL d   1      55.654  -0.962  33.123  0.00  0.00     0.099 A 
ATOM      7  N   UNL d   1      55.274  -0.319  33.483  0.00  0.00    -0.242 NA
ATOM      8  C   UNL d   1      55.488   0.456  33.290  0.00  0.00     0.099 A 
ATOM      9  C   UNL d   1      56.083   0.596  32.736  0.00  0.00     0.023 A 
ENDBRANCH   2   4
ENDBRANCH   1   2
BRANCH   1  10
ATOM     10  C   UNL d   1      57.642  -0.156  30.536  0.00  0.00     0.082 A 
ATOM     11  C   UNL d   1      58.110  -0.807  30.330  0.00  0.00     0.021 A 
ATOM     12  C   UNL d   1      58.733  -0.709  29.794  0.00  0.00     0.026 A 
ATOM     13  C   UNL d   1      58.886   0.033  29.468  0.00  0.00     0.094 A 
ATOM     14  C   UNL d   1      58.411   0.682  29.680  0.00  0.00     0.026 A 
ATOM     15  C   UNL d   1      57.792   0.584  30.213  0.00  0.00     0.021 A 
BRANCH  13  16
ATOM     16  O   UNL d   1      59.507   0.128  28.934  0.00  0.00    -0.328 OA
ATOM     17  C   UNL d   1      60.290   0.095  29.199  0.00  0.00     0.181 C 
ENDBRANCH  13  16
ENDBRANCH   1  10
TORSDOF 4
ENDMDL
