MODEL 1
REMARK VINA RESULT:      58.3      0.000      0.000
REMARK  5 active torsions:
REMARK  status: ('A' for Active; 'I' for Inactive)
REMARK    1  A    between atoms: O_5  and  C_1 
REMARK    2  A    between atoms: C_10  and  C_2 
REMARK    3  A    between atoms: C_3  and  O_5 
REMARK    4  A    between atoms: C_6  and  C_3 
REMARK    5  A    between atoms: N_11  and  C_10 
ROOT
ATOM      1  C   UNL d   1      46.079 -18.067  42.554  0.00  0.00     0.122 A 
ATOM      2  C   UNL d   1      46.039 -17.436  43.083  0.00  0.00     0.043 A 
ATOM      3  C   UNL d   1      46.269 -18.822  42.827  0.00  0.00     0.105 A 
ATOM      4  C   UNL d   1      46.419 -18.945  43.628  0.00  0.00     0.030 A 
ATOM      5  C   UNL d   1      46.378 -18.312  44.148  0.00  0.00     0.059 A 
ATOM      6  C   UNL d   1      46.190 -17.559  43.884  0.00  0.00     0.015 A 
ATOM      7  N   UNL d   1      46.307 -19.445  42.299  0.00  0.00    -0.242 NA
ATOM      8 CL   UNL d   1      46.534 -18.461  44.955  0.00  0.00    -0.082 Cl
ATOM      9  C   UNL d   1      46.606 -19.690  43.893  0.00  0.00     0.004 A 
ATOM     10  C   UNL d   1      46.497 -20.200  42.572  0.00  0.00     0.099 A 
ATOM     11  C   UNL d   1      46.647 -20.323  43.373  0.00  0.00     0.021 A 
ENDROOT
BRANCH   1  12
ATOM     12  O   UNL d   1      45.944 -17.966  41.826  0.00  0.00    -0.271 OA
BRANCH  12  13
ATOM     13  C   UNL d   1      45.251 -18.096  41.168  0.00  0.00     0.302 C 
ATOM     14  O   UNL d   1      44.415 -18.516  41.531  0.00  0.00    -0.259 OA
BRANCH  13  15
ATOM     15  C   UNL d   1      45.360 -17.875  40.383  0.00  0.00     0.091 A 
ATOM     16  C   UNL d   1      44.718 -17.581  39.943  0.00  0.00     0.145 A 
ATOM     17  F   UNL d   1      43.907 -17.485  40.260  0.00  0.00    -0.204 F 
ATOM     18  C   UNL d   1      44.831 -17.358  39.148  0.00  0.00     0.030 A 
ATOM     19  C   UNL d   1      45.583 -17.427  38.791  0.00  0.00     0.002 A 
ATOM     20  C   UNL d   1      46.221 -17.720  39.233  0.00  0.00     0.000 A 
ATOM     21  C   UNL d   1      46.107 -17.943  40.028  0.00  0.00     0.008 A 
ENDBRANCH  13  15
ENDBRANCH  12  13
ENDBRANCH   1  12
BRANCH   2  22
ATOM     22  C   UNL d   1      45.850 -16.552  42.973  0.00  0.00     0.082 C 
BRANCH  22  23
ATOM     23  N   UNL d   1      45.775 -16.070  43.633  0.00  0.00    -0.299 N 
ATOM     24  C   UNL d   1      45.089 -16.093  44.076  0.00  0.00     0.107 A 
ATOM     25  C   UNL d   1      44.999 -15.613  44.743  0.00  0.00     0.142 A 
ATOM     26  O   UNL d   1      45.608 -15.113  44.955  0.00  0.00    -0.300 OA
ATOM     27  C   UNL d   1      46.306 -15.087  44.507  0.00  0.00     0.142 A 
ATOM     28  C   UNL d   1      46.378 -15.570  43.849  0.00  0.00     0.107 A 
ENDBRANCH  22  23
ENDBRANCH   2  22
TORSDOF 5
ENDMDL
