MODEL 1
REMARK VINA RESULT:      -6.7      0.000      0.000
REMARK  1 active torsions:
REMARK  status: ('A' for Active; 'I' for Inactive)
REMARK    1  A    between atoms: C_5  and  C_8 
ROOT
ATOM      1  C   UNL d   1      56.455   0.113  32.293  0.00  0.00     0.084 A 
ATOM      2  C   UNL d   1      56.452  -0.706  32.206  0.00  0.00     0.057 A 
ATOM      3  N   UNL d   1      56.925   0.577  31.804  0.00  0.00    -0.245 NA
ATOM      4  C   UNL d   1      56.915  -1.068  31.632  0.00  0.00     0.199 A 
ATOM      5  C   UNL d   1      57.388  -0.604  31.140  0.00  0.00     0.061 A 
ATOM      6  C   UNL d   1      57.391   0.214  31.227  0.00  0.00     0.085 A 
ATOM      7  C   UNL d   1      55.517   0.007  33.362  0.00  0.00     0.073 A 
ATOM      8  C   UNL d   1      55.987   0.471  32.873  0.00  0.00     0.023 A 
ATOM      9  C   UNL d   1      55.980  -1.170  32.698  0.00  0.00     0.005 A 
ATOM     10  O   UNL d   1      56.906  -1.888  31.551  0.00  0.00    -0.286 OA
ATOM     11  C   UNL d   1      55.514  -0.816  33.274  0.00  0.00     0.004 A 
ATOM     12  C   UNL d   1      57.865   0.679  30.732  0.00  0.00     0.021 C 
ENDROOT
BRANCH   7  13
ATOM     13  C   UNL d   1      55.046   0.361  33.944  0.00  0.00     0.419 C 
ATOM     14  F   UNL d   1      54.618   0.680  34.469  0.00  0.00    -0.166 F 
ATOM     15  F   UNL d   1      55.234   0.523  34.768  0.00  0.00    -0.166 F 
ATOM     16  F   UNL d   1      54.243   0.660  33.881  0.00  0.00    -0.166 F 
ENDBRANCH   7  13
TORSDOF 1
ENDMDL
MODEL 2
REMARK VINA RESULT:      -6.3      2.390      3.266
REMARK  1 active torsions:
REMARK  status: ('A' for Active; 'I' for Inactive)
REMARK    1  A    between atoms: C_5  and  C_8 
ROOT
ATOM      1  C   UNL d   1      56.410   0.108  32.343  0.00  0.00     0.084 A 
ATOM      2  C   UNL d   1      56.356  -0.713  32.379  0.00  0.00     0.057 A 
ATOM      3  N   UNL d   1      55.989   0.572  32.875  0.00  0.00    -0.245 NA
ATOM      4  C   UNL d   1      55.883  -1.077  32.943  0.00  0.00     0.199 A 
ATOM      5  C   UNL d   1      55.459  -0.613  33.478  0.00  0.00     0.061 A 
ATOM      6  C   UNL d   1      55.513   0.207  33.442  0.00  0.00     0.085 A 
ATOM      7  C   UNL d   1      57.309   0.005  31.242  0.00  0.00     0.073 A 
ATOM      8  C   UNL d   1      56.888   0.469  31.773  0.00  0.00     0.023 A 
ATOM      9  C   UNL d   1      56.780  -1.176  31.845  0.00  0.00     0.005 A 
ATOM     10  O   UNL d   1      55.834  -1.899  32.973  0.00  0.00    -0.286 OA
ATOM     11  C   UNL d   1      57.255  -0.820  31.278  0.00  0.00     0.004 A 
ATOM     12  C   UNL d   1      55.087   0.672  33.980  0.00  0.00     0.021 C 
ENDROOT
BRANCH   7  13
ATOM     13  C   UNL d   1      57.789   0.361  30.668  0.00  0.00     0.419 C 
ATOM     14  F   UNL d   1      58.226   0.682  30.151  0.00  0.00    -0.166 F 
ATOM     15  F   UNL d   1      57.576   0.646  29.885  0.00  0.00    -0.166 F 
ATOM     16  F   UNL d   1      58.629   0.539  30.702  0.00  0.00    -0.166 F 
ENDBRANCH   7  13
TORSDOF 1
ENDMDL
MODEL 3
REMARK VINA RESULT:      -4.9      1.773      2.419
REMARK  1 active torsions:
REMARK  status: ('A' for Active; 'I' for Inactive)
REMARK    1  A    between atoms: C_5  and  C_8 
ROOT
ATOM      1  C   UNL d   1      57.510  -0.997  30.870  0.00  0.00     0.084 A 
ATOM      2  C   UNL d   1      57.737  -0.230  30.676  0.00  0.00     0.057 A 
ATOM      3  N   UNL d   1      57.792  -1.633  30.432  0.00  0.00    -0.245 NA
ATOM      4  C   UNL d   1      58.245  -0.090  30.046  0.00  0.00     0.199 A 
ATOM      5  C   UNL d   1      58.529  -0.727  29.604  0.00  0.00     0.061 A 
ATOM      6  C   UNL d   1      58.302  -1.494  29.798  0.00  0.00     0.085 A 
ATOM      7  C   UNL d   1      56.718  -0.496  31.944  0.00  0.00     0.073 A 
ATOM      8  C   UNL d   1      56.999  -1.131  31.506  0.00  0.00     0.023 A 
ATOM      9  C   UNL d   1      57.454   0.407  31.117  0.00  0.00     0.005 A 
ATOM     10  O   UNL d   1      58.467   0.681  29.857  0.00  0.00    -0.286 OA
ATOM     11  C   UNL d   1      56.946   0.276  31.749  0.00  0.00     0.004 A 
ATOM     12  C   UNL d   1      58.588  -2.133  29.354  0.00  0.00     0.021 C 
ENDROOT
BRANCH   7  13
ATOM     13  C   UNL d   1      56.205  -0.624  32.582  0.00  0.00     0.419 C 
ATOM     14  F   UNL d   1      55.740  -0.740  33.157  0.00  0.00    -0.166 F 
ATOM     15  F   UNL d   1      56.383  -0.645  33.424  0.00  0.00    -0.166 F 
ATOM     16  F   UNL d   1      55.359  -0.770  32.574  0.00  0.00    -0.166 F 
ENDBRANCH   7  13
TORSDOF 1
ENDMDL
MODEL 4
REMARK VINA RESULT:      -4.7      0.866      1.282
REMARK  1 active torsions:
REMARK  status: ('A' for Active; 'I' for Inactive)
REMARK    1  A    between atoms: C_5  and  C_8 
ROOT
ATOM      1  C   UNL d   1      57.360  -0.010  31.563  0.00  0.00     0.084 A 
ATOM      2  C   UNL d   1      57.228  -0.791  31.341  0.00  0.00     0.057 A 
ATOM      3  N   UNL d   1      57.875   0.460  31.128  0.00  0.00    -0.245 NA
ATOM      4  C   UNL d   1      57.605  -1.110  30.685  0.00  0.00     0.199 A 
ATOM      5  C   UNL d   1      58.122  -0.640  30.246  0.00  0.00     0.061 A 
ATOM      6  C   UNL d   1      58.255   0.141  30.468  0.00  0.00     0.085 A 
ATOM      7  C   UNL d   1      56.463  -0.165  32.661  0.00  0.00     0.073 A 
ATOM      8  C   UNL d   1      56.977   0.305  32.225  0.00  0.00     0.023 A 
ATOM      9  C   UNL d   1      56.712  -1.261  31.780  0.00  0.00     0.005 A 
ATOM     10  O   UNL d   1      57.467  -1.893  30.469  0.00  0.00    -0.286 OA
ATOM     11  C   UNL d   1      56.330  -0.951  32.437  0.00  0.00     0.004 A 
ATOM     12  C   UNL d   1      58.774   0.613  30.026  0.00  0.00     0.021 C 
ENDROOT
BRANCH   7  13
ATOM     13  C   UNL d   1      56.077   0.145  33.324  0.00  0.00     0.419 C 
ATOM     14  F   UNL d   1      55.729   0.425  33.926  0.00  0.00    -0.166 F 
ATOM     15  F   UNL d   1      55.255   0.385  33.409  0.00  0.00    -0.166 F 
ATOM     16  F   UNL d   1      56.394   0.310  34.106  0.00  0.00    -0.166 F 
ENDBRANCH   7  13
TORSDOF 1
ENDMDL
MODEL 5
REMARK VINA RESULT:      -4.6      2.451      3.410
REMARK  1 active torsions:
REMARK  status: ('A' for Active; 'I' for Inactive)
REMARK    1  A    between atoms: C_5  and  C_8 
ROOT
ATOM      1  C   UNL d   1      55.950   0.345  32.960  0.00  0.00     0.084 A 
ATOM      2  C   UNL d   1      56.515   0.431  33.552  0.00  0.00     0.057 A 
ATOM      3  N   UNL d   1      55.152   0.426  33.138  0.00  0.00    -0.245 NA
ATOM      4  C   UNL d   1      56.292   0.598  34.324  0.00  0.00     0.199 A 
ATOM      5  C   UNL d   1      55.491   0.679  34.506  0.00  0.00     0.061 A 
ATOM      6  C   UNL d   1      54.925   0.594  33.914  0.00  0.00     0.085 A 
ATOM      7  C   UNL d   1      56.980   0.096  32.005  0.00  0.00     0.073 A 
ATOM      8  C   UNL d   1      56.182   0.177  32.184  0.00  0.00     0.023 A 
ATOM      9  C   UNL d   1      57.316   0.349  33.371  0.00  0.00     0.005 A 
ATOM     10  O   UNL d   1      56.864   0.682  34.911  0.00  0.00    -0.286 OA
ATOM     11  C   UNL d   1      57.548   0.183  32.601  0.00  0.00     0.004 A 
ATOM     12  C   UNL d   1      54.121   0.676  34.097  0.00  0.00     0.021 C 
ENDROOT
BRANCH   7  13
ATOM     13  C   UNL d   1      57.218  -0.072  31.230  0.00  0.00     0.419 C 
ATOM     14  F   UNL d   1      57.434  -0.221  30.529  0.00  0.00    -0.166 F 
ATOM     15  F   UNL d   1      57.378  -0.835  30.866  0.00  0.00    -0.166 F 
ATOM     16  F   UNL d   1      57.370   0.471  30.583  0.00  0.00    -0.166 F 
ENDBRANCH   7  13
TORSDOF 1
ENDMDL
MODEL 6
REMARK VINA RESULT:      -4.1      8.659      9.292
REMARK  1 active torsions:
REMARK  status: ('A' for Active; 'I' for Inactive)
REMARK    1  A    between atoms: C_5  and  C_8 
ROOT
ATOM      1  C   UNL d   1      59.861  -8.251  34.870  0.00  0.00     0.084 A 
ATOM      2  C   UNL d   1      59.414  -8.661  35.426  0.00  0.00     0.057 A 
ATOM      3  N   UNL d   1      60.026  -8.593  34.141  0.00  0.00    -0.245 NA
ATOM      4  C   UNL d   1      59.128  -9.413  35.262  0.00  0.00     0.199 A 
ATOM      5  C   UNL d   1      59.292  -9.759  34.530  0.00  0.00     0.061 A 
ATOM      6  C   UNL d   1      59.739  -9.349  33.974  0.00  0.00     0.085 A 
ATOM      7  C   UNL d   1      59.982  -7.152  35.770  0.00  0.00     0.073 A 
ATOM      8  C   UNL d   1      60.146  -7.494  35.042  0.00  0.00     0.023 A 
ATOM      9  C   UNL d   1      59.250  -8.316  36.157  0.00  0.00     0.005 A 
ATOM     10  O   UNL d   1      58.681  -9.818  35.824  0.00  0.00    -0.286 OA
ATOM     11  C   UNL d   1      59.532  -7.565  36.330  0.00  0.00     0.004 A 
ATOM     12  C   UNL d   1      59.903  -9.697  33.240  0.00  0.00     0.021 C 
ENDROOT
BRANCH   7  13
ATOM     13  C   UNL d   1      60.264  -6.394  35.948  0.00  0.00     0.419 C 
ATOM     14  F   UNL d   1      60.518  -5.708  36.108  0.00  0.00    -0.166 F 
ATOM     15  F   UNL d   1      61.057  -6.153  36.181  0.00  0.00    -0.166 F 
ATOM     16  F   UNL d   1      59.842  -5.646  35.947  0.00  0.00    -0.166 F 
ENDBRANCH   7  13
TORSDOF 1
ENDMDL
