MODEL 1
REMARK VINA RESULT:      19.0      0.000      0.000
REMARK  3 active torsions:
REMARK  status: ('A' for Active; 'I' for Inactive)
REMARK    1  A    between atoms: C_7  and  N_1 
REMARK    2  A    between atoms: C_6  and  C_3 
REMARK    3  A    between atoms: O_16  and  C_13 
ROOT
ATOM      1  N   UNL d   1      59.568  49.688  50.811  0.00  0.00    -0.273 N 
ATOM      2  C   UNL d   1      60.133  49.696  50.209  0.00  0.00     0.265 A 
ATOM      3  C   UNL d   1      60.610  49.672  51.789  0.00  0.00     0.087 A 
ATOM      4  C   UNL d   1      59.807  49.676  51.601  0.00  0.00     0.089 A 
ATOM      5  C   UNL d   1      60.936  49.691  50.397  0.00  0.00     0.069 A 
ATOM      6  O   UNL d   1      59.894  49.708  49.419  0.00  0.00    -0.267 OA
ENDROOT
BRANCH   1   7
ATOM      7  C   UNL d   1      58.765  49.693  50.623  0.00  0.00     0.067 A 
ATOM      8  C   UNL d   1      58.530  49.687  49.833  0.00  0.00     0.020 A 
ATOM      9  C   UNL d   1      57.737  49.692  49.647  0.00  0.00     0.026 A 
ATOM     10  C   UNL d   1      57.163  49.702  50.247  0.00  0.00     0.094 A 
ATOM     11  C   UNL d   1      57.402  49.707  51.038  0.00  0.00     0.026 A 
ATOM     12  C   UNL d   1      58.204  49.702  51.226  0.00  0.00     0.020 A 
BRANCH  10  13
ATOM     13  O   UNL d   1      56.361  49.706  50.054  0.00  0.00    -0.328 OA
ATOM     14  C   UNL d   1      56.106  49.415  49.325  0.00  0.00     0.181 C 
ENDBRANCH  10  13
ENDBRANCH   1   7
BRANCH   3  15
ATOM     15  C   UNL d   1      61.084  49.659  52.558  0.00  0.00     0.212 C 
ATOM     16  O   UNL d   1      61.992  49.599  52.532  0.00  0.00    -0.644 OA
ATOM     17  O   UNL d   1      60.657  49.707  53.361  0.00  0.00    -0.644 OA
ENDBRANCH   3  15
TORSDOF 3
ENDMDL
MODEL 2
REMARK VINA RESULT:      20.1      0.699      3.761
REMARK  3 active torsions:
REMARK  status: ('A' for Active; 'I' for Inactive)
REMARK    1  A    between atoms: C_7  and  N_1 
REMARK    2  A    between atoms: C_6  and  C_3 
REMARK    3  A    between atoms: O_16  and  C_13 
ROOT
ATOM      1  N   UNL d   1      58.889  49.671  50.171  0.00  0.00    -0.273 N 
ATOM      2  C   UNL d   1      59.011  49.683  49.355  0.00  0.00     0.265 A 
ATOM      3  C   UNL d   1      57.476  49.647  49.960  0.00  0.00     0.087 A 
ATOM      4  C   UNL d   1      58.121  49.653  50.474  0.00  0.00     0.089 A 
ATOM      5  C   UNL d   1      58.365  49.677  48.841  0.00  0.00     0.069 A 
ATOM      6  O   UNL d   1      59.779  49.700  49.052  0.00  0.00    -0.267 OA
ENDROOT
BRANCH   1   7
ATOM      7  C   UNL d   1      59.535  49.676  50.685  0.00  0.00     0.067 A 
ATOM      8  C   UNL d   1      60.299  49.666  50.379  0.00  0.00     0.020 A 
ATOM      9  C   UNL d   1      60.937  49.671  50.886  0.00  0.00     0.026 A 
ATOM     10  C   UNL d   1      60.823  49.688  51.709  0.00  0.00     0.094 A 
ATOM     11  C   UNL d   1      60.054  49.698  52.011  0.00  0.00     0.026 A 
ATOM     12  C   UNL d   1      59.409  49.692  51.498  0.00  0.00     0.020 A 
BRANCH  10  13
ATOM     13  O   UNL d   1      61.471  49.693  52.218  0.00  0.00    -0.328 OA
ATOM     14  C   UNL d   1      61.360  49.653  53.035  0.00  0.00     0.181 C 
ENDBRANCH  10  13
ENDBRANCH   1   7
BRANCH   3  15
ATOM     15  C   UNL d   1      56.578  49.629  50.065  0.00  0.00     0.212 C 
ATOM     16  O   UNL d   1      56.036  49.580  49.335  0.00  0.00    -0.644 OA
ATOM     17  O   UNL d   1      56.213  49.660  50.899  0.00  0.00    -0.644 OA
ENDBRANCH   3  15
TORSDOF 3
ENDMDL
