MODEL 1
REMARK VINA RESULT:      -2.7      0.000      0.000
REMARK  5 active torsions:
REMARK  status: ('A' for Active; 'I' for Inactive)
REMARK    1  A    between atoms: C_4  and  S_1 
REMARK    2  A    between atoms: N_12  and  S_1 
REMARK    3  A    between atoms: N_2  and  C_17 
REMARK    4  A    between atoms: C_16  and  N_12 
REMARK    5  A    between atoms: C_17  and  C_16 
ROOT
ATOM      1  N   UNL d   1      57.072   0.069  31.691  0.00  0.00    -0.155 NA
ENDROOT
BRANCH   1   2
ATOM      2  S   UNL d   1      56.940  -0.563  32.201  0.00  0.00     0.285 S 
ATOM      3  O   UNL d   1      56.938  -1.303  32.566  0.00  0.00    -0.198 OA
ATOM      4  O   UNL d   1      57.431  -0.856  31.602  0.00  0.00    -0.198 OA
BRANCH   2   5
ATOM      5  C   UNL d   1      56.447  -0.251  32.793  0.00  0.00     0.105 A 
ATOM      6  C   UNL d   1      55.692  -0.563  32.904  0.00  0.00     0.012 A 
ATOM      7  C   UNL d   1      55.203  -0.259  33.487  0.00  0.00     0.001 A 
ATOM      8  C   UNL d   1      55.423  -1.187  32.429  0.00  0.00     0.001 C 
ATOM      9  C   UNL d   1      55.466   0.367  33.967  0.00  0.00     0.000 A 
ATOM     10  C   UNL d   1      56.228   0.675  33.848  0.00  0.00     0.001 A 
ATOM     11  C   UNL d   1      54.985   0.682  34.555  0.00  0.00     0.000 C 
ATOM     12  C   UNL d   1      56.713   0.361  33.258  0.00  0.00     0.012 A 
ATOM     13  C   UNL d   1      57.468   0.670  33.144  0.00  0.00     0.001 C 
ENDBRANCH   2   5
ENDBRANCH   1   2
BRANCH   1  14
ATOM     14  C   UNL d   1      57.628   0.007  31.085  0.00  0.00     0.131 C 
BRANCH  14  15
ATOM     15  C   UNL d   1      58.016   0.682  30.812  0.00  0.00     0.102 C 
BRANCH  15  16
ATOM     16  N   UNL d   1      58.447   0.651  30.109  0.00  0.00    -0.304 N 
ATOM     17  C   UNL d   1      58.131   0.650  29.345  0.00  0.00     0.064 A 
ATOM     18  C   UNL d   1      58.755   0.614  28.809  0.00  0.00     0.019 A 
ATOM     19  C   UNL d   1      57.330   0.679  29.153  0.00  0.00     0.019 C 
ATOM     20  C   UNL d   1      59.461   0.594  29.235  0.00  0.00     0.018 A 
ATOM     21  C   UNL d   1      59.274   0.616  30.039  0.00  0.00     0.064 A 
ATOM     22  C   UNL d   1      60.251   0.557  29.007  0.00  0.00     0.002 A 
ATOM     23  C   UNL d   1      59.865   0.602  30.609  0.00  0.00     0.018 A 
ATOM     24  C   UNL d   1      60.655   0.566  30.383  0.00  0.00     0.002 A 
ATOM     25  C   UNL d   1      60.859   0.543  29.573  0.00  0.00     0.000 A 
ENDBRANCH  15  16
ENDBRANCH  14  15
ENDBRANCH   1  14
TORSDOF 5
ENDMDL
MODEL 2
REMARK VINA RESULT:      -0.3      1.659      5.025
REMARK  5 active torsions:
REMARK  status: ('A' for Active; 'I' for Inactive)
REMARK    1  A    between atoms: C_4  and  S_1 
REMARK    2  A    between atoms: N_12  and  S_1 
REMARK    3  A    between atoms: N_2  and  C_17 
REMARK    4  A    between atoms: C_16  and  N_12 
REMARK    5  A    between atoms: C_17  and  C_16 
ROOT
ATOM      1  N   UNL d   1      58.168  -0.905  30.345  0.00  0.00    -0.155 NA
ENDROOT
BRANCH   1   2
ATOM      2  S   UNL d   1      58.241  -0.638  29.570  0.00  0.00     0.285 S 
ATOM      3  O   UNL d   1      58.125  -0.265  28.844  0.00  0.00    -0.198 OA
ATOM      4  O   UNL d   1      57.547  -0.294  29.862  0.00  0.00    -0.198 OA
BRANCH   2   5
ATOM      5  C   UNL d   1      58.941  -0.993  29.295  0.00  0.00     0.105 A 
ATOM      6  C   UNL d   1      59.624  -0.539  29.211  0.00  0.00     0.012 A 
ATOM      7  C   UNL d   1      60.316  -0.884  28.940  0.00  0.00     0.001 A 
ATOM      8  C   UNL d   1      59.616   0.269  29.398  0.00  0.00     0.001 C 
ATOM      9  C   UNL d   1      60.332  -1.693  28.751  0.00  0.00     0.000 A 
ATOM     10  C   UNL d   1      59.639  -2.143  28.839  0.00  0.00     0.001 A 
ATOM     11  C   UNL d   1      61.020  -2.052  28.478  0.00  0.00     0.000 C 
ATOM     12  C   UNL d   1      58.947  -1.785  29.112  0.00  0.00     0.012 A 
ATOM     13  C   UNL d   1      58.262  -2.235  29.198  0.00  0.00     0.001 C 
ENDBRANCH   2   5
ENDBRANCH   1   2
BRANCH   1  14
ATOM     14  C   UNL d   1      57.738  -0.469  30.898  0.00  0.00     0.131 C 
BRANCH  14  15
ATOM     15  C   UNL d   1      57.598  -0.780  31.649  0.00  0.00     0.102 C 
BRANCH  15  16
ATOM     16  N   UNL d   1      57.277  -0.300  32.239  0.00  0.00    -0.304 N 
ATOM     17  C   UNL d   1      57.632   0.373  32.563  0.00  0.00     0.064 A 
ATOM     18  C   UNL d   1      57.124   0.682  33.132  0.00  0.00     0.019 A 
ATOM     19  C   UNL d   1      58.367   0.682  32.353  0.00  0.00     0.019 C 
ATOM     20  C   UNL d   1      56.452   0.204  33.165  0.00  0.00     0.018 A 
ATOM     21  C   UNL d   1      56.544  -0.404  32.614  0.00  0.00     0.064 A 
ATOM     22  C   UNL d   1      55.766   0.234  33.619  0.00  0.00     0.002 A 
ATOM     23  C   UNL d   1      55.962  -0.975  32.516  0.00  0.00     0.018 A 
ATOM     24  C   UNL d   1      55.276  -0.946  32.969  0.00  0.00     0.002 A 
ATOM     25  C   UNL d   1      55.169  -0.337  33.530  0.00  0.00     0.000 A 
ENDBRANCH  15  16
ENDBRANCH  14  15
ENDBRANCH   1  14
TORSDOF 5
ENDMDL
