MODEL 1
REMARK VINA RESULT:      39.1      0.000      0.000
REMARK  4 active torsions:
REMARK  status: ('A' for Active; 'I' for Inactive)
REMARK    1  A    between atoms: C_7  and  C_2 
REMARK    2  A    between atoms: O_8  and  C_7 
REMARK    3  A    between atoms: C_9  and  O_8 
REMARK    4  A    between atoms: O_11  and  C_10 
ROOT
ATOM      1  C   UNL d   1     -50.886  25.499  33.493  0.00  0.00     0.161 C 
ENDROOT
BRANCH   1   2
ATOM      2  C   UNL d   1     -50.699  26.299  33.485  0.00  0.00     0.188 A 
ATOM      3  N   UNL d   1     -49.906  26.434  33.724  0.00  0.00    -0.224 NA
ATOM      4  C   UNL d   1     -49.772  27.254  33.698  0.00  0.00     0.101 A 
ATOM      5  C   UNL d   1     -50.468  27.624  33.447  0.00  0.00     0.101 A 
ATOM      6  C   UNL d   1     -49.101  27.695  33.873  0.00  0.00     0.021 A 
ATOM      7  C   UNL d   1     -50.482  28.450  33.374  0.00  0.00     0.021 A 
ATOM      8  N   UNL d   1     -51.039  27.039  33.316  0.00  0.00    -0.224 NA
ATOM      9  C   UNL d   1     -49.812  28.892  33.549  0.00  0.00     0.002 A 
ATOM     10  C   UNL d   1     -49.119  28.513  33.799  0.00  0.00     0.002 A 
ENDBRANCH   1   2
BRANCH   1  11
ATOM     11  O   UNL d   1     -51.477  25.219  33.980  0.00  0.00    -0.302 OA
BRANCH  11  12
ATOM     12  C   UNL d   1     -51.923  24.560  33.759  0.00  0.00     0.102 A 
ATOM     13  C   UNL d   1     -52.738  24.628  33.693  0.00  0.00     0.049 A 
ATOM     14  C   UNL d   1     -53.184  23.967  33.472  0.00  0.00     0.096 A 
ATOM     15  C   UNL d   1     -52.806  23.249  33.320  0.00  0.00     0.024 A 
ATOM     16  C   UNL d   1     -51.982  23.189  33.388  0.00  0.00     0.004 A 
ATOM     17  C   UNL d   1     -51.550  23.854  33.609  0.00  0.00     0.025 A 
BRANCH  14  18
ATOM     18  O   UNL d   1     -54.003  24.027  33.404  0.00  0.00    -0.328 OA
ATOM     19  C   UNL d   1     -54.467  23.341  33.429  0.00  0.00     0.181 C 
ENDBRANCH  14  18
ENDBRANCH  11  12
ENDBRANCH   1  11
TORSDOF 4
ENDMDL
