MODEL 1
REMARK VINA RESULT:      65.1      0.000      0.000
REMARK  6 active torsions:
REMARK  status: ('A' for Active; 'I' for Inactive)
REMARK    1  A    between atoms: C_11  and  C_4 
REMARK    2  A    between atoms: N_10  and  C_5 
REMARK    3  A    between atoms: C_16  and  C_9 
REMARK    4  A    between atoms: C_13  and  N_10 
REMARK    5  A    between atoms: C_14  and  C_13 
REMARK    6  A    between atoms: C_21  and  C_16 
ROOT
ATOM      1  N   UNL d   1     -54.960-101.592 -42.581  0.00  0.00    -0.195 N 
ATOM      2  C   UNL d   1     -55.051-101.139 -43.265  0.00  0.00     0.167 A 
ATOM      3  N   UNL d   1     -54.720-100.426 -41.841  0.00  0.00    -0.163 NA
ATOM      4  C   UNL d   1     -54.976-100.344 -43.230  0.00  0.00     0.055 A 
ATOM      5  C   UNL d   1     -55.039-102.391 -42.638  0.00  0.00     0.167 A 
ATOM      6  C   UNL d   1     -54.811 -99.973 -42.525  0.00  0.00     0.104 A 
ATOM      7  N   UNL d   1     -55.216-101.510 -43.970  0.00  0.00    -0.227 NA
ATOM      8  C   UNL d   1     -55.201-102.764 -43.325  0.00  0.00     0.058 A 
ATOM      9  C   UNL d   1     -55.292-102.311 -44.009  0.00  0.00     0.086 A 
ATOM     10  C   UNL d   1     -54.735 -99.174 -42.483  0.00  0.00     0.023 C 
ENDROOT
BRANCH   5  11
ATOM     11  N   UNL d   1     -54.945-102.858 -41.933  0.00  0.00    -0.224 NA
BRANCH  11  12
ATOM     12  C   UNL d   1     -54.712-102.802 -41.123  0.00  0.00     0.120 C 
BRANCH  12  13
ATOM     13  C   UNL d   1     -55.283-102.821 -40.505  0.00  0.00     0.101 A 
ATOM     14  N   UNL d   1     -56.112-102.854 -40.689  0.00  0.00    -0.242 NA
ATOM     15  C   UNL d   1     -56.679-102.872 -40.063  0.00  0.00     0.099 A 
ATOM     16  C   UNL d   1     -56.425-102.858 -39.255  0.00  0.00     0.021 A 
ATOM     17  C   UNL d   1     -55.590-102.825 -39.078  0.00  0.00     0.003 A 
ATOM     18  C   UNL d   1     -55.022-102.806 -39.704  0.00  0.00     0.021 A 
ENDBRANCH  12  13
ENDBRANCH  11  12
ENDBRANCH   5  11
BRANCH   9  19
ATOM     19  C   UNL d   1     -55.464-102.691 -44.746  0.00  0.00     0.019 C 
BRANCH  19  20
ATOM     20  C   UNL d   1     -55.206-102.348 -45.484  0.00  0.00     0.002 C 
ATOM     21  C   UNL d   1     -54.862-102.829 -46.079  0.00  0.00     0.000 C 
ENDBRANCH  19  20
ENDBRANCH   9  19
BRANCH   4  22
ATOM     22  C   UNL d   1     -55.066 -99.899 -43.903  0.00  0.00     0.004 A 
ATOM     23  C   UNL d   1     -55.506 -99.218 -43.876  0.00  0.00     0.000 A 
ATOM     24  C   UNL d   1     -55.595 -98.773 -44.549  0.00  0.00     0.000 A 
ATOM     25  C   UNL d   1     -55.245 -99.007 -45.249  0.00  0.00     0.000 A 
ATOM     26  C   UNL d   1     -54.803 -99.690 -45.278  0.00  0.00     0.000 A 
ATOM     27  C   UNL d   1     -54.712-100.143 -44.594  0.00  0.00     0.000 A 
ENDBRANCH   4  22
TORSDOF 6
ENDMDL
