MODEL 1
REMARK VINA RESULT:      53.5      0.000      0.000
REMARK  3 active torsions:
REMARK  status: ('A' for Active; 'I' for Inactive)
REMARK    1  A    between atoms: C_9  and  N_1 
REMARK       I    between atoms: C_8  and  N_2 
REMARK    2  A    between atoms: C_3  and  C_9 
REMARK    3  A    between atoms: C_13  and  C_8 
ROOT
ATOM      1  N   UNL d   1      13.855  13.102  -2.429  0.00  0.00    -0.193 N 
ATOM      2  C   UNL d   1      14.096  13.140  -1.114  0.00  0.00     0.055 A 
ATOM      3  N   UNL d   1      13.629  12.366  -2.098  0.00  0.00    -0.163 NA
ATOM      4  C   UNL d   1      14.139  13.566  -1.818  0.00  0.00     0.089 A 
ATOM      5  C   UNL d   1      13.796  13.306  -3.223  0.00  0.00     0.303 C 
ATOM      6  C   UNL d   1      13.782  12.400  -1.286  0.00  0.00     0.104 A 
ATOM      7  O   UNL d   1      14.046  14.063  -3.464  0.00  0.00    -0.263 OA
ATOM      8  C   UNL d   1      14.421  14.339  -1.903  0.00  0.00     0.021 C 
ATOM      9  C   UNL d   1      13.641  11.788  -0.745  0.00  0.00     0.023 C 
ENDROOT
BRANCH   2  10
ATOM     10  C   UNL d   1      14.332  13.414  -0.363  0.00  0.00     0.089 C 
BRANCH  10  11
ATOM     11  N   UNL d   1      14.859  14.047  -0.298  0.00  0.00    -0.240 N 
ATOM     12  C   UNL d   1      15.665  13.987  -0.168  0.00  0.00     0.267 A 
ATOM     13  C   UNL d   1      15.968  14.757  -0.143  0.00  0.00     0.061 A 
ATOM     14  O   UNL d   1      16.094  13.287  -0.079  0.00  0.00    -0.267 OA
ATOM     15  C   UNL d   1      16.734  15.035  -0.030  0.00  0.00     0.005 A 
ATOM     16  C   UNL d   1      15.354  15.285  -0.257  0.00  0.00     0.061 A 
ATOM     17  C   UNL d   1      16.884  15.844  -0.030  0.00  0.00     0.000 A 
ATOM     18  C   UNL d   1      16.265  16.378  -0.145  0.00  0.00     0.000 A 
ATOM     19  C   UNL d   1      15.498  16.100  -0.259  0.00  0.00     0.005 A 
ATOM     20  C   UNL d   1      14.658  14.850  -0.355  0.00  0.00     0.267 A 
ATOM     21  O   UNL d   1      13.902  15.162  -0.484  0.00  0.00    -0.267 OA
ENDBRANCH  10  11
ENDBRANCH   2  10
BRANCH   5  22
ATOM     22  C   UNL d   1      13.494  12.765  -3.766  0.00  0.00     0.158 A 
ATOM     23  O   UNL d   1      12.895  12.216  -3.618  0.00  0.00    -0.300 OA
ATOM     24  C   UNL d   1      12.769  11.790  -4.313  0.00  0.00     0.123 A 
ATOM     25  C   UNL d   1      13.282  12.069  -4.883  0.00  0.00     0.029 A 
ATOM     26  C   UNL d   1      13.735  12.677  -4.545  0.00  0.00     0.032 A 
ENDBRANCH   5  22
TORSDOF 3
ENDMDL
