MODEL 1
REMARK VINA RESULT:      57.8      0.000      0.000
REMARK  4 active torsions:
REMARK  status: ('A' for Active; 'I' for Inactive)
REMARK    1  A    between atoms: C_8  and  C_1 
REMARK    2  A    between atoms: C_10  and  C_5 
REMARK    3  A    between atoms: N_9  and  C_10 
REMARK    4  A    between atoms: O_19  and  C_14 
ROOT
ATOM      1  C   UNL d   1      14.530  15.157  -3.159  0.00  0.00     0.066 A 
ATOM      2  C   UNL d   1      13.909  15.017  -3.684  0.00  0.00     0.200 A 
ATOM      3  C   UNL d   1      14.023  13.611  -3.462  0.00  0.00     0.108 A 
ATOM      4  C   UNL d   1      13.652  14.257  -3.839  0.00  0.00     0.062 A 
ATOM      5  C   UNL d   1      13.760  12.854  -3.623  0.00  0.00     0.079 A 
ATOM      6  C   UNL d   1      14.901  14.510  -2.782  0.00  0.00     0.126 A 
ATOM      7  O   UNL d   1      14.653  13.742  -2.929  0.00  0.00    -0.305 OA
ATOM      8  C   UNL d   1      13.034  14.120  -4.362  0.00  0.00     0.009 A 
ATOM      9  C   UNL d   1      13.146  12.711  -4.142  0.00  0.00     0.199 A 
ATOM     10  O   UNL d   1      13.544  15.654  -4.055  0.00  0.00    -0.286 OA
ATOM     11  C   UNL d   1      12.775  13.357  -4.519  0.00  0.00     0.042 A 
ATOM     12  O   UNL d   1      12.888  11.960  -4.299  0.00  0.00    -0.286 OA
ENDROOT
BRANCH   1  13
ATOM     13  C   UNL d   1      14.806  15.982  -2.992  0.00  0.00     0.027 A 
ATOM     14  C   UNL d   1      14.763  16.302  -2.172  0.00  0.00     0.094 A 
ATOM     15  C   UNL d   1      15.042  17.141  -1.993  0.00  0.00     0.024 A 
ATOM     16  C   UNL d   1      15.362  17.640  -2.663  0.00  0.00     0.002 A 
ATOM     17  C   UNL d   1      15.404  17.320  -3.483  0.00  0.00     0.000 A 
ATOM     18  C   UNL d   1      15.129  16.490  -3.662  0.00  0.00     0.002 A 
BRANCH  14  19
ATOM     19  O   UNL d   1      14.443  15.803  -1.502  0.00  0.00    -0.328 OA
ATOM     20  C   UNL d   1      14.747  15.906  -0.672  0.00  0.00     0.181 C 
ENDBRANCH  14  19
ENDBRANCH   1  13
BRANCH   5  21
ATOM     21  C   UNL d   1      14.129  12.211  -3.248  0.00  0.00     0.085 C 
BRANCH  21  22
ATOM     22  N   UNL d   1      14.038  12.103  -2.437  0.00  0.00    -0.302 N 
ATOM     23  C   UNL d   1      14.679  12.209  -1.939  0.00  0.00     0.080 A 
ATOM     24  C   UNL d   1      14.588  12.102  -1.134  0.00  0.00     0.019 A 
ATOM     25  C   UNL d   1      13.860  11.891  -0.818  0.00  0.00     0.003 A 
ATOM     26  C   UNL d   1      13.220  11.785  -1.316  0.00  0.00     0.019 A 
ATOM     27  C   UNL d   1      13.772  11.785  -0.016  0.00  0.00     0.000 C 
ATOM     28  C   UNL d   1      13.302  11.889  -2.116  0.00  0.00     0.080 A 
ENDBRANCH  21  22
ENDBRANCH   5  21
TORSDOF 4
ENDMDL
