MODEL 1
REMARK VINA RESULT:      -1.5      0.000      0.000
REMARK  7 active torsions:
REMARK  status: ('A' for Active; 'I' for Inactive)
REMARK    1  A    between atoms: C_13  and  N_2 
REMARK    2  A    between atoms: C_7  and  C_4 
REMARK    3  A    between atoms: O_19  and  C_7 
REMARK    4  A    between atoms: C_9  and  C_18 
REMARK    5  A    between atoms: C_20  and  C_13 
REMARK    6  A    between atoms: O_16  and  C_15 
REMARK    7  A    between atoms: C_18  and  O_16 
ROOT
ATOM      1  C   UNL d   1      59.772  -0.934  29.335  0.00  0.00     0.265 A 
ATOM      2  N   UNL d   1      59.284  -1.536  29.052  0.00  0.00    -0.272 N 
ATOM      3  C   UNL d   1      59.501  -0.429  29.923  0.00  0.00     0.059 A 
ATOM      4  C   UNL d   1      58.741  -0.523  30.231  0.00  0.00     0.029 A 
ATOM      5  C   UNL d   1      58.253  -1.121  29.952  0.00  0.00     0.021 A 
ATOM      6  C   UNL d   1      58.524  -1.630  29.361  0.00  0.00     0.083 A 
ATOM      7  O   UNL d   1      60.531  -0.841  29.026  0.00  0.00    -0.267 OA
ATOM      8  C   UNL d   1      58.470  -0.014  30.822  0.00  0.00     0.100 A 
ATOM      9  C   UNL d   1      59.989   0.173  30.205  0.00  0.00     0.005 A 
ATOM     10  C   UNL d   1      59.719   0.682  30.796  0.00  0.00     0.002 A 
ATOM     11  C   UNL d   1      58.959   0.588  31.104  0.00  0.00     0.025 A 
ENDROOT
BRANCH   8  12
ATOM     12  O   UNL d   1      57.711  -0.108  31.131  0.00  0.00    -0.303 OA
BRANCH  12  13
ATOM     13  C   UNL d   1      57.611  -0.316  31.923  0.00  0.00     0.147 C 
BRANCH  13  14
ATOM     14  C   UNL d   1      56.908  -0.130  32.312  0.00  0.00     0.125 A 
ATOM     15  O   UNL d   1      56.755   0.140  33.083  0.00  0.00    -0.300 OA
ATOM     16  C   UNL d   1      55.936   0.229  33.155  0.00  0.00     0.163 A 
ATOM     17  C   UNL d   1      55.587   0.020  32.448  0.00  0.00     0.032 A 
ATOM     18  C   UNL d   1      56.188  -0.203  31.923  0.00  0.00     0.029 A 
BRANCH  16  19
ATOM     19  C   UNL d   1      55.529   0.490  33.838  0.00  0.00     0.319 C 
ATOM     20  O   UNL d   1      54.724   0.629  33.808  0.00  0.00    -0.257 OA
BRANCH  19  21
ATOM     21  O   UNL d   1      55.948   0.610  34.554  0.00  0.00    -0.294 OA
ATOM     22  C   UNL d   1      55.542   0.672  35.270  0.00  0.00     0.185 C 
ENDBRANCH  19  21
ENDBRANCH  16  19
ENDBRANCH  13  14
ENDBRANCH  12  13
ENDBRANCH   8  12
BRANCH   2  23
ATOM     23  C   UNL d   1      59.562  -2.048  28.455  0.00  0.00     0.083 C 
BRANCH  23  24
ATOM     24  C   UNL d   1      59.590  -2.862  28.584  0.00  0.00     0.018 A 
ATOM     25  C   UNL d   1      60.317  -3.248  28.598  0.00  0.00     0.002 A 
ATOM     26  C   UNL d   1      60.346  -4.062  28.727  0.00  0.00     0.000 A 
ATOM     27  C   UNL d   1      59.647  -4.487  28.843  0.00  0.00     0.000 A 
ATOM     28  C   UNL d   1      58.925  -4.096  28.828  0.00  0.00     0.000 A 
ATOM     29  C   UNL d   1      58.896  -3.282  28.699  0.00  0.00     0.002 A 
ENDBRANCH  23  24
ENDBRANCH   2  23
TORSDOF 7
ENDMDL
MODEL 2
REMARK VINA RESULT:       0.2      2.599      5.725
REMARK  7 active torsions:
REMARK  status: ('A' for Active; 'I' for Inactive)
REMARK    1  A    between atoms: C_13  and  N_2 
REMARK    2  A    between atoms: C_7  and  C_4 
REMARK    3  A    between atoms: O_19  and  C_7 
REMARK    4  A    between atoms: C_9  and  C_18 
REMARK    5  A    between atoms: C_20  and  C_13 
REMARK    6  A    between atoms: O_16  and  C_15 
REMARK    7  A    between atoms: C_18  and  O_16 
ROOT
ATOM      1  C   UNL d   1      59.942  -1.078  29.379  0.00  0.00     0.265 A 
ATOM      2  N   UNL d   1      59.157  -0.827  29.333  0.00  0.00    -0.272 N 
ATOM      3  C   UNL d   1      60.135  -1.853  29.192  0.00  0.00     0.059 A 
ATOM      4  C   UNL d   1      59.547  -2.382  28.958  0.00  0.00     0.029 A 
ATOM      5  C   UNL d   1      58.765  -2.135  28.910  0.00  0.00     0.021 A 
ATOM      6  C   UNL d   1      58.569  -1.355  29.098  0.00  0.00     0.083 A 
ATOM      7  O   UNL d   1      60.530  -0.549  29.614  0.00  0.00    -0.267 OA
ATOM      8  C   UNL d   1      59.743  -3.161  28.770  0.00  0.00     0.100 A 
ATOM      9  C   UNL d   1      60.920  -2.104  29.239  0.00  0.00     0.005 A 
ATOM     10  C   UNL d   1      61.117  -2.883  29.051  0.00  0.00     0.002 A 
ATOM     11  C   UNL d   1      60.529  -3.412  28.816  0.00  0.00     0.025 A 
ENDROOT
BRANCH   8  12
ATOM     12  O   UNL d   1      59.155  -3.690  28.535  0.00  0.00    -0.303 OA
BRANCH  12  13
ATOM     13  C   UNL d   1      59.317  -4.498  28.501  0.00  0.00     0.147 C 
BRANCH  13  14
ATOM     14  C   UNL d   1      58.698  -5.044  28.514  0.00  0.00     0.125 A 
ATOM     15  O   UNL d   1      58.688  -5.874  28.468  0.00  0.00    -0.300 OA
ATOM     16  C   UNL d   1      57.898  -6.113  28.510  0.00  0.00     0.163 A 
ATOM     17  C   UNL d   1      57.427  -5.451  28.580  0.00  0.00     0.032 A 
ATOM     18  C   UNL d   1      57.921  -4.785  28.583  0.00  0.00     0.029 A 
BRANCH  16  19
ATOM     19  C   UNL d   1      57.623  -6.903  28.486  0.00  0.00     0.319 C 
ATOM     20  O   UNL d   1      56.820  -7.059  28.491  0.00  0.00    -0.257 OA
BRANCH  19  21
ATOM     21  O   UNL d   1      58.172  -7.536  28.455  0.00  0.00    -0.294 OA
ATOM     22  C   UNL d   1      57.909  -8.318  28.491  0.00  0.00     0.185 C 
ENDBRANCH  19  21
ENDBRANCH  16  19
ENDBRANCH  13  14
ENDBRANCH  12  13
ENDBRANCH   8  12
BRANCH   2  23
ATOM     23  C   UNL d   1      58.963  -0.038  29.524  0.00  0.00     0.083 C 
BRANCH  23  24
ATOM     24  C   UNL d   1      58.387   0.123  30.091  0.00  0.00     0.018 A 
ATOM     25  C   UNL d   1      58.551  -0.006  30.887  0.00  0.00     0.002 A 
ATOM     26  C   UNL d   1      57.974   0.155  31.455  0.00  0.00     0.000 A 
ATOM     27  C   UNL d   1      57.236   0.445  31.224  0.00  0.00     0.000 A 
ATOM     28  C   UNL d   1      57.079   0.572  30.428  0.00  0.00     0.000 A 
ATOM     29  C   UNL d   1      57.656   0.411  29.860  0.00  0.00     0.002 A 
ENDBRANCH  23  24
ENDBRANCH   2  23
TORSDOF 7
ENDMDL
MODEL 3
REMARK VINA RESULT:       1.4      1.709      2.743
REMARK  7 active torsions:
REMARK  status: ('A' for Active; 'I' for Inactive)
REMARK    1  A    between atoms: C_13  and  N_2 
REMARK    2  A    between atoms: C_7  and  C_4 
REMARK    3  A    between atoms: O_19  and  C_7 
REMARK    4  A    between atoms: C_9  and  C_18 
REMARK    5  A    between atoms: C_20  and  C_13 
REMARK    6  A    between atoms: O_16  and  C_15 
REMARK    7  A    between atoms: C_18  and  O_16 
ROOT
ATOM      1  C   UNL d   1      57.789  -1.011  30.327  0.00  0.00     0.265 A 
ATOM      2  N   UNL d   1      58.147  -0.344  29.998  0.00  0.00    -0.272 N 
ATOM      3  C   UNL d   1      57.366  -0.945  31.028  0.00  0.00     0.059 A 
ATOM      4  C   UNL d   1      57.300  -0.213  31.403  0.00  0.00     0.029 A 
ATOM      5  C   UNL d   1      57.655   0.452  31.078  0.00  0.00     0.021 A 
ATOM      6  C   UNL d   1      58.080   0.387  30.374  0.00  0.00     0.083 A 
ATOM      7  O   UNL d   1      57.856  -1.742  29.951  0.00  0.00    -0.267 OA
ATOM      8  C   UNL d   1      56.874  -0.148  32.108  0.00  0.00     0.100 A 
ATOM      9  C   UNL d   1      57.008  -1.611  31.357  0.00  0.00     0.005 A 
ATOM     10  C   UNL d   1      56.583  -1.547  32.061  0.00  0.00     0.002 A 
ATOM     11  C   UNL d   1      56.516  -0.816  32.437  0.00  0.00     0.025 A 
ENDROOT
BRANCH   8  12
ATOM     12  O   UNL d   1      56.807   0.583  32.484  0.00  0.00    -0.303 OA
BRANCH  12  13
ATOM     13  C   UNL d   1      57.096   0.681  33.251  0.00  0.00     0.147 C 
BRANCH  13  14
ATOM     14  C   UNL d   1      56.577   0.665  33.891  0.00  0.00     0.125 A 
ATOM     15  O   UNL d   1      55.747   0.633  33.933  0.00  0.00    -0.300 OA
ATOM     16  C   UNL d   1      55.540   0.631  34.733  0.00  0.00     0.163 A 
ATOM     17  C   UNL d   1      56.222   0.661  35.180  0.00  0.00     0.032 A 
ATOM     18  C   UNL d   1      56.867   0.682  34.659  0.00  0.00     0.029 A 
BRANCH  16  19
ATOM     19  C   UNL d   1      54.761   0.603  35.039  0.00  0.00     0.319 C 
ATOM     20  O   UNL d   1      54.634   0.658  35.845  0.00  0.00    -0.257 OA
BRANCH  19  21
ATOM     21  O   UNL d   1      54.111   0.519  34.517  0.00  0.00    -0.294 OA
ATOM     22  C   UNL d   1      53.344   0.682  34.777  0.00  0.00     0.185 C 
ENDBRANCH  19  21
ENDBRANCH  16  19
ENDBRANCH  13  14
ENDBRANCH  12  13
ENDBRANCH   8  12
BRANCH   2  23
ATOM     23  C   UNL d   1      58.576  -0.414  29.286  0.00  0.00     0.083 C 
BRANCH  23  24
ATOM     24  C   UNL d   1      59.386  -0.261  29.271  0.00  0.00     0.018 A 
ATOM     25  C   UNL d   1      59.912  -0.861  29.068  0.00  0.00     0.002 A 
ATOM     26  C   UNL d   1      60.722  -0.708  29.053  0.00  0.00     0.000 A 
ATOM     27  C   UNL d   1      61.003   0.045  29.241  0.00  0.00     0.000 A 
ATOM     28  C   UNL d   1      60.474   0.640  29.443  0.00  0.00     0.000 A 
ATOM     29  C   UNL d   1      59.664   0.487  29.458  0.00  0.00     0.002 A 
ENDBRANCH  23  24
ENDBRANCH   2  23
TORSDOF 7
ENDMDL
MODEL 4
REMARK VINA RESULT:       1.5      1.877      5.971
REMARK  7 active torsions:
REMARK  status: ('A' for Active; 'I' for Inactive)
REMARK    1  A    between atoms: C_13  and  N_2 
REMARK    2  A    between atoms: C_7  and  C_4 
REMARK    3  A    between atoms: O_19  and  C_7 
REMARK    4  A    between atoms: C_9  and  C_18 
REMARK    5  A    between atoms: C_20  and  C_13 
REMARK    6  A    between atoms: O_16  and  C_15 
REMARK    7  A    between atoms: C_18  and  O_16 
ROOT
ATOM      1  C   UNL d   1      57.046   0.679  34.387  0.00  0.00     0.265 A 
ATOM      2  N   UNL d   1      56.267   0.681  34.115  0.00  0.00    -0.272 N 
ATOM      3  C   UNL d   1      57.668   0.678  33.851  0.00  0.00     0.059 A 
ATOM      4  C   UNL d   1      57.515   0.678  33.041  0.00  0.00     0.029 A 
ATOM      5  C   UNL d   1      56.741   0.680  32.766  0.00  0.00     0.021 A 
ATOM      6  C   UNL d   1      56.115   0.681  33.304  0.00  0.00     0.083 A 
ATOM      7  O   UNL d   1      57.198   0.678  35.198  0.00  0.00    -0.267 OA
ATOM      8  C   UNL d   1      58.141   0.677  32.503  0.00  0.00     0.100 A 
ATOM      9  C   UNL d   1      58.446   0.676  34.124  0.00  0.00     0.005 A 
ATOM     10  C   UNL d   1      59.073   0.675  33.587  0.00  0.00     0.002 A 
ATOM     11  C   UNL d   1      58.920   0.675  32.776  0.00  0.00     0.025 A 
ENDROOT
BRANCH   8  12
ATOM     12  O   UNL d   1      57.989   0.678  31.692  0.00  0.00    -0.303 OA
BRANCH  12  13
ATOM     13  C   UNL d   1      58.616   0.681  31.155  0.00  0.00     0.147 C 
BRANCH  13  14
ATOM     14  C   UNL d   1      58.551   0.267  30.444  0.00  0.00     0.125 A 
ATOM     15  O   UNL d   1      58.555  -0.547  30.274  0.00  0.00    -0.300 OA
ATOM     16  C   UNL d   1      58.470  -0.628  29.456  0.00  0.00     0.163 A 
ATOM     17  C   UNL d   1      58.415   0.115  29.124  0.00  0.00     0.032 A 
ATOM     18  C   UNL d   1      58.465   0.673  29.736  0.00  0.00     0.029 A 
BRANCH  16  19
ATOM     19  C   UNL d   1      58.444  -1.350  29.034  0.00  0.00     0.319 C 
ATOM     20  O   UNL d   1      57.847  -1.489  28.493  0.00  0.00    -0.257 OA
BRANCH  19  21
ATOM     21  O   UNL d   1      59.032  -1.933  29.167  0.00  0.00    -0.294 OA
ATOM     22  C   UNL d   1      59.236  -2.464  28.568  0.00  0.00     0.185 C 
ENDBRANCH  19  21
ENDBRANCH  16  19
ENDBRANCH  13  14
ENDBRANCH  12  13
ENDBRANCH   8  12
BRANCH   2  23
ATOM     23  C   UNL d   1      55.637   0.682  34.661  0.00  0.00     0.083 C 
BRANCH  23  24
ATOM     24  C   UNL d   1      54.857   0.636  34.398  0.00  0.00     0.018 A 
ATOM     25  C   UNL d   1      54.240   0.681  34.941  0.00  0.00     0.002 A 
ATOM     26  C   UNL d   1      53.459   0.635  34.677  0.00  0.00     0.000 A 
ATOM     27  C   UNL d   1      53.300   0.543  33.872  0.00  0.00     0.000 A 
ATOM     28  C   UNL d   1      53.920   0.498  33.336  0.00  0.00     0.000 A 
ATOM     29  C   UNL d   1      54.701   0.545  33.599  0.00  0.00     0.002 A 
ENDBRANCH  23  24
ENDBRANCH   2  23
TORSDOF 7
ENDMDL
