MODEL 1
REMARK VINA RESULT:      -7.3      0.000      0.000
REMARK  5 active torsions:
REMARK  status: ('A' for Active; 'I' for Inactive)
REMARK    1  A    between atoms: C_16  and  N_3 
REMARK    2  A    between atoms: C_11  and  C_6 
REMARK       I    between atoms: N_20  and  C_11 
REMARK    3  A    between atoms: C_21  and  N_20 
REMARK    4  A    between atoms: C_23  and  C_21 
REMARK    5  A    between atoms: C_22  and  C_23 
ROOT
ATOM      1  C   UNL d   1     -48.670  13.536  23.032  0.00  0.00     0.155 A 
ATOM      2  C   UNL d   1     -48.225  12.856  23.183  0.00  0.00     0.091 A 
ATOM      3  N   UNL d   1     -48.294  14.237  22.828  0.00  0.00    -0.275 N 
ATOM      4  N   UNL d   1     -49.490  13.507  23.086  0.00  0.00    -0.210 NA
ATOM      5  C   UNL d   1     -47.461  14.278  22.771  0.00  0.00     0.175 A 
ATOM      6  C   UNL d   1     -47.014  13.594  22.923  0.00  0.00     0.094 A 
ATOM      7  C   UNL d   1     -48.597  12.148  23.388  0.00  0.00     0.269 A 
ATOM      8  N   UNL d   1     -49.420  12.122  23.442  0.00  0.00    -0.258 N 
ATOM      9  C   UNL d   1     -49.875  12.802  23.291  0.00  0.00     0.152 A 
ATOM     10  C   UNL d   1     -47.391  12.878  23.130  0.00  0.00     0.016 A 
ATOM     11  N   UNL d   1     -47.086  14.982  22.566  0.00  0.00    -0.128 N 
ATOM     12  C   UNL d   1     -49.802  11.414  23.647  0.00  0.00     0.084 A 
ATOM     13  O   UNL d   1     -48.153  11.467  23.540  0.00  0.00    -0.266 OA
ATOM     14  C   UNL d   1     -50.689  12.772  23.345  0.00  0.00     0.038 A 
ATOM     15  C   UNL d   1     -50.617  11.398  23.698  0.00  0.00     0.019 A 
ATOM     16  C   UNL d   1     -51.064  12.082  23.546  0.00  0.00     0.005 A 
ENDROOT
BRANCH   6  17
ATOM     17  C   UNL d   1     -46.191  13.619  22.869  0.00  0.00     0.282 C 
ATOM     18  O   UNL d   1     -45.749  14.040  23.421  0.00  0.00    -0.265 OA
ATOM     19  N   UNL d   1     -45.804  13.216  22.252  0.00  0.00    -0.206 NA
BRANCH  19  20
ATOM     20  C   UNL d   1     -44.981  13.240  22.198  0.00  0.00     0.102 C 
BRANCH  20  21
ATOM     21  C   UNL d   1     -44.605  12.925  21.538  0.00  0.00     0.021 C 
BRANCH  21  22
ATOM     22  C   UNL d   1     -43.782  12.891  21.505  0.00  0.00     0.002 A 
ATOM     23  C   UNL d   1     -43.366  13.481  21.112  0.00  0.00     0.000 A 
ATOM     24  C   UNL d   1     -42.544  13.454  21.075  0.00  0.00     0.000 A 
ATOM     25  C   UNL d   1     -42.144  12.827  21.439  0.00  0.00     0.000 A 
ATOM     26  C   UNL d   1     -42.572  12.237  21.833  0.00  0.00     0.000 A 
ATOM     27  C   UNL d   1     -43.386  12.274  21.863  0.00  0.00     0.000 A 
ENDBRANCH  21  22
ENDBRANCH  20  21
ENDBRANCH  19  20
ENDBRANCH   6  17
BRANCH   3  28
ATOM     28  C   UNL d   1     -48.741  14.921  22.676  0.00  0.00     0.067 C 
ATOM     29  C   UNL d   1     -48.945  15.113  21.893  0.00  0.00     0.019 C 
ATOM     30  C   UNL d   1     -48.981  15.408  23.296  0.00  0.00     0.019 C 
ENDBRANCH   3  28
TORSDOF 5
ENDMDL
MODEL 2
REMARK VINA RESULT:      -7.1      1.060      2.256
REMARK  5 active torsions:
REMARK  status: ('A' for Active; 'I' for Inactive)
REMARK    1  A    between atoms: C_16  and  N_3 
REMARK    2  A    between atoms: C_11  and  C_6 
REMARK       I    between atoms: N_20  and  C_11 
REMARK    3  A    between atoms: C_21  and  N_20 
REMARK    4  A    between atoms: C_23  and  C_21 
REMARK    5  A    between atoms: C_22  and  C_23 
ROOT
ATOM      1  C   UNL d   1     -48.733  13.318  22.920  0.00  0.00     0.155 A 
ATOM      2  C   UNL d   1     -48.238  13.980  22.896  0.00  0.00     0.091 A 
ATOM      3  N   UNL d   1     -48.410  12.564  22.939  0.00  0.00    -0.275 N 
ATOM      4  N   UNL d   1     -49.549  13.420  22.925  0.00  0.00    -0.210 NA
ATOM      5  C   UNL d   1     -47.582  12.449  22.935  0.00  0.00     0.175 A 
ATOM      6  C   UNL d   1     -47.085  13.114  22.911  0.00  0.00     0.094 A 
ATOM      7  C   UNL d   1     -48.556  14.742  22.877  0.00  0.00     0.269 A 
ATOM      8  N   UNL d   1     -49.375  14.840  22.882  0.00  0.00    -0.258 N 
ATOM      9  C   UNL d   1     -49.880  14.180  22.906  0.00  0.00     0.152 A 
ATOM     10  C   UNL d   1     -47.407  13.884  22.891  0.00  0.00     0.016 A 
ATOM     11  N   UNL d   1     -47.261  11.691  22.954  0.00  0.00    -0.128 N 
ATOM     12  C   UNL d   1     -49.703  15.603  22.863  0.00  0.00     0.084 A 
ATOM     13  O   UNL d   1     -48.061  15.404  22.853  0.00  0.00    -0.266 OA
ATOM     14  C   UNL d   1     -50.690  14.282  22.911  0.00  0.00     0.038 A 
ATOM     15  C   UNL d   1     -50.515  15.691  22.869  0.00  0.00     0.019 A 
ATOM     16  C   UNL d   1     -51.012  15.026  22.893  0.00  0.00     0.005 A 
ENDROOT
BRANCH   6  17
ATOM     17  C   UNL d   1     -46.265  13.017  22.906  0.00  0.00     0.282 C 
ATOM     18  O   UNL d   1     -45.863  12.825  23.598  0.00  0.00    -0.265 OA
ATOM     19  N   UNL d   1     -45.842  13.112  22.195  0.00  0.00    -0.206 NA
BRANCH  19  20
ATOM     20  C   UNL d   1     -45.023  13.014  22.189  0.00  0.00     0.102 C 
BRANCH  20  21
ATOM     21  C   UNL d   1     -44.619  12.991  21.472  0.00  0.00     0.021 C 
BRANCH  21  22
ATOM     22  C   UNL d   1     -43.795  12.985  21.461  0.00  0.00     0.002 A 
ATOM     23  C   UNL d   1     -43.388  12.329  21.746  0.00  0.00     0.000 A 
ATOM     24  C   UNL d   1     -42.566  12.315  21.737  0.00  0.00     0.000 A 
ATOM     25  C   UNL d   1     -42.154  12.969  21.439  0.00  0.00     0.000 A 
ATOM     26  C   UNL d   1     -42.572  13.625  21.154  0.00  0.00     0.000 A 
ATOM     27  C   UNL d   1     -43.387  13.627  21.167  0.00  0.00     0.000 A 
ENDBRANCH  21  22
ENDBRANCH  20  21
ENDBRANCH  19  20
ENDBRANCH   6  17
BRANCH   3  28
ATOM     28  C   UNL d   1     -48.907  11.898  22.963  0.00  0.00     0.067 C 
ATOM     29  C   UNL d   1     -49.139  11.584  23.698  0.00  0.00     0.019 C 
ATOM     30  C   UNL d   1     -49.171  11.550  22.265  0.00  0.00     0.019 C 
ENDBRANCH   3  28
TORSDOF 5
ENDMDL
