MODEL 1
REMARK VINA RESULT:      78.3      0.000      0.000
REMARK  5 active torsions:
REMARK  status: ('A' for Active; 'I' for Inactive)
REMARK    1  A    between atoms: N_4  and  C_2 
REMARK    2  A    between atoms: S_8  and  C_3 
REMARK    3  A    between atoms: C_11  and  S_8 
REMARK    4  A    between atoms: C_9  and  C_11 
REMARK    5  A    between atoms: C_10  and  C_9 
ROOT
ATOM      1  N   UNL d   1      57.981  48.276  50.421  0.00  0.00    -0.203 NA
ATOM      2  C   UNL d   1      57.241  47.926  50.330  0.00  0.00     0.152 A 
ATOM      3  C   UNL d   1      58.080  49.089  50.269  0.00  0.00     0.196 A 
ATOM      4  C   UNL d   1      56.601  48.390  50.085  0.00  0.00     0.057 A 
ATOM      5  N   UNL d   1      57.439  49.545  50.026  0.00  0.00    -0.221 NA
ATOM      6  C   UNL d   1      56.699  49.195  49.935  0.00  0.00     0.087 A 
ATOM      7  C   UNL d   1      56.054  49.651  49.691  0.00  0.00     0.021 C 
ENDROOT
BRANCH   3   8
ATOM      8  S   UNL d   1      58.828  49.439  50.363  0.00  0.00    -0.045 SA
BRANCH   8   9
ATOM      9  C   UNL d   1      59.507  49.013  50.157  0.00  0.00     0.080 C 
BRANCH   9  10
ATOM     10  C   UNL d   1      60.234  49.400  50.106  0.00  0.00     0.202 C 
ATOM     11  O   UNL d   1      60.483  49.707  49.382  0.00  0.00    -0.286 OA
BRANCH  10  12
ATOM     12  C   UNL d   1      60.702  49.476  50.779  0.00  0.00     0.040 A 
ATOM     13  C   UNL d   1      60.340  49.607  51.512  0.00  0.00     0.004 A 
ATOM     14  C   UNL d   1      60.805  49.684  52.190  0.00  0.00     0.011 A 
ATOM     15  C   UNL d   1      61.626  49.629  52.128  0.00  0.00     0.058 A 
ATOM     16  C   UNL d   1      61.983  49.498  51.396  0.00  0.00     0.011 A 
ATOM     17 CL   UNL d   1      62.095  49.705  52.805  0.00  0.00    -0.082 Cl
ATOM     18  C   UNL d   1      61.514  49.422  50.722  0.00  0.00     0.004 A 
ENDBRANCH  10  12
ENDBRANCH   9  10
ENDBRANCH   8   9
ENDBRANCH   3   8
BRANCH   2  19
ATOM     19  N   UNL d   1      57.139  47.121  50.479  0.00  0.00    -0.285 N 
ATOM     20  C   UNL d   1      56.902  46.621  49.875  0.00  0.00     0.108 A 
ATOM     21  C   UNL d   1      56.800  45.817  50.029  0.00  0.00     0.142 A 
ATOM     22  O   UNL d   1      56.939  45.522  50.789  0.00  0.00    -0.300 OA
ATOM     23  C   UNL d   1      57.177  46.030  51.392  0.00  0.00     0.142 A 
ATOM     24  C   UNL d   1      57.277  46.827  51.240  0.00  0.00     0.108 A 
ENDBRANCH   2  19
TORSDOF 5
ENDMDL
MODEL 2
REMARK VINA RESULT:      78.6      3.226      4.146
REMARK  5 active torsions:
REMARK  status: ('A' for Active; 'I' for Inactive)
REMARK    1  A    between atoms: N_4  and  C_2 
REMARK    2  A    between atoms: S_8  and  C_3 
REMARK    3  A    between atoms: C_11  and  S_8 
REMARK    4  A    between atoms: C_9  and  C_11 
REMARK    5  A    between atoms: C_10  and  C_9 
ROOT
ATOM      1  N   UNL d   1      61.355  46.876  50.339  0.00  0.00    -0.203 NA
ATOM      2  C   UNL d   1      61.225  46.063  50.366  0.00  0.00     0.152 A 
ATOM      3  C   UNL d   1      60.944  47.382  50.858  0.00  0.00     0.196 A 
ATOM      4  C   UNL d   1      60.685  45.757  50.912  0.00  0.00     0.057 A 
ATOM      5  N   UNL d   1      60.407  47.070  51.399  0.00  0.00    -0.221 NA
ATOM      6  C   UNL d   1      60.278  46.258  51.425  0.00  0.00     0.087 A 
ATOM      7  C   UNL d   1      59.739  45.943  51.968  0.00  0.00     0.021 C 
ENDROOT
BRANCH   3   8
ATOM      8  S   UNL d   1      61.078  48.202  50.828  0.00  0.00    -0.045 SA
BRANCH   8   9
ATOM      9  C   UNL d   1      60.494  48.721  51.100  0.00  0.00     0.080 C 
BRANCH   9  10
ATOM     10  C   UNL d   1      60.161  49.270  50.582  0.00  0.00     0.202 C 
ATOM     11  O   UNL d   1      60.649  49.704  50.077  0.00  0.00    -0.286 OA
BRANCH  10  12
ATOM     12  C   UNL d   1      59.344  49.379  50.574  0.00  0.00     0.040 A 
ATOM     13  C   UNL d   1      58.956  49.579  51.277  0.00  0.00     0.004 A 
ATOM     14  C   UNL d   1      58.138  49.689  51.275  0.00  0.00     0.011 A 
ATOM     15  C   UNL d   1      57.717  49.598  50.571  0.00  0.00     0.058 A 
ATOM     16  C   UNL d   1      58.109  49.398  49.873  0.00  0.00     0.011 A 
ATOM     17 CL   UNL d   1      56.898  49.708  50.565  0.00  0.00    -0.082 Cl
ATOM     18  C   UNL d   1      58.925  49.289  49.880  0.00  0.00     0.004 A 
ENDBRANCH  10  12
ENDBRANCH   9  10
ENDBRANCH   8   9
ENDBRANCH   3   8
BRANCH   2  19
ATOM     19  N   UNL d   1      61.631  45.559  49.853  0.00  0.00    -0.285 N 
ATOM     20  C   UNL d   1      62.229  45.856  49.378  0.00  0.00     0.108 A 
ATOM     21  C   UNL d   1      62.631  45.349  48.867  0.00  0.00     0.142 A 
ATOM     22  O   UNL d   1      62.430  44.547  48.838  0.00  0.00    -0.300 OA
ATOM     23  C   UNL d   1      61.828  44.255  49.318  0.00  0.00     0.142 A 
ATOM     24  C   UNL d   1      61.429  44.758  49.824  0.00  0.00     0.108 A 
ENDBRANCH   2  19
TORSDOF 5
ENDMDL
