MODEL 1
REMARK VINA RESULT:      39.4      0.000      0.000
REMARK  1 active torsions:
REMARK  status: ('A' for Active; 'I' for Inactive)
REMARK    1  A    between atoms: N_11  and  C_7 
ROOT
ATOM      1  C   UNL d   1     -47.328  31.682  35.103  0.00  0.00     0.201 A 
ATOM      2  C   UNL d   1     -47.766  31.072  34.755  0.00  0.00     0.141 A 
ATOM      3  N   UNL d   1     -47.315  32.429  34.755  0.00  0.00    -0.036 NA
ATOM      4  C   UNL d   1     -47.680  30.393  35.216  0.00  0.00     0.040 A 
ATOM      5  N   UNL d   1     -46.971  31.380  35.782  0.00  0.00    -0.225 NA
ATOM      6  N   UNL d   1     -48.193  31.208  34.054  0.00  0.00    -0.129 NA
ATOM      7  C   UNL d   1     -47.739  32.570  34.057  0.00  0.00     0.788 A 
ATOM      8  C   UNL d   1     -47.189  30.584  35.850  0.00  0.00     0.085 A 
ATOM      9  N   UNL d   1     -48.174  31.961  33.711  0.00  0.00     0.048 NA
ATOM     10  C   UNL d   1     -47.982  29.632  35.142  0.00  0.00     0.003 A 
ATOM     11  C   UNL d   1     -46.996  30.014  36.416  0.00  0.00     0.019 A 
ATOM     12  C   UNL d   1     -47.793  29.061  35.703  0.00  0.00     0.000 A 
ATOM     13  C   UNL d   1     -47.298  29.253  36.343  0.00  0.00     0.002 A 
ATOM     14  C   UNL d   1     -48.096  28.288  35.634  0.00  0.00     0.000 C 
ENDROOT
BRANCH   7  15
ATOM     15  N   UNL d   1     -47.721  33.323  33.714  0.00  0.00     0.069 NA
ATOM     16  N   UNL d   1     -48.336  33.688  33.306  0.00  0.00    -0.006 N 
ENDBRANCH   7  15
TORSDOF 1
ENDMDL
MODEL 2
REMARK VINA RESULT:      40.1      7.640      9.161
REMARK  1 active torsions:
REMARK  status: ('A' for Active; 'I' for Inactive)
REMARK    1  A    between atoms: N_11  and  C_7 
ROOT
ATOM      1  C   UNL d   1     -53.170  23.540  33.588  0.00  0.00     0.201 A 
ATOM      2  C   UNL d   1     -53.069  24.361  33.588  0.00  0.00     0.141 A 
ATOM      3  N   UNL d   1     -53.924  23.217  33.664  0.00  0.00    -0.036 NA
ATOM      4  C   UNL d   1     -52.266  24.526  33.505  0.00  0.00     0.040 A 
ATOM      5  N   UNL d   1     -52.425  23.195  33.505  0.00  0.00    -0.225 NA
ATOM      6  N   UNL d   1     -53.727  24.865  33.664  0.00  0.00    -0.129 NA
ATOM      7  C   UNL d   1     -54.583  23.714  33.740  0.00  0.00     0.788 A 
ATOM      8  C   UNL d   1     -51.868  23.806  33.454  0.00  0.00     0.085 A 
ATOM      9  N   UNL d   1     -54.481  24.533  33.739  0.00  0.00     0.048 NA
ATOM     10  C   UNL d   1     -51.846  25.232  33.469  0.00  0.00     0.003 A 
ATOM     11  C   UNL d   1     -51.046  23.786  33.367  0.00  0.00     0.019 A 
ATOM     12  C   UNL d   1     -51.029  25.218  33.382  0.00  0.00     0.000 A 
ATOM     13  C   UNL d   1     -50.627  24.491  33.331  0.00  0.00     0.002 A 
ATOM     14  C   UNL d   1     -50.598  25.930  33.346  0.00  0.00     0.000 C 
ENDROOT
BRANCH   7  15
ATOM     15  N   UNL d   1     -55.337  23.383  33.816  0.00  0.00     0.069 NA
ATOM     16  N   UNL d   1     -55.986  23.533  33.331  0.00  0.00    -0.006 N 
ENDBRANCH   7  15
TORSDOF 1
ENDMDL
MODEL 3
REMARK VINA RESULT:      41.9      5.065      6.486
REMARK  1 active torsions:
REMARK  status: ('A' for Active; 'I' for Inactive)
REMARK    1  A    between atoms: N_11  and  C_7 
ROOT
ATOM      1  C   UNL d   1     -50.258  26.033  33.505  0.00  0.00     0.201 A 
ATOM      2  C   UNL d   1     -50.933  26.508  33.435  0.00  0.00     0.141 A 
ATOM      3  N   UNL d   1     -50.327  25.213  33.479  0.00  0.00    -0.036 NA
ATOM      4  C   UNL d   1     -50.702  27.298  33.480  0.00  0.00     0.040 A 
ATOM      5  N   UNL d   1     -49.607  26.532  33.594  0.00  0.00    -0.225 NA
ATOM      6  N   UNL d   1     -51.682  26.161  33.339  0.00  0.00    -0.129 NA
ATOM      7  C   UNL d   1     -51.072  24.861  33.383  0.00  0.00     0.788 A 
ATOM      8  C   UNL d   1     -49.884  27.313  33.578  0.00  0.00     0.085 A 
ATOM      9  N   UNL d   1     -51.743  25.336  33.313  0.00  0.00     0.048 NA
ATOM     10  C   UNL d   1     -51.126  28.002  33.445  0.00  0.00     0.003 A 
ATOM     11  C   UNL d   1     -49.482  28.033  33.641  0.00  0.00     0.019 A 
ATOM     12  C   UNL d   1     -50.732  28.720  33.508  0.00  0.00     0.000 A 
ATOM     13  C   UNL d   1     -49.906  28.736  33.606  0.00  0.00     0.002 A 
ATOM     14  C   UNL d   1     -51.156  29.436  33.473  0.00  0.00     0.000 C 
ENDROOT
BRANCH   7  15
ATOM     15  N   UNL d   1     -51.133  24.037  33.358  0.00  0.00     0.069 NA
ATOM     16  N   UNL d   1     -51.831  23.601  33.306  0.00  0.00    -0.006 N 
ENDBRANCH   7  15
TORSDOF 1
ENDMDL
