MODEL 1
REMARK VINA RESULT:      40.0      0.000      0.000
REMARK  5 active torsions:
REMARK  status: ('A' for Active; 'I' for Inactive)
REMARK    1  A    between atoms: C_6  and  C_1 
REMARK    2  A    between atoms: C_8  and  N_3 
REMARK    3  A    between atoms: O_7  and  C_6 
REMARK    4  A    between atoms: C_9  and  O_7 
REMARK    5  A    between atoms: O_16  and  C_10 
ROOT
ATOM      1  C   UNL d   1     -51.433  25.536  33.357  0.00  0.00     0.173 A 
ATOM      2  N   UNL d   1     -52.229  25.627  33.369  0.00  0.00    -0.225 NA
ATOM      3  N   UNL d   1     -51.217  24.760  33.333  0.00  0.00    -0.287 N 
ATOM      4  C   UNL d   1     -51.950  24.292  33.327  0.00  0.00     0.083 A 
ATOM      5  C   UNL d   1     -52.560  24.816  33.349  0.00  0.00     0.099 A 
ATOM      6  C   UNL d   1     -52.127  23.489  33.306  0.00  0.00     0.019 A 
ATOM      7  C   UNL d   1     -53.390  24.572  33.351  0.00  0.00     0.021 A 
ATOM      8  C   UNL d   1     -52.894  23.192  33.306  0.00  0.00     0.002 A 
ATOM      9  C   UNL d   1     -53.505  23.715  33.328  0.00  0.00     0.002 A 
ENDROOT
BRANCH   1  10
ATOM     10  C   UNL d   1     -50.664  25.792  33.356  0.00  0.00     0.160 C 
BRANCH  10  11
ATOM     11  O   UNL d   1     -50.508  26.613  33.307  0.00  0.00    -0.302 OA
BRANCH  11  12
ATOM     12  C   UNL d   1     -49.959  26.968  33.829  0.00  0.00     0.100 A 
ATOM     13  C   UNL d   1     -50.221  27.518  34.402  0.00  0.00     0.027 A 
ATOM     14  C   UNL d   1     -49.672  27.873  34.924  0.00  0.00     0.026 A 
ATOM     15  C   UNL d   1     -48.888  27.684  34.875  0.00  0.00     0.094 A 
ATOM     16  C   UNL d   1     -48.626  27.134  34.302  0.00  0.00     0.026 A 
ATOM     17  C   UNL d   1     -49.175  26.779  33.780  0.00  0.00     0.027 A 
BRANCH  15  18
ATOM     18  O   UNL d   1     -48.510  28.139  35.474  0.00  0.00    -0.328 OA
ATOM     19  C   UNL d   1     -48.243  28.923  35.319  0.00  0.00     0.181 C 
ENDBRANCH  15  18
ENDBRANCH  11  12
ENDBRANCH  10  11
ENDBRANCH   1  10
BRANCH   3  20
ATOM     20  C   UNL d   1     -50.431  24.605  33.319  0.00  0.00     0.082 C 
ATOM     21  C   UNL d   1     -50.125  23.874  33.552  0.00  0.00     0.021 C 
ENDBRANCH   3  20
TORSDOF 5
ENDMDL
MODEL 2
REMARK VINA RESULT:      41.3      0.840      1.539
REMARK  5 active torsions:
REMARK  status: ('A' for Active; 'I' for Inactive)
REMARK    1  A    between atoms: C_6  and  C_1 
REMARK    2  A    between atoms: C_8  and  N_3 
REMARK    3  A    between atoms: O_7  and  C_6 
REMARK    4  A    between atoms: C_9  and  O_7 
REMARK    5  A    between atoms: O_16  and  C_10 
ROOT
ATOM      1  C   UNL d   1     -50.393  25.695  33.313  0.00  0.00     0.173 A 
ATOM      2  N   UNL d   1     -50.198  24.919  33.312  0.00  0.00    -0.225 NA
ATOM      3  N   UNL d   1     -51.192  25.807  33.312  0.00  0.00    -0.287 N 
ATOM      4  C   UNL d   1     -51.558  25.018  33.309  0.00  0.00     0.083 A 
ATOM      5  C   UNL d   1     -50.959  24.483  33.310  0.00  0.00     0.099 A 
ATOM      6  C   UNL d   1     -52.332  24.737  33.307  0.00  0.00     0.019 A 
ATOM      7  C   UNL d   1     -51.090  23.628  33.308  0.00  0.00     0.021 A 
ATOM      8  C   UNL d   1     -52.524  23.937  33.306  0.00  0.00     0.002 A 
ATOM      9  C   UNL d   1     -51.925  23.401  33.306  0.00  0.00     0.002 A 
ENDROOT
BRANCH   1  10
ATOM     10  C   UNL d   1     -50.242  26.492  33.315  0.00  0.00     0.160 C 
BRANCH  10  11
ATOM     11  O   UNL d   1     -49.448  26.754  33.307  0.00  0.00    -0.302 OA
BRANCH  11  12
ATOM     12  C   UNL d   1     -49.192  27.334  33.853  0.00  0.00     0.100 A 
ATOM     13  C   UNL d   1     -49.111  27.140  34.663  0.00  0.00     0.027 A 
ATOM     14  C   UNL d   1     -48.856  27.720  35.210  0.00  0.00     0.026 A 
ATOM     15  C   UNL d   1     -48.687  28.468  34.955  0.00  0.00     0.094 A 
ATOM     16  C   UNL d   1     -48.767  28.662  34.145  0.00  0.00     0.026 A 
ATOM     17  C   UNL d   1     -49.023  28.082  33.599  0.00  0.00     0.027 A 
BRANCH  15  18
ATOM     18  O   UNL d   1     -48.451  28.891  35.645  0.00  0.00    -0.328 OA
ATOM     19  C   UNL d   1     -47.737  29.337  35.655  0.00  0.00     0.181 C 
ENDBRANCH  15  18
ENDBRANCH  11  12
ENDBRANCH  10  11
ENDBRANCH   1  10
BRANCH   3  20
ATOM     20  C   UNL d   1     -51.450  26.565  33.312  0.00  0.00     0.082 C 
ATOM     21  C   UNL d   1     -52.254  26.754  33.312  0.00  0.00     0.021 C 
ENDBRANCH   3  20
TORSDOF 5
ENDMDL
