MODEL 1
REMARK VINA RESULT:      69.8      0.000      0.000
REMARK  4 active torsions:
REMARK  status: ('A' for Active; 'I' for Inactive)
REMARK    1  A    between atoms: C_2  and  S_1 
REMARK    2  A    between atoms: N_3  and  S_1 
REMARK    3  A    between atoms: C_4  and  C_6 
REMARK       I    between atoms: N_7  and  C_4 
REMARK    4  A    between atoms: C_14  and  N_7 
ROOT
ATOM      1  C   UNL d   1     -47.753  30.592  34.974  0.00  0.00     0.104 A 
ATOM      2  C   UNL d   1     -48.294  30.007  34.765  0.00  0.00     0.018 A 
ATOM      3  C   UNL d   1     -48.234  29.254  35.099  0.00  0.00     0.059 A 
ATOM      4  C   UNL d   1     -47.154  30.430  35.514  0.00  0.00     0.012 A 
ATOM      5  C   UNL d   1     -47.634  29.088  35.641  0.00  0.00     0.005 A 
ATOM      6  C   UNL d   1     -47.094  29.677  35.848  0.00  0.00     0.001 A 
ATOM      7  C   UNL d   1     -46.613  31.014  35.723  0.00  0.00     0.001 C 
ENDROOT
BRANCH   3   8
ATOM      8  C   UNL d   1     -48.771  28.663  34.896  0.00  0.00     0.279 C 
ATOM      9  N   UNL d   1     -48.974  28.547  34.109  0.00  0.00    -0.208 NA
ATOM     10  O   UNL d   1     -49.101  28.191  35.482  0.00  0.00    -0.265 OA
BRANCH   9  11
ATOM     11  C   UNL d   1     -49.511  27.957  33.899  0.00  0.00     0.087 A 
ATOM     12  C   UNL d   1     -49.282  27.172  33.942  0.00  0.00     0.045 A 
ATOM     13  C   UNL d   1     -49.817  26.574  33.733  0.00  0.00     0.121 A 
ATOM     14  O   UNL d   1     -49.754  25.744  33.717  0.00  0.00    -0.299 OA
ATOM     15  C   UNL d   1     -50.576  26.778  33.483  0.00  0.00     0.119 A 
ATOM     16  C   UNL d   1     -50.474  25.446  33.458  0.00  0.00     0.304 A 
ATOM     17  O   UNL d   1     -50.993  26.079  33.309  0.00  0.00    -0.300 OA
ATOM     18  C   UNL d   1     -50.809  27.578  33.439  0.00  0.00     0.028 A 
ATOM     19  C   UNL d   1     -50.272  28.169  33.649  0.00  0.00     0.021 A 
ENDBRANCH   9  11
ENDBRANCH   3   8
BRANCH   1  20
ATOM     20  S   UNL d   1     -47.813  31.338  34.643  0.00  0.00     0.271 S 
ATOM     21  O   UNL d   1     -47.528  31.672  35.344  0.00  0.00    -0.200 OA
ATOM     22  O   UNL d   1     -48.140  30.954  33.836  0.00  0.00    -0.200 OA
BRANCH  20  23
ATOM     23  N   UNL d   1     -47.894  32.066  34.256  0.00  0.00    -0.229 N 
ATOM     24  C   UNL d   1     -47.275  32.499  33.917  0.00  0.00     0.092 A 
ATOM     25  C   UNL d   1     -47.603  33.185  33.595  0.00  0.00     0.021 A 
ATOM     26  C   UNL d   1     -48.420  33.168  33.737  0.00  0.00     0.021 A 
ATOM     27  C   UNL d   1     -48.591  32.481  34.142  0.00  0.00     0.092 A 
ENDBRANCH  20  23
ENDBRANCH   1  20
TORSDOF 4
ENDMDL
MODEL 2
REMARK VINA RESULT:      69.9      2.286      5.974
REMARK  4 active torsions:
REMARK  status: ('A' for Active; 'I' for Inactive)
REMARK    1  A    between atoms: C_2  and  S_1 
REMARK    2  A    between atoms: N_3  and  S_1 
REMARK    3  A    between atoms: C_4  and  C_6 
REMARK       I    between atoms: N_7  and  C_4 
REMARK    4  A    between atoms: C_14  and  N_7 
ROOT
ATOM      1  C   UNL d   1     -50.875  25.531  33.676  0.00  0.00     0.104 A 
ATOM      2  C   UNL d   1     -50.671  26.295  33.901  0.00  0.00     0.018 A 
ATOM      3  C   UNL d   1     -49.875  26.500  33.984  0.00  0.00     0.059 A 
ATOM      4  C   UNL d   1     -50.291  24.969  33.532  0.00  0.00     0.012 A 
ATOM      5  C   UNL d   1     -49.286  25.940  33.841  0.00  0.00     0.005 A 
ATOM      6  C   UNL d   1     -49.496  25.174  33.615  0.00  0.00     0.001 A 
ATOM      7  C   UNL d   1     -50.496  24.205  33.306  0.00  0.00     0.001 C 
ENDROOT
BRANCH   3   8
ATOM      8  C   UNL d   1     -49.661  27.263  34.210  0.00  0.00     0.279 C 
ATOM      9  N   UNL d   1     -48.868  27.460  34.289  0.00  0.00    -0.208 NA
ATOM     10  O   UNL d   1     -50.243  27.825  34.356  0.00  0.00    -0.265 OA
BRANCH   9  11
ATOM     11  C   UNL d   1     -48.648  28.222  34.514  0.00  0.00     0.087 A 
ATOM     12  C   UNL d   1     -48.155  28.324  35.160  0.00  0.00     0.045 A 
ATOM     13  C   UNL d   1     -47.930  29.087  35.392  0.00  0.00     0.121 A 
ATOM     14  O   UNL d   1     -47.447  29.367  36.009  0.00  0.00    -0.299 OA
ATOM     15  C   UNL d   1     -48.206  29.738  34.968  0.00  0.00     0.119 A 
ATOM     16  C   UNL d   1     -47.431  30.187  35.958  0.00  0.00     0.304 A 
ATOM     17  O   UNL d   1     -47.899  30.428  35.315  0.00  0.00    -0.300 OA
ATOM     18  C   UNL d   1     -48.709  29.634  34.309  0.00  0.00     0.028 A 
ATOM     19  C   UNL d   1     -48.930  28.872  34.083  0.00  0.00     0.021 A 
ENDBRANCH   9  11
ENDBRANCH   3   8
BRANCH   1  20
ATOM     20  S   UNL d   1     -51.665  25.328  33.593  0.00  0.00     0.271 S 
ATOM     21  O   UNL d   1     -51.493  24.558  33.843  0.00  0.00    -0.200 OA
ATOM     22  O   UNL d   1     -51.862  26.213  33.306  0.00  0.00    -0.200 OA
BRANCH  20  23
ATOM     23  N   UNL d   1     -52.473  25.181  33.491  0.00  0.00    -0.229 N 
ATOM     24  C   UNL d   1     -53.066  25.758  33.482  0.00  0.00     0.092 A 
ATOM     25  C   UNL d   1     -53.785  25.369  33.367  0.00  0.00     0.021 A 
ATOM     26  C   UNL d   1     -53.629  24.556  33.307  0.00  0.00     0.021 A 
ATOM     27  C   UNL d   1     -52.824  24.448  33.384  0.00  0.00     0.092 A 
ENDBRANCH  20  23
ENDBRANCH   1  20
TORSDOF 4
ENDMDL
