MODEL 1
REMARK VINA RESULT:      -2.5      0.000      0.000
REMARK  4 active torsions:
REMARK  status: ('A' for Active; 'I' for Inactive)
REMARK    1  A    between atoms: N_7  and  C_1 
REMARK    2  A    between atoms: C_8  and  C_4 
REMARK    3  A    between atoms: C_10  and  N_7 
REMARK    4  A    between atoms: C_12  and  C_8 
ROOT
ATOM      1  C   UNL d   1      58.751  -0.958  29.349  0.00  0.00     0.184 A 
ATOM      2  N   UNL d   1      58.005  -1.107  29.682  0.00  0.00    -0.129 NA
ATOM      3  N   UNL d   1      57.772  -0.707  30.366  0.00  0.00    -0.147 NA
ATOM      4  C   UNL d   1      58.271  -0.164  30.718  0.00  0.00     0.103 A 
ATOM      5  C   UNL d   1      59.247  -0.411  29.709  0.00  0.00     0.039 A 
ATOM      6  C   UNL d   1      59.014  -0.010  30.394  0.00  0.00     0.022 A 
ATOM      7  C   UNL d   1      59.996  -0.266  29.368  0.00  0.00     0.003 A 
ATOM      8  C   UNL d   1      59.527   0.540  30.745  0.00  0.00     0.002 A 
ATOM      9  C   UNL d   1      60.258   0.682  30.413  0.00  0.00     0.000 A 
ATOM     10  C   UNL d   1      60.492   0.281  29.728  0.00  0.00     0.000 A 
ENDROOT
BRANCH   1  11
ATOM     11  N   UNL d   1      58.982  -1.354  28.672  0.00  0.00    -0.225 NA
BRANCH  11  12
ATOM     12  C   UNL d   1      58.925  -2.168  28.631  0.00  0.00     0.083 A 
ATOM     13  C   UNL d   1      58.198  -2.528  28.496  0.00  0.00     0.020 A 
ATOM     14  C   UNL d   1      58.145  -3.338  28.455  0.00  0.00     0.013 A 
ATOM     15  C   UNL d   1      58.808  -3.814  28.546  0.00  0.00     0.058 A 
ATOM     16  C   UNL d   1      59.539  -3.452  28.682  0.00  0.00     0.013 A 
ATOM     17 CL   UNL d   1      58.768  -4.618  28.508  0.00  0.00    -0.082 Cl
ATOM     18  C   UNL d   1      59.603  -2.629  28.725  0.00  0.00     0.020 A 
ENDBRANCH  11  12
ENDBRANCH   1  11
BRANCH   4  19
ATOM     19  C   UNL d   1      58.038   0.237  31.403  0.00  0.00     0.021 C 
BRANCH  19  20
ATOM     20  C   UNL d   1      57.299   0.074  31.745  0.00  0.00     0.005 A 
ATOM     21  C   UNL d   1      57.144  -0.671  32.039  0.00  0.00     0.021 A 
ATOM     22  C   UNL d   1      56.412  -0.827  32.377  0.00  0.00     0.099 A 
ATOM     23  N   UNL d   1      55.841  -0.237  32.418  0.00  0.00    -0.242 NA
ATOM     24  C   UNL d   1      56.000   0.512  32.121  0.00  0.00     0.099 A 
ATOM     25  C   UNL d   1      56.742   0.664  31.781  0.00  0.00     0.021 A 
ENDBRANCH  19  20
ENDBRANCH   4  19
TORSDOF 4
ENDMDL
MODEL 2
REMARK VINA RESULT:      -0.1      1.574      4.053
REMARK  4 active torsions:
REMARK  status: ('A' for Active; 'I' for Inactive)
REMARK    1  A    between atoms: N_7  and  C_1 
REMARK    2  A    between atoms: C_8  and  C_4 
REMARK    3  A    between atoms: C_10  and  N_7 
REMARK    4  A    between atoms: C_12  and  C_8 
ROOT
ATOM      1  C   UNL d   1      58.447  -0.055  30.486  0.00  0.00     0.184 A 
ATOM      2  N   UNL d   1      57.922  -0.640  30.218  0.00  0.00    -0.129 NA
ATOM      3  N   UNL d   1      58.143  -1.139  29.597  0.00  0.00    -0.147 NA
ATOM      4  C   UNL d   1      58.875  -1.060  29.244  0.00  0.00     0.103 A 
ATOM      5  C   UNL d   1      59.181   0.018  30.125  0.00  0.00     0.039 A 
ATOM      6  C   UNL d   1      59.403  -0.481  29.503  0.00  0.00     0.022 A 
ATOM      7  C   UNL d   1      59.703   0.609  30.400  0.00  0.00     0.003 A 
ATOM      8  C   UNL d   1      60.148  -0.394  29.150  0.00  0.00     0.002 A 
ATOM      9  C   UNL d   1      60.659   0.183  29.417  0.00  0.00     0.000 A 
ATOM     10  C   UNL d   1      60.438   0.682  30.039  0.00  0.00     0.000 A 
ENDROOT
BRANCH   1  11
ATOM     11  N   UNL d   1      58.228   0.438  31.100  0.00  0.00    -0.225 NA
BRANCH  11  12
ATOM     12  C   UNL d   1      57.555   0.281  31.535  0.00  0.00     0.083 A 
ATOM     13  C   UNL d   1      57.573  -0.272  32.143  0.00  0.00     0.020 A 
ATOM     14  C   UNL d   1      56.900  -0.425  32.575  0.00  0.00     0.013 A 
ATOM     15  C   UNL d   1      56.195  -0.037  32.417  0.00  0.00     0.058 A 
ATOM     16  C   UNL d   1      56.177   0.519  31.806  0.00  0.00     0.013 A 
ATOM     17 CL   UNL d   1      55.522  -0.180  32.838  0.00  0.00    -0.082 Cl
ATOM     18  C   UNL d   1      56.855   0.682  31.362  0.00  0.00     0.020 A 
ENDBRANCH  11  12
ENDBRANCH   1  11
BRANCH   4  19
ATOM     19  C   UNL d   1      59.096  -1.559  28.622  0.00  0.00     0.021 C 
BRANCH  19  20
ATOM     20  C   UNL d   1      58.962  -2.376  28.681  0.00  0.00     0.005 A 
ATOM     21  C   UNL d   1      58.241  -2.685  28.456  0.00  0.00     0.021 A 
ATOM     22  C   UNL d   1      58.112  -3.494  28.516  0.00  0.00     0.099 A 
ATOM     23  N   UNL d   1      58.706  -3.987  28.799  0.00  0.00    -0.242 NA
ATOM     24  C   UNL d   1      59.431  -3.673  29.025  0.00  0.00     0.099 A 
ATOM     25  C   UNL d   1      59.554  -2.855  28.962  0.00  0.00     0.021 A 
ENDBRANCH  19  20
ENDBRANCH   4  19
TORSDOF 4
ENDMDL
