MODEL 1
REMARK VINA RESULT:      54.5      0.000      0.000
REMARK  3 active torsions:
REMARK  status: ('A' for Active; 'I' for Inactive)
REMARK    1  A    between atoms: C_8  and  C_1 
REMARK    2  A    between atoms: N_4  and  C_2 
REMARK       I    between atoms: C_6  and  N_4 
REMARK    3  A    between atoms: C_9  and  C_6 
ROOT
ATOM      1  C   UNL d   1      57.863  49.704  51.566  0.00  0.00     0.177 A 
ATOM      2  C   UNL d   1      58.205  49.706  50.816  0.00  0.00     0.114 A 
ATOM      3  O   UNL d   1      57.033  49.704  51.476  0.00  0.00    -0.301 OA
ATOM      4  C   UNL d   1      57.601  49.706  50.257  0.00  0.00     0.043 A 
ATOM      5  C   UNL d   1      56.864  49.705  50.674  0.00  0.00     0.102 A 
ATOM      6  C   UNL d   1      57.607  49.707  49.437  0.00  0.00     0.004 A 
ATOM      7  C   UNL d   1      56.163  49.705  50.251  0.00  0.00     0.025 A 
ATOM      8  C   UNL d   1      56.898  49.707  49.006  0.00  0.00     0.000 A 
ATOM      9  C   UNL d   1      56.183  49.706  49.403  0.00  0.00     0.002 A 
ENDROOT
BRANCH   2  10
ATOM     10  N   UNL d   1      59.041  49.707  50.670  0.00  0.00    -0.206 NA
ATOM     11  C   UNL d   1      59.477  49.018  50.798  0.00  0.00     0.279 C 
ATOM     12  O   UNL d   1      59.112  48.308  51.072  0.00  0.00    -0.265 OA
BRANCH  11  13
ATOM     13  C   UNL d   1      60.297  49.010  50.659  0.00  0.00     0.058 A 
ATOM     14  C   UNL d   1      60.767  49.666  50.789  0.00  0.00     0.007 A 
ATOM     15  C   UNL d   1      61.585  49.638  50.643  0.00  0.00     0.030 A 
ATOM     16  C   UNL d   1      61.927  48.941  50.363  0.00  0.00     0.140 A 
ATOM     17  C   UNL d   1      61.470  48.281  50.229  0.00  0.00     0.030 A 
ATOM     18  F   UNL d   1      62.736  48.901  50.215  0.00  0.00    -0.204 F 
ATOM     19  C   UNL d   1      60.651  48.305  50.374  0.00  0.00     0.007 A 
ENDBRANCH  11  13
ENDBRANCH   2  10
BRANCH   1  20
ATOM     20  C   UNL d   1      58.295  49.704  52.267  0.00  0.00     0.321 C 
ATOM     21  O   UNL d   1      57.895  49.699  53.005  0.00  0.00    -0.261 OA
ATOM     22  N   UNL d   1      59.131  49.707  52.249  0.00  0.00    -0.101 N 
ENDBRANCH   1  20
TORSDOF 3
ENDMDL
