MODEL 1
REMARK VINA RESULT:      -1.6      0.000      0.000
REMARK  7 active torsions:
REMARK  status: ('A' for Active; 'I' for Inactive)
REMARK    1  A    between atoms: C_10  and  C_3 
REMARK    2  A    between atoms: N_12  and  C_4 
REMARK    3  A    between atoms: O_23  and  C_11 
REMARK    4  A    between atoms: C_25  and  N_12 
REMARK    5  A    between atoms: O_26  and  C_13 
REMARK    6  A    between atoms: C_18  and  C_28 
REMARK    7  A    between atoms: C_28  and  C_25 
ROOT
ATOM      1  C   UNL d   1      30.702  17.460 -24.291  0.00  0.00     0.168 A 
ATOM      2  N   UNL d   1      31.311  18.013 -24.453  0.00  0.00    -0.184 N 
ATOM      3  C   UNL d   1      29.950  17.620 -24.508  0.00  0.00     0.057 A 
ATOM      4  C   UNL d   1      32.053  17.840 -24.231  0.00  0.00     0.218 A 
ATOM      5  N   UNL d   1      30.366  18.860 -25.047  0.00  0.00    -0.160 NA
ATOM      6  N   UNL d   1      30.876  16.772 -23.918  0.00  0.00    -0.227 NA
ATOM      7  C   UNL d   1      32.239  17.146 -23.853  0.00  0.00     0.071 A 
ATOM      8  C   UNL d   1      29.776  18.325 -24.890  0.00  0.00     0.124 A 
ATOM      9  C   UNL d   1      31.640  16.602 -23.693  0.00  0.00     0.087 A 
ATOM     10  C   UNL d   1      31.825  15.876 -23.299  0.00  0.00     0.021 C 
ENDROOT
BRANCH   4  11
ATOM     11  N   UNL d   1      32.671  18.395 -24.393  0.00  0.00    -0.380 NA
BRANCH  11  12
ATOM     12  C   UNL d   1      33.225  19.024 -24.294  0.00  0.00     0.163 C 
BRANCH  12  13
ATOM     13  C   UNL d   1      33.227  19.652 -24.852  0.00  0.00     0.035 C 
BRANCH  13  14
ATOM     14  C   UNL d   1      33.229  20.447 -24.567  0.00  0.00     0.005 A 
ATOM     15  C   UNL d   1      33.222  20.584 -23.724  0.00  0.00     0.026 A 
ATOM     16  C   UNL d   1      33.224  21.386 -23.428  0.00  0.00     0.116 A 
ATOM     17  C   UNL d   1      33.234  22.038 -23.980  0.00  0.00     0.116 A 
ATOM     18  C   UNL d   1      33.241  21.891 -24.804  0.00  0.00     0.026 A 
ATOM     19  C   UNL d   1      33.238  21.086 -25.097  0.00  0.00     0.002 A 
BRANCH  16  20
ATOM     20  O   UNL d   1      33.217  21.529 -22.606  0.00  0.00    -0.326 OA
ATOM     21  C   UNL d   1      33.066  20.900 -22.067  0.00  0.00     0.181 C 
ENDBRANCH  16  20
BRANCH  17  22
ATOM     22  O   UNL d   1      33.236  22.827 -23.689  0.00  0.00    -0.326 OA
ATOM     23  C   UNL d   1      33.179  23.483 -24.222  0.00  0.00     0.181 C 
ENDBRANCH  17  22
ENDBRANCH  13  14
ENDBRANCH  12  13
ENDBRANCH  11  12
ENDBRANCH   4  11
BRANCH   3  24
ATOM     24  C   UNL d   1      29.360  17.085 -24.351  0.00  0.00     0.005 A 
ATOM     25  C   UNL d   1      29.210  16.491 -24.870  0.00  0.00     0.001 A 
ATOM     26  C   UNL d   1      28.620  15.956 -24.712  0.00  0.00     0.011 A 
ATOM     27  C   UNL d   1      28.188  16.022 -24.039  0.00  0.00     0.058 A 
ATOM     28  C   UNL d   1      28.348  16.625 -23.523  0.00  0.00     0.011 A 
ATOM     29 CL   UNL d   1      27.571  15.462 -23.874  0.00  0.00    -0.082 Cl
ATOM     30  C   UNL d   1      28.928  17.152 -23.677  0.00  0.00     0.001 A 
ENDBRANCH   3  24
TORSDOF 7
ENDMDL
