MODEL 1
REMARK VINA RESULT:      56.1      0.000      0.000
REMARK  5 active torsions:
REMARK  status: ('A' for Active; 'I' for Inactive)
REMARK    1  A    between atoms: N_3  and  C_1 
REMARK    2  A    between atoms: N_6  and  C_1 
REMARK       I    between atoms: C_2  and  N_4 
REMARK    3  A    between atoms: C_5  and  C_2 
REMARK    4  A    between atoms: C_7  and  N_3 
REMARK    5  A    between atoms: N_4  and  N_6 
ROOT
ATOM      1  N   UNL d   1      60.712  48.785  51.088  0.00  0.00    -0.273 N 
ATOM      2  H   UNL d   1      60.972  48.847  51.872  0.00  0.00     0.189 HD
ENDROOT
BRANCH   1   3
ATOM      3  N   UNL d   1      60.866  48.104  50.651  0.00  0.00    -0.264 N 
ATOM      4  C   UNL d   1      61.060  47.411  51.046  0.00  0.00     0.272 C 
ATOM      5  O   UNL d   1      61.101  47.396  51.873  0.00  0.00    -0.266 OA
ATOM      6  H   UNL d   1      60.825  48.119  49.837  0.00  0.00     0.190 HD
BRANCH   4   7
ATOM      7  C   UNL d   1      61.219  46.712  50.625  0.00  0.00     0.058 A 
ATOM      8  C   UNL d   1      60.990  45.989  50.924  0.00  0.00     0.011 A 
ATOM      9  C   UNL d   1      61.159  45.308  50.489  0.00  0.00     0.035 A 
ATOM     10 BR   UNL d   1      60.938  44.562  50.769  0.00  0.00    -0.049 Br
ATOM     11  C   UNL d   1      61.555  45.362  49.759  0.00  0.00     0.007 A 
ATOM     12  C   UNL d   1      61.784  46.097  49.462  0.00  0.00     0.001 A 
ATOM     13  C   UNL d   1      61.615  46.766  49.895  0.00  0.00     0.005 A 
ENDBRANCH   4   7
ENDBRANCH   1   3
BRANCH   1  14
ATOM     14  C   UNL d   1      60.301  49.395  50.737  0.00  0.00     0.191 C 
ATOM     15  S   UNL d   1      60.548  49.708  50.024  0.00  0.00    -0.039 SA
BRANCH  14  16
ATOM     16  N   UNL d   1      59.618  49.705  51.112  0.00  0.00    -0.331 N 
ATOM     17  H   UNL d   1      59.674  50.011  51.880  0.00  0.00     0.168 HD
BRANCH  16  18
ATOM     18  C   UNL d   1      58.899  49.703  50.717  0.00  0.00     0.058 A 
ATOM     19  C   UNL d   1      58.199  49.701  51.153  0.00  0.00     0.016 A 
ATOM     20  C   UNL d   1      58.223  49.703  51.981  0.00  0.00     0.002 C 
ATOM     21  C   UNL d   1      57.487  49.699  50.758  0.00  0.00     0.001 A 
ATOM     22  C   UNL d   1      57.464  49.698  49.942  0.00  0.00     0.000 A 
ATOM     23  C   UNL d   1      58.151  49.699  49.505  0.00  0.00     0.002 A 
ATOM     24  C   UNL d   1      58.875  49.701  49.901  0.00  0.00     0.017 A 
ENDBRANCH  16  18
ENDBRANCH  14  16
ENDBRANCH   1  14
TORSDOF 5
ENDMDL
MODEL 2
REMARK VINA RESULT:      58.3      0.972      1.352
REMARK  5 active torsions:
REMARK  status: ('A' for Active; 'I' for Inactive)
REMARK    1  A    between atoms: N_3  and  C_1 
REMARK    2  A    between atoms: N_6  and  C_1 
REMARK       I    between atoms: C_2  and  N_4 
REMARK    3  A    between atoms: C_5  and  C_2 
REMARK    4  A    between atoms: C_7  and  N_3 
REMARK    5  A    between atoms: N_4  and  N_6 
ROOT
ATOM      1  N   UNL d   1      61.294  48.164  50.676  0.00  0.00    -0.273 N 
ATOM      2  H   UNL d   1      61.079  47.960  51.449  0.00  0.00     0.189 HD
ENDROOT
BRANCH   1   3
ATOM      3  N   UNL d   1      61.562  47.587  50.153  0.00  0.00    -0.264 N 
ATOM      4  C   UNL d   1      61.521  46.797  50.373  0.00  0.00     0.272 C 
ATOM      5  O   UNL d   1      61.215  46.583  51.112  0.00  0.00    -0.266 OA
ATOM      6  H   UNL d   1      61.864  47.798  49.425  0.00  0.00     0.190 HD
BRANCH   4   7
ATOM      7  C   UNL d   1      61.786  46.198  49.861  0.00  0.00     0.058 A 
ATOM      8  C   UNL d   1      61.283  45.601  49.629  0.00  0.00     0.011 A 
ATOM      9  C   UNL d   1      61.567  45.017  49.120  0.00  0.00     0.035 A 
ATOM     10 BR   UNL d   1      61.077  44.399  48.869  0.00  0.00    -0.049 Br
ATOM     11  C   UNL d   1      62.355  45.040  48.850  0.00  0.00     0.007 A 
ATOM     12  C   UNL d   1      62.859  45.648  49.088  0.00  0.00     0.001 A 
ATOM     13  C   UNL d   1      62.573  46.222  49.591  0.00  0.00     0.005 A 
ENDBRANCH   4   7
ENDBRANCH   1   3
BRANCH   1  14
ATOM     14  C   UNL d   1      61.246  48.936  50.421  0.00  0.00     0.191 C 
ATOM     15  S   UNL d   1      61.517  49.148  49.681  0.00  0.00    -0.039 SA
BRANCH  14  16
ATOM     16  N   UNL d   1      60.913  49.520  50.925  0.00  0.00    -0.331 N 
ATOM     17  H   UNL d   1      61.410  50.036  51.339  0.00  0.00     0.168 HD
BRANCH  16  18
ATOM     18  C   UNL d   1      60.099  49.573  51.004  0.00  0.00     0.058 A 
ATOM     19  C   UNL d   1      59.770  49.628  51.759  0.00  0.00     0.016 A 
ATOM     20  C   UNL d   1      60.258  49.627  52.428  0.00  0.00     0.002 C 
ATOM     21  C   UNL d   1      58.961  49.681  51.834  0.00  0.00     0.001 A 
ATOM     22  C   UNL d   1      58.480  49.681  51.175  0.00  0.00     0.000 A 
ATOM     23  C   UNL d   1      58.798  49.628  50.426  0.00  0.00     0.002 A 
ATOM     24  C   UNL d   1      59.618  49.573  50.345  0.00  0.00     0.017 A 
ENDBRANCH  16  18
ENDBRANCH  14  16
ENDBRANCH   1  14
TORSDOF 5
ENDMDL
MODEL 3
REMARK VINA RESULT:      58.5      2.584      3.257
REMARK  5 active torsions:
REMARK  status: ('A' for Active; 'I' for Inactive)
REMARK    1  A    between atoms: N_3  and  C_1 
REMARK    2  A    between atoms: N_6  and  C_1 
REMARK       I    between atoms: C_2  and  N_4 
REMARK    3  A    between atoms: C_5  and  C_2 
REMARK    4  A    between atoms: C_7  and  N_3 
REMARK    5  A    between atoms: N_4  and  N_6 
ROOT
ATOM      1  N   UNL d   1      59.543  49.104  50.202  0.00  0.00    -0.273 N 
ATOM      2  H   UNL d   1      60.070  48.693  49.713  0.00  0.00     0.189 HD
ENDROOT
BRANCH   1   3
ATOM      3  N   UNL d   1      59.716  49.214  51.000  0.00  0.00    -0.264 N 
ATOM      4  C   UNL d   1      60.490  49.365  51.225  0.00  0.00     0.272 C 
ATOM      5  O   UNL d   1      61.092  49.406  50.658  0.00  0.00    -0.266 OA
ATOM      6  H   UNL d   1      59.123  49.173  51.559  0.00  0.00     0.190 HD
BRANCH   4   7
ATOM      7  C   UNL d   1      60.687  49.478  52.024  0.00  0.00     0.058 A 
ATOM      8  C   UNL d   1      61.466  49.492  52.261  0.00  0.00     0.011 A 
ATOM      9  C   UNL d   1      61.638  49.606  53.060  0.00  0.00     0.035 A 
ATOM     10 BR   UNL d   1      62.421  49.624  53.326  0.00  0.00    -0.049 Br
ATOM     11  C   UNL d   1      61.023  49.706  53.613  0.00  0.00     0.007 A 
ATOM     12  C   UNL d   1      60.236  49.691  53.367  0.00  0.00     0.001 A 
ATOM     13  C   UNL d   1      60.072  49.578  52.577  0.00  0.00     0.005 A 
ENDBRANCH   4   7
ENDBRANCH   1   3
BRANCH   1  14
ATOM     14  C   UNL d   1      58.848  49.406  49.903  0.00  0.00     0.191 C 
ATOM     15  S   UNL d   1      58.737  49.477  49.098  0.00  0.00    -0.039 SA
BRANCH  14  16
ATOM     16  N   UNL d   1      58.239  49.645  50.430  0.00  0.00    -0.331 N 
ATOM     17  H   UNL d   1      58.379  50.262  50.964  0.00  0.00     0.168 HD
BRANCH  16  18
ATOM     18  C   UNL d   1      57.512  49.267  50.411  0.00  0.00     0.058 A 
ATOM     19  C   UNL d   1      57.061  49.295  49.721  0.00  0.00     0.016 A 
ATOM     20  C   UNL d   1      57.341  49.699  49.055  0.00  0.00     0.002 C 
ATOM     21  C   UNL d   1      56.339  48.919  49.706  0.00  0.00     0.001 A 
ATOM     22  C   UNL d   1      56.063  48.520  50.362  0.00  0.00     0.000 A 
ATOM     23  C   UNL d   1      56.503  48.489  51.047  0.00  0.00     0.002 A 
ATOM     24  C   UNL d   1      57.235  48.868  51.067  0.00  0.00     0.017 A 
ENDBRANCH  16  18
ENDBRANCH  14  16
ENDBRANCH   1  14
TORSDOF 5
ENDMDL
