MODEL 1
REMARK VINA RESULT:      -1.4      0.000      0.000
REMARK  3 active torsions:
REMARK  status: ('A' for Active; 'I' for Inactive)
REMARK    1  A    between atoms: C_9  and  N_1 
REMARK    2  A    between atoms: C_8  and  C_3 
REMARK    3  A    between atoms: C_17  and  C_9 
ROOT
ATOM      1  N   UNL d   1      32.907  22.075 -21.858  0.00  0.00    -0.269 N 
ATOM      2  N   UNL d   1      32.296  21.251 -20.999  0.00  0.00    -0.204 NA
ATOM      3  C   UNL d   1      32.557  22.026 -21.110  0.00  0.00     0.174 A 
ATOM      4  C   UNL d   1      32.862  21.329 -22.207  0.00  0.00     0.185 A 
ATOM      5  C   UNL d   1      32.483  20.816 -21.676  0.00  0.00     0.199 A 
ATOM      6  N   UNL d   1      33.115  21.045 -22.940  0.00  0.00    -0.224 NA
ATOM      7  N   UNL d   1      32.360  20.032 -21.876  0.00  0.00    -0.223 NA
ATOM      8  C   UNL d   1      32.988  20.250 -23.138  0.00  0.00     0.101 A 
ATOM      9  C   UNL d   1      32.609  19.744 -22.602  0.00  0.00     0.101 A 
ATOM     10  C   UNL d   1      33.241  19.962 -23.873  0.00  0.00     0.021 A 
ATOM     11  C   UNL d   1      32.487  18.961 -22.802  0.00  0.00     0.021 A 
ATOM     12  C   UNL d   1      33.114  19.175 -24.066  0.00  0.00     0.002 A 
ATOM     13  C   UNL d   1      32.736  18.673 -23.529  0.00  0.00     0.002 A 
ENDROOT
BRANCH   1  14
ATOM     14  C   UNL d   1      33.241  22.742 -22.197  0.00  0.00     0.108 C 
BRANCH  14  15
ATOM     15  C   UNL d   1      32.876  23.094 -22.847  0.00  0.00     0.118 A 
ATOM     16  O   UNL d   1      32.100  23.374 -22.879  0.00  0.00    -0.304 OA
ATOM     17  C   UNL d   1      31.967  23.680 -23.630  0.00  0.00     0.123 A 
ATOM     18  C   UNL d   1      32.660  23.592 -24.067  0.00  0.00     0.029 A 
ATOM     19  C   UNL d   1      33.220  23.231 -23.584  0.00  0.00     0.028 A 
ENDBRANCH  14  15
ENDBRANCH   1  14
BRANCH   3  20
ATOM     20  C   UNL d   1      32.479  22.639 -20.568  0.00  0.00     0.135 A 
ATOM     21  O   UNL d   1      33.110  23.108 -20.297  0.00  0.00    -0.302 OA
ATOM     22  C   UNL d   1      32.766  23.699 -19.718  0.00  0.00     0.123 A 
ATOM     23  C   UNL d   1      31.922  23.558 -19.663  0.00  0.00     0.029 A 
ATOM     24  C   UNL d   1      31.741  22.887 -20.201  0.00  0.00     0.030 A 
ENDBRANCH   3  20
TORSDOF 3
ENDMDL
MODEL 2
REMARK VINA RESULT:      -1.3      3.904      5.992
REMARK  3 active torsions:
REMARK  status: ('A' for Active; 'I' for Inactive)
REMARK    1  A    between atoms: C_9  and  N_1 
REMARK    2  A    between atoms: C_8  and  C_3 
REMARK    3  A    between atoms: C_17  and  C_9 
ROOT
ATOM      1  N   UNL d   1      31.460  17.311 -24.404  0.00  0.00    -0.269 N 
ATOM      2  N   UNL d   1      30.721  18.395 -24.142  0.00  0.00    -0.204 NA
ATOM      3  C   UNL d   1      31.487  18.131 -24.299  0.00  0.00     0.174 A 
ATOM      4  C   UNL d   1      30.677  17.070 -24.310  0.00  0.00     0.185 A 
ATOM      5  C   UNL d   1      30.216  17.742 -24.147  0.00  0.00     0.199 A 
ATOM      6  N   UNL d   1      30.318  16.327 -24.351  0.00  0.00    -0.224 NA
ATOM      7  N   UNL d   1      29.410  17.669 -24.028  0.00  0.00    -0.223 NA
ATOM      8  C   UNL d   1      29.500  16.260 -24.228  0.00  0.00     0.101 A 
ATOM      9  C   UNL d   1      29.048  16.935 -24.067  0.00  0.00     0.101 A 
ATOM     10  C   UNL d   1      29.136  15.516 -24.269  0.00  0.00     0.021 A 
ATOM     11  C   UNL d   1      28.242  16.862 -23.947  0.00  0.00     0.021 A 
ATOM     12  C   UNL d   1      28.328  15.453 -24.147  0.00  0.00     0.002 A 
ATOM     13  C   UNL d   1      27.880  16.127 -23.986  0.00  0.00     0.002 A 
ENDROOT
BRANCH   1  14
ATOM     14  C   UNL d   1      32.095  16.819 -24.570  0.00  0.00     0.108 C 
BRANCH  14  15
ATOM     15  C   UNL d   1      32.435  16.376 -23.966  0.00  0.00     0.118 A 
ATOM     16  O   UNL d   1      32.240  16.413 -23.164  0.00  0.00    -0.304 OA
ATOM     17  C   UNL d   1      32.714  15.877 -22.758  0.00  0.00     0.123 A 
ATOM     18  C   UNL d   1      33.204  15.506 -23.306  0.00  0.00     0.029 A 
ATOM     19  C   UNL d   1      33.032  15.813 -24.051  0.00  0.00     0.028 A 
ENDBRANCH  14  15
ENDBRANCH   1  14
BRANCH   3  20
ATOM     20  C   UNL d   1      32.156  18.606 -24.344  0.00  0.00     0.135 A 
ATOM     21  O   UNL d   1      32.549  18.926 -23.683  0.00  0.00    -0.302 OA
ATOM     22  C   UNL d   1      33.241  19.401 -23.997  0.00  0.00     0.123 A 
ATOM     23  C   UNL d   1      33.237  19.345 -24.852  0.00  0.00     0.029 A 
ATOM     24  C   UNL d   1      32.550  18.842 -25.072  0.00  0.00     0.030 A 
ENDBRANCH   3  20
TORSDOF 3
ENDMDL
MODEL 3
REMARK VINA RESULT:      -0.2      1.516      4.194
REMARK  3 active torsions:
REMARK  status: ('A' for Active; 'I' for Inactive)
REMARK    1  A    between atoms: C_9  and  N_1 
REMARK    2  A    between atoms: C_8  and  C_3 
REMARK    3  A    between atoms: C_17  and  C_9 
ROOT
ATOM      1  N   UNL d   1      32.914  22.517 -21.032  0.00  0.00    -0.269 N 
ATOM      2  N   UNL d   1      32.317  23.702 -20.866  0.00  0.00    -0.204 NA
ATOM      3  C   UNL d   1      32.572  23.156 -21.430  0.00  0.00     0.174 A 
ATOM      4  C   UNL d   1      32.870  22.670 -20.223  0.00  0.00     0.185 A 
ATOM      5  C   UNL d   1      32.499  23.406 -20.117  0.00  0.00     0.199 A 
ATOM      6  N   UNL d   1      33.117  22.238 -19.564  0.00  0.00    -0.224 NA
ATOM      7  N   UNL d   1      32.380  23.702 -19.365  0.00  0.00    -0.223 NA
ATOM      8  C   UNL d   1      32.992  22.544 -18.803  0.00  0.00     0.101 A 
ATOM      9  C   UNL d   1      32.623  23.278 -18.706  0.00  0.00     0.101 A 
ATOM     10  C   UNL d   1      33.240  22.112 -18.139  0.00  0.00     0.021 A 
ATOM     11  C   UNL d   1      32.503  23.575 -17.954  0.00  0.00     0.021 A 
ATOM     12  C   UNL d   1      33.115  22.417 -17.388  0.00  0.00     0.002 A 
ATOM     13  C   UNL d   1      32.746  23.150 -17.295  0.00  0.00     0.002 A 
ENDROOT
BRANCH   1  14
ATOM     14  C   UNL d   1      33.240  21.847 -21.375  0.00  0.00     0.108 C 
BRANCH  14  15
ATOM     15  C   UNL d   1      32.828  21.135 -21.349  0.00  0.00     0.118 A 
ATOM     16  O   UNL d   1      32.035  21.037 -21.139  0.00  0.00    -0.304 OA
ATOM     17  C   UNL d   1      31.852  20.237 -21.188  0.00  0.00     0.123 A 
ATOM     18  C   UNL d   1      32.531  19.835 -21.427  0.00  0.00     0.029 A 
ATOM     19  C   UNL d   1      33.132  20.389 -21.526  0.00  0.00     0.028 A 
ENDBRANCH  14  15
ENDBRANCH   1  14
BRANCH   3  20
ATOM     20  C   UNL d   1      32.496  23.239 -22.244  0.00  0.00     0.135 A 
ATOM     21  O   UNL d   1      31.796  23.086 -22.668  0.00  0.00    -0.302 OA
ATOM     22  C   UNL d   1      31.974  23.250 -23.531  0.00  0.00     0.123 A 
ATOM     23  C   UNL d   1      32.790  23.501 -23.592  0.00  0.00     0.029 A 
ATOM     24  C   UNL d   1      33.121  23.494 -22.778  0.00  0.00     0.030 A 
ENDBRANCH   3  20
TORSDOF 3
ENDMDL
MODEL 4
REMARK VINA RESULT:       1.0      1.351      2.800
REMARK  3 active torsions:
REMARK  status: ('A' for Active; 'I' for Inactive)
REMARK    1  A    between atoms: C_9  and  N_1 
REMARK    2  A    between atoms: C_8  and  C_3 
REMARK    3  A    between atoms: C_17  and  C_9 
ROOT
ATOM      1  N   UNL d   1      32.950  22.276 -21.324  0.00  0.00    -0.269 N 
ATOM      2  N   UNL d   1      32.588  23.563 -21.381  0.00  0.00    -0.204 NA
ATOM      3  C   UNL d   1      32.727  22.930 -20.870  0.00  0.00     0.174 A 
ATOM      4  C   UNL d   1      32.948  22.507 -22.117  0.00  0.00     0.185 A 
ATOM      5  C   UNL d   1      32.724  23.306 -22.154  0.00  0.00     0.199 A 
ATOM      6  N   UNL d   1      33.121  22.097 -22.813  0.00  0.00    -0.224 NA
ATOM      7  N   UNL d   1      32.673  23.686 -22.876  0.00  0.00    -0.223 NA
ATOM      8  C   UNL d   1      33.068  22.488 -23.542  0.00  0.00     0.101 A 
ATOM      9  C   UNL d   1      32.844  23.285 -23.571  0.00  0.00     0.101 A 
ATOM     10  C   UNL d   1      33.241  22.079 -24.243  0.00  0.00     0.021 A 
ATOM     11  C   UNL d   1      32.793  23.665 -24.293  0.00  0.00     0.021 A 
ATOM     12  C   UNL d   1      33.188  22.469 -24.963  0.00  0.00     0.002 A 
ATOM     13  C   UNL d   1      32.964  23.263 -24.988  0.00  0.00     0.002 A 
ENDROOT
BRANCH   1  14
ATOM     14  C   UNL d   1      33.140  21.529 -21.045  0.00  0.00     0.108 C 
BRANCH  14  15
ATOM     15  C   UNL d   1      32.710  20.877 -21.304  0.00  0.00     0.118 A 
ATOM     16  O   UNL d   1      31.900  20.858 -21.464  0.00  0.00    -0.304 OA
ATOM     17  C   UNL d   1      31.703  20.097 -21.708  0.00  0.00     0.123 A 
ATOM     18  C   UNL d   1      32.390  19.642 -21.701  0.00  0.00     0.029 A 
ATOM     19  C   UNL d   1      33.011  20.122 -21.452  0.00  0.00     0.028 A 
ENDBRANCH  14  15
ENDBRANCH   1  14
BRANCH   3  20
ATOM     20  C   UNL d   1      32.655  22.952 -20.052  0.00  0.00     0.135 A 
ATOM     21  O   UNL d   1      33.241  22.690 -19.522  0.00  0.00    -0.302 OA
ATOM     22  C   UNL d   1      32.921  22.820 -18.695  0.00  0.00     0.123 A 
ATOM     23  C   UNL d   1      32.139  23.163 -18.762  0.00  0.00     0.029 A 
ATOM     24  C   UNL d   1      31.970  23.246 -19.621  0.00  0.00     0.030 A 
ENDBRANCH   3  20
TORSDOF 3
ENDMDL
MODEL 5
REMARK VINA RESULT:       1.5      1.359      2.897
REMARK  3 active torsions:
REMARK  status: ('A' for Active; 'I' for Inactive)
REMARK    1  A    between atoms: C_9  and  N_1 
REMARK    2  A    between atoms: C_8  and  C_3 
REMARK    3  A    between atoms: C_17  and  C_9 
ROOT
ATOM      1  N   UNL d   1      33.211  21.082 -22.987  0.00  0.00    -0.269 N 
ATOM      2  N   UNL d   1      33.157  20.777 -24.287  0.00  0.00    -0.204 NA
ATOM      3  C   UNL d   1      33.181  21.401 -23.749  0.00  0.00     0.174 A 
ATOM      4  C   UNL d   1      33.207  20.260 -23.056  0.00  0.00     0.185 A 
ATOM      5  C   UNL d   1      33.174  20.068 -23.864  0.00  0.00     0.199 A 
ATOM      6  N   UNL d   1      33.229  19.657 -22.493  0.00  0.00    -0.224 NA
ATOM      7  N   UNL d   1      33.162  19.285 -24.101  0.00  0.00    -0.223 NA
ATOM      8  C   UNL d   1      33.218  18.865 -22.739  0.00  0.00     0.101 A 
ATOM      9  C   UNL d   1      33.184  18.682 -23.546  0.00  0.00     0.101 A 
ATOM     10  C   UNL d   1      33.240  18.256 -22.175  0.00  0.00     0.021 A 
ATOM     11  C   UNL d   1      33.173  17.899 -23.783  0.00  0.00     0.021 A 
ATOM     12  C   UNL d   1      33.228  17.475 -22.422  0.00  0.00     0.002 A 
ATOM     13  C   UNL d   1      33.195  17.296 -23.228  0.00  0.00     0.002 A 
ENDROOT
BRANCH   1  14
ATOM     14  C   UNL d   1      33.241  21.501 -22.283  0.00  0.00     0.108 C 
BRANCH  14  15
ATOM     15  C   UNL d   1      32.670  21.368 -21.705  0.00  0.00     0.118 A 
ATOM     16  O   UNL d   1      31.859  21.268 -21.834  0.00  0.00    -0.304 OA
ATOM     17  C   UNL d   1      31.496  21.149 -21.106  0.00  0.00     0.123 A 
ATOM     18  C   UNL d   1      32.078  21.173 -20.524  0.00  0.00     0.029 A 
ATOM     19  C   UNL d   1      32.801  21.308 -20.893  0.00  0.00     0.028 A 
ENDBRANCH  14  15
ENDBRANCH   1  14
BRANCH   3  20
ATOM     20  C   UNL d   1      33.174  22.199 -23.942  0.00  0.00     0.135 A 
ATOM     21  O   UNL d   1      33.163  22.817 -23.384  0.00  0.00    -0.302 OA
ATOM     22  C   UNL d   1      33.159  23.585 -23.847  0.00  0.00     0.123 A 
ATOM     23  C   UNL d   1      33.168  23.394 -24.682  0.00  0.00     0.029 A 
ATOM     24  C   UNL d   1      33.178  22.517 -24.742  0.00  0.00     0.030 A 
ENDBRANCH   3  20
TORSDOF 3
ENDMDL
