MODEL 1
REMARK VINA RESULT:      95.8      0.000      0.000
REMARK  4 active torsions:
REMARK  status: ('A' for Active; 'I' for Inactive)
REMARK    1  A    between atoms: C_17  and  N_3 
REMARK    2  A    between atoms: C_9  and  C_5 
REMARK    3  A    between atoms: O_21  and  C_12 
REMARK    4  A    between atoms: C_19  and  C_17 
ROOT
ATOM      1  C   UNL d   1     -56.393-102.773 -38.460  0.00  0.00     0.083 A 
ATOM      2  C   UNL d   1     -57.062-102.798 -37.985  0.00  0.00     0.161 A 
ATOM      3  N   UNL d   1     -57.487-102.839 -39.267  0.00  0.00    -0.272 N 
ATOM      4  C   UNL d   1     -57.731-102.838 -38.470  0.00  0.00     0.288 A 
ATOM      5  C   UNL d   1     -56.657-102.799 -39.272  0.00  0.00     0.072 A 
ATOM      6  C   UNL d   1     -55.637-102.731 -38.131  0.00  0.00     0.201 A 
ATOM      7  O   UNL d   1     -56.970-102.780 -37.154  0.00  0.00    -0.302 OA
ATOM      8  C   UNL d   1     -55.551-102.713 -37.307  0.00  0.00     0.062 A 
ATOM      9  C   UNL d   1     -56.223-102.738 -36.815  0.00  0.00     0.103 A 
ATOM     10  O   UNL d   1     -58.517-102.873 -38.213  0.00  0.00    -0.264 OA
ATOM     11  O   UNL d   1     -54.972-102.706 -38.618  0.00  0.00    -0.286 OA
ATOM     12  C   UNL d   1     -54.794-102.671 -36.970  0.00  0.00     0.005 A 
ATOM     13  C   UNL d   1     -56.131-102.721 -35.991  0.00  0.00     0.025 A 
ATOM     14  C   UNL d   1     -54.713-102.654 -36.146  0.00  0.00     0.000 A 
ATOM     15  C   UNL d   1     -55.378-102.678 -35.659  0.00  0.00     0.002 A 
ENDROOT
BRANCH   5  16
ATOM     16  C   UNL d   1     -56.173-102.786 -39.937  0.00  0.00     0.019 A 
ATOM     17  C   UNL d   1     -56.503-102.765 -40.684  0.00  0.00     0.029 A 
ATOM     18  C   UNL d   1     -56.030-102.752 -41.356  0.00  0.00     0.133 A 
ATOM     19  C   UNL d   1     -55.209-102.760 -41.271  0.00  0.00     0.218 A 
ATOM     20  C   UNL d   1     -54.870-102.781 -40.512  0.00  0.00     0.044 A 
ATOM     21  O   UNL d   1     -54.722-102.746 -41.938  0.00  0.00    -0.284 OA
ATOM     22  C   UNL d   1     -55.354-102.794 -39.854  0.00  0.00     0.005 A 
BRANCH  18  23
ATOM     23  O   UNL d   1     -56.361-102.731 -42.104  0.00  0.00    -0.325 OA
ATOM     24  C   UNL d   1     -55.901-102.503 -42.755  0.00  0.00     0.181 C 
ENDBRANCH  18  23
ENDBRANCH   5  16
BRANCH   3  25
ATOM     25  C   UNL d   1     -57.973-102.874 -39.932  0.00  0.00     0.083 C 
BRANCH  25  26
ATOM     26  C   UNL d   1     -58.763-102.650 -39.879  0.00  0.00     0.019 C 
ATOM     27  C   UNL d   1     -58.974-101.977 -39.452  0.00  0.00     0.002 C 
ENDBRANCH  25  26
ENDBRANCH   3  25
TORSDOF 4
ENDMDL
