MODEL 1
REMARK VINA RESULT:       3.4      0.000      0.000
REMARK  1 active torsions:
REMARK  status: ('A' for Active; 'I' for Inactive)
REMARK    1  A    between atoms: C_5  and  C_1 
ROOT
ATOM      1  C   UNL d   1      45.558 -15.016  36.917  0.00  0.00     0.164 A 
ATOM      2  O   UNL d   1      45.407 -15.856  36.664  0.00  0.00    -0.301 OA
ATOM      3  C   UNL d   1      44.835 -14.655  36.966  0.00  0.00     0.033 A 
ATOM      4  C   UNL d   1      44.242 -15.173  36.772  0.00  0.00     0.025 A 
ATOM      5  C   UNL d   1      44.594 -15.912  36.586  0.00  0.00     0.100 A 
ATOM      6  C   UNL d   1      43.419 -15.080  36.737  0.00  0.00     0.009 A 
ATOM      7  C   UNL d   1      44.117 -16.543  36.368  0.00  0.00     0.025 A 
ATOM      8  C   UNL d   1      42.950 -15.725  36.516  0.00  0.00     0.035 A 
ATOM      9  C   UNL d   1      43.302 -16.463  36.330  0.00  0.00     0.009 A 
ATOM     10 BR   UNL d   1      42.125 -15.632  36.481  0.00  0.00    -0.049 Br
ENDROOT
BRANCH   1  11
ATOM     11  C   UNL d   1      46.268 -14.630  37.082  0.00  0.00     0.235 C 
ATOM     12  O   UNL d   1      46.637 -14.153  36.514  0.00  0.00    -0.642 OA
ATOM     13  O   UNL d   1      46.647 -14.699  37.819  0.00  0.00    -0.642 OA
ENDBRANCH   1  11
TORSDOF 1
ENDMDL
MODEL 2
REMARK VINA RESULT:       4.0      1.957      3.012
REMARK  1 active torsions:
REMARK  status: ('A' for Active; 'I' for Inactive)
REMARK    1  A    between atoms: C_5  and  C_1 
ROOT
ATOM      1  C   UNL d   1      43.421 -15.590  36.794  0.00  0.00     0.164 A 
ATOM      2  O   UNL d   1      44.036 -16.126  36.435  0.00  0.00    -0.301 OA
ATOM      3  C   UNL d   1      43.816 -14.942  37.079  0.00  0.00     0.033 A 
ATOM      4  C   UNL d   1      44.612 -15.009  36.941  0.00  0.00     0.025 A 
ATOM      5  C   UNL d   1      44.747 -15.737  36.545  0.00  0.00     0.100 A 
ATOM      6  C   UNL d   1      45.245 -14.505  37.121  0.00  0.00     0.009 A 
ATOM      7  C   UNL d   1      45.513 -15.947  36.337  0.00  0.00     0.025 A 
ATOM      8  C   UNL d   1      46.012 -14.729  36.905  0.00  0.00     0.035 A 
ATOM      9  C   UNL d   1      46.147 -15.457  36.509  0.00  0.00     0.009 A 
ATOM     10 BR   UNL d   1      46.647 -14.224  37.084  0.00  0.00    -0.049 Br
ENDROOT
BRANCH   1  11
ATOM     11  C   UNL d   1      42.604 -15.683  36.851  0.00  0.00     0.235 C 
ATOM     12  O   UNL d   1      42.168 -15.286  37.433  0.00  0.00    -0.642 OA
ATOM     13  O   UNL d   1      42.179 -16.176  36.332  0.00  0.00    -0.642 OA
ENDBRANCH   1  11
TORSDOF 1
ENDMDL
