MODEL 1
REMARK VINA RESULT:      70.5      0.000      0.000
REMARK  6 active torsions:
REMARK  status: ('A' for Active; 'I' for Inactive)
REMARK    1  A    between atoms: C_5  and  N_1 
REMARK    2  A    between atoms: C_7  and  C_3 
REMARK    3  A    between atoms: C_12  and  C_4 
REMARK    4  A    between atoms: N_14  and  C_5 
REMARK    5  A    between atoms: O_16  and  C_9 
REMARK    6  A    between atoms: O_17  and  C_11 
ROOT
ATOM      1  N   UNL d   1     -55.259-100.626 -43.851  0.00  0.00    -0.203 N 
ATOM      2  N   UNL d   1     -54.867-101.061 -43.268  0.00  0.00    -0.163 NA
ATOM      3  C   UNL d   1     -56.008-100.451 -43.564  0.00  0.00     0.087 A 
ATOM      4  C   UNL d   1     -55.362-101.151 -42.638  0.00  0.00     0.103 A 
ATOM      5  C   UNL d   1     -56.066-100.778 -42.814  0.00  0.00     0.040 A 
ENDROOT
BRANCH   3   6
ATOM      6  C   UNL d   1     -56.606-100.022 -43.952  0.00  0.00     0.020 A 
ATOM      7  C   UNL d   1     -57.175 -99.615 -43.543  0.00  0.00     0.028 A 
ATOM      8  C   UNL d   1     -57.762 -99.195 -43.928  0.00  0.00     0.116 A 
ATOM      9  C   UNL d   1     -57.777 -99.183 -44.738  0.00  0.00     0.116 A 
ATOM     10  C   UNL d   1     -57.206 -99.592 -45.170  0.00  0.00     0.026 A 
ATOM     11  C   UNL d   1     -56.619-100.012 -44.785  0.00  0.00     0.004 A 
BRANCH   8  12
ATOM     12  O   UNL d   1     -58.347 -98.776 -43.514  0.00  0.00    -0.326 OA
ATOM     13  C   UNL d   1     -59.052 -99.153 -43.294  0.00  0.00     0.181 C 
ENDBRANCH   8  12
BRANCH   9  14
ATOM     14  O   UNL d   1     -58.374 -98.755 -45.144  0.00  0.00    -0.326 OA
ATOM     15  C   UNL d   1     -58.620 -98.971 -45.898  0.00  0.00     0.181 C 
ENDBRANCH   9  14
ENDBRANCH   3   6
BRANCH   1  16
ATOM     16  C   UNL d   1     -54.941-100.412 -44.590  0.00  0.00     0.222 C 
ATOM     17  S   UNL d   1     -54.838-100.977 -45.198  0.00  0.00    -0.037 SA
BRANCH  16  18
ATOM     18  N   UNL d   1     -54.712 -99.612 -44.742  0.00  0.00    -0.214 NA
ATOM     19  C   UNL d   1     -54.761 -99.320 -45.528  0.00  0.00     0.122 C 
ENDBRANCH  16  18
ENDBRANCH   1  16
BRANCH   4  20
ATOM     20  C   UNL d   1     -55.145-101.564 -41.947  0.00  0.00     0.019 A 
ATOM     21  C   UNL d   1     -55.071-102.375 -41.962  0.00  0.00     0.002 A 
ATOM     22  C   UNL d   1     -54.854-102.807 -41.277  0.00  0.00     0.000 A 
ATOM     23  C   UNL d   1     -54.712-102.387 -40.566  0.00  0.00     0.000 A 
ATOM     24  C   UNL d   1     -54.793-101.551 -40.568  0.00  0.00     0.000 A 
ATOM     25  C   UNL d   1     -55.006-101.146 -41.245  0.00  0.00     0.002 A 
ENDBRANCH   4  20
TORSDOF 6
ENDMDL
