MODEL 1
REMARK VINA RESULT:      26.3      0.000      0.000
REMARK  4 active torsions:
REMARK  status: ('A' for Active; 'I' for Inactive)
REMARK    1  A    between atoms: C_6  and  C_1 
REMARK    2  A    between atoms: C_4  and  C_8 
REMARK    3  A    between atoms: O_18  and  C_6 
REMARK    4  A    between atoms: C_19  and  O_18 
ROOT
ATOM      1  C   UNL d   1      60.243  49.571  50.752  0.00  0.00     0.121 A 
ATOM      2  C   UNL d   1      58.842  49.588  50.493  0.00  0.00     0.057 A 
ATOM      3  C   UNL d   1      59.471  49.544  51.025  0.00  0.00     0.204 A 
ATOM      4  C   UNL d   1      58.068  49.560  50.775  0.00  0.00     0.009 A 
ATOM      5  N   UNL d   1      59.765  49.690  49.404  0.00  0.00    -0.244 NA
ATOM      6  C   UNL d   1      57.439  49.604  50.247  0.00  0.00     0.072 A 
ATOM      7  C   UNL d   1      60.395  49.645  49.936  0.00  0.00     0.107 A 
ATOM      8  C   UNL d   1      58.985  49.661  49.684  0.00  0.00     0.085 A 
ATOM      9  C   UNL d   1      57.581  49.677  49.438  0.00  0.00     0.005 A 
ATOM     10  C   UNL d   1      58.354  49.705  49.157  0.00  0.00     0.019 A 
ATOM     11  O   UNL d   1      59.325  49.471  51.834  0.00  0.00    -0.286 OA
ENDROOT
BRANCH   1  12
ATOM     12  C   UNL d   1      60.873  49.527  51.279  0.00  0.00     0.305 C 
ATOM     13  O   UNL d   1      61.639  49.404  50.998  0.00  0.00    -0.259 OA
BRANCH  12  14
ATOM     14  O   UNL d   1      60.745  49.606  52.094  0.00  0.00    -0.271 OA
BRANCH  14  15
ATOM     15  C   UNL d   1      61.272  49.260  52.626  0.00  0.00     0.126 C 
ATOM     16  C   UNL d   1      61.499  49.676  53.304  0.00  0.00     0.029 C 
ENDBRANCH  14  15
ENDBRANCH  12  14
ENDBRANCH   1  12
BRANCH   6  17
ATOM     17  C   UNL d   1      56.665  49.575  50.529  0.00  0.00     0.419 C 
ATOM     18  F   UNL d   1      56.518  49.634  51.339  0.00  0.00    -0.166 F 
ATOM     19  F   UNL d   1      56.036  49.487  50.000  0.00  0.00    -0.166 F 
ATOM     20  F   UNL d   1      56.808  49.516  49.719  0.00  0.00    -0.166 F 
ENDBRANCH   6  17
TORSDOF 4
ENDMDL
