MODEL 1
REMARK VINA RESULT:      -7.9      0.000      0.000
REMARK  9 active torsions:
REMARK  status: ('A' for Active; 'I' for Inactive)
REMARK    1  A    between atoms: C_8  and  S_1 
REMARK    2  A    between atoms: C_2  and  N_3 
REMARK    3  A    between atoms: N_4  and  C_2 
REMARK    4  A    between atoms: C_6  and  C_2 
REMARK    5  A    between atoms: N_3  and  C_5 
REMARK       I    between atoms: C_7  and  N_4 
REMARK    6  A    between atoms: C_5  and  N_9 
REMARK    7  A    between atoms: C_13  and  C_7 
REMARK    8  A    between atoms: N_9  and  C_23 
REMARK    9  A    between atoms: O_29  and  C_24 
ROOT
ATOM      1  C   UNL d   1      53.147  33.527  54.058  0.00  0.00     0.238 C 
ENDROOT
BRANCH   1   2
ATOM      2  N   UNL d   1      52.377  33.716  53.796  0.00  0.00    -0.188 NA
BRANCH   2   3
ATOM      3  C   UNL d   1      52.037  34.085  53.138  0.00  0.00     0.223 C 
ATOM      4  S   UNL d   1      52.276  34.805  52.909  0.00  0.00    -0.037 SA
BRANCH   3   5
ATOM      5  N   UNL d   1      51.450  33.674  52.738  0.00  0.00    -0.217 NA
BRANCH   5   6
ATOM      6  C   UNL d   1      50.740  34.035  52.530  0.00  0.00     0.084 A 
ATOM      7  C   UNL d   1      50.250  34.376  53.088  0.00  0.00     0.020 A 
ATOM      8  C   UNL d   1      49.543  34.736  52.891  0.00  0.00     0.015 A 
ATOM      9  C   UNL d   1      49.315  34.757  52.103  0.00  0.00     0.107 A 
ATOM     10  C   UNL d   1      49.787  34.421  51.511  0.00  0.00     0.015 A 
ATOM     11  C   UNL d   1      50.494  34.064  51.739  0.00  0.00     0.020 A 
BRANCH   9  12
ATOM     12  S   UNL d   1      48.591  35.124  51.892  0.00  0.00     0.302 S 
ATOM     13  O   UNL d   1      48.636  34.778  51.143  0.00  0.00    -0.197 OA
ATOM     14  O   UNL d   1      48.557  35.468  52.650  0.00  0.00    -0.197 OA
ATOM     15  N   UNL d   1      47.875  35.490  51.690  0.00  0.00    -0.043 N 
ENDBRANCH   9  12
ENDBRANCH   5   6
ENDBRANCH   3   5
ENDBRANCH   2   3
ENDBRANCH   1   2
BRANCH   1  16
ATOM     16  N   UNL d   1      53.425  32.998  53.848  0.00  0.00    -0.346 NA
ATOM     17  C   UNL d   1      53.889  32.382  53.507  0.00  0.00     0.329 C 
ATOM     18  O   UNL d   1      54.575  32.591  53.050  0.00  0.00    -0.251 OA
BRANCH  17  19
ATOM     19  C   UNL d   1      53.667  31.619  53.626  0.00  0.00     0.071 A 
ATOM     20  C   UNL d   1      53.278  31.191  52.966  0.00  0.00     0.008 A 
ATOM     21  C   UNL d   1      53.040  30.399  53.065  0.00  0.00     0.024 A 
ATOM     22  C   UNL d   1      53.172  30.013  53.799  0.00  0.00     0.094 A 
ATOM     23  C   UNL d   1      53.536  30.443  54.389  0.00  0.00     0.024 A 
ATOM     24  C   UNL d   1      53.784  31.241  54.308  0.00  0.00     0.008 A 
BRANCH  22  25
ATOM     25  O   UNL d   1      52.922  29.217  53.869  0.00  0.00    -0.328 OA
ATOM     26  C   UNL d   1      53.214  28.730  54.488  0.00  0.00     0.181 C 
ENDBRANCH  22  25
ENDBRANCH  17  19
ENDBRANCH   1  16
BRANCH   1  27
ATOM     27  C   UNL d   1      53.529  34.025  54.580  0.00  0.00     0.262 C 
ATOM     28 CL   UNL d   1      53.915  34.525  55.099  0.00  0.00    -0.074 Cl
ATOM     29 CL   UNL d   1      53.041  33.738  55.214  0.00  0.00    -0.074 Cl
ATOM     30 CL   UNL d   1      54.003  34.302  53.962  0.00  0.00    -0.074 Cl
ENDBRANCH   1  27
TORSDOF 9
ENDMDL
MODEL 2
REMARK VINA RESULT:      -7.2      2.235      4.920
REMARK  9 active torsions:
REMARK  status: ('A' for Active; 'I' for Inactive)
REMARK    1  A    between atoms: C_8  and  S_1 
REMARK    2  A    between atoms: C_2  and  N_3 
REMARK    3  A    between atoms: N_4  and  C_2 
REMARK    4  A    between atoms: C_6  and  C_2 
REMARK    5  A    between atoms: N_3  and  C_5 
REMARK       I    between atoms: C_7  and  N_4 
REMARK    6  A    between atoms: C_5  and  N_9 
REMARK    7  A    between atoms: C_13  and  C_7 
REMARK    8  A    between atoms: N_9  and  C_23 
REMARK    9  A    between atoms: O_29  and  C_24 
ROOT
ATOM      1  C   UNL d   1      51.755  33.824  52.762  0.00  0.00     0.238 C 
ENDROOT
BRANCH   1   2
ATOM      2  N   UNL d   1      52.097  33.093  52.546  0.00  0.00    -0.188 NA
BRANCH   2   3
ATOM      3  C   UNL d   1      51.992  32.296  52.742  0.00  0.00     0.223 C 
ATOM      4  S   UNL d   1      51.353  32.060  53.147  0.00  0.00    -0.037 SA
BRANCH   3   5
ATOM      5  N   UNL d   1      52.574  31.770  52.503  0.00  0.00    -0.217 NA
BRANCH   5   6
ATOM      6  C   UNL d   1      52.777  31.116  52.959  0.00  0.00     0.084 A 
ATOM      7  C   UNL d   1      52.367  30.411  52.907  0.00  0.00     0.020 A 
ATOM      8  C   UNL d   1      52.561  29.756  53.356  0.00  0.00     0.015 A 
ATOM      9  C   UNL d   1      53.190  29.807  53.881  0.00  0.00     0.107 A 
ATOM     10  C   UNL d   1      53.627  30.506  53.959  0.00  0.00     0.015 A 
ATOM     11  C   UNL d   1      53.410  31.150  53.494  0.00  0.00     0.020 A 
BRANCH   9  12
ATOM     12  S   UNL d   1      53.395  29.139  54.345  0.00  0.00     0.302 S 
ATOM     13  O   UNL d   1      52.640  29.144  54.681  0.00  0.00    -0.197 OA
ATOM     14  O   UNL d   1      54.153  29.145  54.000  0.00  0.00    -0.197 OA
ATOM     15  N   UNL d   1      53.603  28.479  54.802  0.00  0.00    -0.043 N 
ENDBRANCH   9  12
ENDBRANCH   5   6
ENDBRANCH   3   5
ENDBRANCH   2   3
ENDBRANCH   1   2
BRANCH   1  16
ATOM     16  N   UNL d   1      52.054  34.194  53.180  0.00  0.00    -0.346 NA
ATOM     17  C   UNL d   1      52.345  34.779  53.712  0.00  0.00     0.329 C 
ATOM     18  O   UNL d   1      51.905  35.500  53.809  0.00  0.00    -0.251 OA
BRANCH  17  19
ATOM     19  C   UNL d   1      53.028  34.636  54.110  0.00  0.00     0.071 A 
ATOM     20  C   UNL d   1      52.975  34.370  54.945  0.00  0.00     0.008 A 
ATOM     21  C   UNL d   1      53.670  34.215  55.378  0.00  0.00     0.024 A 
ATOM     22  C   UNL d   1      54.419  34.314  55.013  0.00  0.00     0.094 A 
ATOM     23  C   UNL d   1      54.428  34.562  54.235  0.00  0.00     0.024 A 
ATOM     24  C   UNL d   1      53.740  34.723  53.783  0.00  0.00     0.008 A 
BRANCH  22  25
ATOM     25  O   UNL d   1      55.099  34.150  55.472  0.00  0.00    -0.328 OA
ATOM     26  C   UNL d   1      55.765  33.769  55.130  0.00  0.00     0.181 C 
ENDBRANCH  22  25
ENDBRANCH  17  19
ENDBRANCH   1  16
BRANCH   1  27
ATOM     27  C   UNL d   1      51.043  34.049  52.432  0.00  0.00     0.262 C 
ATOM     28 CL   UNL d   1      50.327  34.274  52.106  0.00  0.00    -0.074 Cl
ATOM     29 CL   UNL d   1      51.441  34.256  51.710  0.00  0.00    -0.074 Cl
ATOM     30 CL   UNL d   1      50.658  33.847  53.135  0.00  0.00    -0.074 Cl
ENDBRANCH   1  27
TORSDOF 9
ENDMDL
MODEL 3
REMARK VINA RESULT:      -7.2      1.893      5.003
REMARK  9 active torsions:
REMARK  status: ('A' for Active; 'I' for Inactive)
REMARK    1  A    between atoms: C_8  and  S_1 
REMARK    2  A    between atoms: C_2  and  N_3 
REMARK    3  A    between atoms: N_4  and  C_2 
REMARK    4  A    between atoms: C_6  and  C_2 
REMARK    5  A    between atoms: N_3  and  C_5 
REMARK       I    between atoms: C_7  and  N_4 
REMARK    6  A    between atoms: C_5  and  N_9 
REMARK    7  A    between atoms: C_13  and  C_7 
REMARK    8  A    between atoms: N_9  and  C_23 
REMARK    9  A    between atoms: O_29  and  C_24 
ROOT
ATOM      1  C   UNL d   1      53.114  33.823  54.015  0.00  0.00     0.238 C 
ENDROOT
BRANCH   1   2
ATOM      2  N   UNL d   1      53.217  33.002  53.898  0.00  0.00    -0.188 NA
BRANCH   2   3
ATOM      3  C   UNL d   1      53.715  32.515  53.453  0.00  0.00     0.223 C 
ATOM      4  S   UNL d   1      54.497  32.644  53.435  0.00  0.00    -0.037 SA
BRANCH   3   5
ATOM      5  N   UNL d   1      53.366  31.900  53.037  0.00  0.00    -0.217 NA
BRANCH   5   6
ATOM      6  C   UNL d   1      53.319  31.141  53.352  0.00  0.00     0.084 A 
ATOM      7  C   UNL d   1      53.960  30.783  53.711  0.00  0.00     0.020 A 
ATOM      8  C   UNL d   1      53.923  30.029  54.026  0.00  0.00     0.015 A 
ATOM      9  C   UNL d   1      53.216  29.615  53.981  0.00  0.00     0.107 A 
ATOM     10  C   UNL d   1      52.546  29.947  53.624  0.00  0.00     0.015 A 
ATOM     11  C   UNL d   1      52.613  30.708  53.315  0.00  0.00     0.020 A 
BRANCH   9  12
ATOM     12  S   UNL d   1      53.169  28.842  54.302  0.00  0.00     0.302 S 
ATOM     13  O   UNL d   1      53.304  29.150  55.058  0.00  0.00    -0.197 OA
ATOM     14  O   UNL d   1      53.035  28.543  53.537  0.00  0.00    -0.197 OA
ATOM     15  N   UNL d   1      53.122  28.075  54.614  0.00  0.00    -0.043 N 
ENDBRANCH   9  12
ENDBRANCH   5   6
ENDBRANCH   3   5
ENDBRANCH   2   3
ENDBRANCH   1   2
BRANCH   1  16
ATOM     16  N   UNL d   1      52.766  34.154  53.601  0.00  0.00    -0.346 NA
ATOM     17  C   UNL d   1      52.422  34.674  53.034  0.00  0.00     0.329 C 
ATOM     18  O   UNL d   1      52.895  35.306  52.717  0.00  0.00    -0.251 OA
BRANCH  17  19
ATOM     19  C   UNL d   1      51.659  34.555  52.813  0.00  0.00     0.071 A 
ATOM     20  C   UNL d   1      51.501  34.282  51.994  0.00  0.00     0.008 A 
ATOM     21  C   UNL d   1      50.718  34.152  51.742  0.00  0.00     0.024 A 
ATOM     22  C   UNL d   1      50.081  34.284  52.273  0.00  0.00     0.094 A 
ATOM     23  C   UNL d   1      50.268  34.538  53.026  0.00  0.00     0.024 A 
ATOM     24  C   UNL d   1      51.049  34.674  53.299  0.00  0.00     0.008 A 
BRANCH  22  25
ATOM     25  O   UNL d   1      49.306  34.145  51.991  0.00  0.00    -0.328 OA
ATOM     26  C   UNL d   1      48.947  34.675  51.447  0.00  0.00     0.181 C 
ENDBRANCH  22  25
ENDBRANCH  17  19
ENDBRANCH   1  16
BRANCH   1  27
ATOM     27  C   UNL d   1      53.460  34.185  54.660  0.00  0.00     0.262 C 
ATOM     28 CL   UNL d   1      53.811  34.550  55.302  0.00  0.00    -0.074 Cl
ATOM     29 CL   UNL d   1      52.870  33.847  55.169  0.00  0.00    -0.074 Cl
ATOM     30 CL   UNL d   1      54.033  34.512  54.162  0.00  0.00    -0.074 Cl
ENDBRANCH   1  27
TORSDOF 9
ENDMDL
