MODEL 1
REMARK VINA RESULT:      -4.9      0.000      0.000
REMARK  1 active torsions:
REMARK  status: ('A' for Active; 'I' for Inactive)
REMARK       I    between atoms: N_3  and  C_1 
REMARK       I    between atoms: N_5  and  C_1 
REMARK       I    between atoms: C_2  and  N_4 
REMARK    1  A    between atoms: C_6  and  C_2 
ROOT
ATOM      1  C   UNL d   1      58.496   0.113  29.760  0.00  0.00     0.340 C 
ATOM      2  C   UNL d   1      57.320   0.386  32.833  0.00  0.00     0.271 C 
ATOM      3  N   UNL d   1      58.169   0.274  30.501  0.00  0.00    -0.254 N 
ATOM      4  N   UNL d   1      57.610   0.328  32.050  0.00  0.00    -0.269 N 
ATOM      5  N   UNL d   1      59.274   0.336  29.596  0.00  0.00    -0.253 N 
ATOM      6  O   UNL d   1      58.049  -0.268  29.186  0.00  0.00    -0.245 OA
ATOM      7  C   UNL d   1      57.397   0.025  30.674  0.00  0.00     0.104 A 
ATOM      8  C   UNL d   1      58.655   0.571  31.112  0.00  0.00     0.104 A 
ATOM      9  C   UNL d   1      57.119   0.043  31.463  0.00  0.00     0.102 A 
ATOM     10  C   UNL d   1      58.376   0.603  31.888  0.00  0.00     0.102 A 
ATOM     11  O   UNL d   1      57.808   0.682  33.441  0.00  0.00    -0.266 OA
ATOM     12  O   UNL d   1      60.924   0.521  29.365  0.00  0.00    -0.300 OA
ATOM     13  C   UNL d   1      59.696  -0.081  28.962  0.00  0.00     0.111 C 
ATOM     14  C   UNL d   1      59.812   0.460  30.277  0.00  0.00     0.111 C 
ATOM     15  C   UNL d   1      60.593   0.681  30.105  0.00  0.00     0.142 C 
ATOM     16  C   UNL d   1      60.467   0.138  28.796  0.00  0.00     0.142 C 
ENDROOT
BRANCH   2  17
ATOM     17  C   UNL d   1      56.550   0.129  33.009  0.00  0.00     0.086 A 
ATOM     18  S   UNL d   1      55.905   0.617  33.208  0.00  0.00    -0.082 SA
ATOM     19  C   UNL d   1      55.235   0.124  33.331  0.00  0.00     0.036 A 
ATOM     20  C   UNL d   1      55.475  -0.664  33.213  0.00  0.00     0.008 A 
ATOM     21  C   UNL d   1      56.284  -0.662  33.010  0.00  0.00     0.012 A 
ENDBRANCH   2  17
TORSDOF 1
ENDMDL
MODEL 2
REMARK VINA RESULT:      -4.8      1.405      1.839
REMARK  1 active torsions:
REMARK  status: ('A' for Active; 'I' for Inactive)
REMARK       I    between atoms: N_3  and  C_1 
REMARK       I    between atoms: N_5  and  C_1 
REMARK       I    between atoms: C_2  and  N_4 
REMARK    1  A    between atoms: C_6  and  C_2 
ROOT
ATOM      1  C   UNL d   1      58.291  -0.106  30.291  0.00  0.00     0.340 C 
ATOM      2  C   UNL d   1      56.150  -0.865  32.687  0.00  0.00     0.271 C 
ATOM      3  N   UNL d   1      57.838  -0.308  30.950  0.00  0.00    -0.254 N 
ATOM      4  N   UNL d   1      56.703  -0.670  32.089  0.00  0.00    -0.269 N 
ATOM      5  N   UNL d   1      58.563  -0.694  29.780  0.00  0.00    -0.253 N 
ATOM      6  O   UNL d   1      58.472   0.682  30.141  0.00  0.00    -0.245 OA
ATOM      7  C   UNL d   1      57.541   0.287  31.446  0.00  0.00     0.104 A 
ATOM      8  C   UNL d   1      57.573  -1.096  31.043  0.00  0.00     0.104 A 
ATOM      9  C   UNL d   1      56.957   0.103  32.016  0.00  0.00     0.102 A 
ATOM     10  C   UNL d   1      57.008  -1.280  31.616  0.00  0.00     0.102 A 
ATOM     11  O   UNL d   1      55.888  -1.651  32.777  0.00  0.00    -0.266 OA
ATOM     12  O   UNL d   1      58.864  -1.846  28.600  0.00  0.00    -0.300 OA
ATOM     13  C   UNL d   1      58.769  -0.472  28.967  0.00  0.00     0.111 C 
ATOM     14  C   UNL d   1      58.134  -1.458  29.778  0.00  0.00     0.111 C 
ATOM     15  C   UNL d   1      58.411  -2.045  29.260  0.00  0.00     0.142 C 
ATOM     16  C   UNL d   1      59.041  -1.053  28.459  0.00  0.00     0.142 C 
ENDROOT
BRANCH   2  17
ATOM     17  C   UNL d   1      55.847  -0.268  33.179  0.00  0.00     0.086 A 
ATOM     18  S   UNL d   1      56.221   0.049  33.851  0.00  0.00    -0.082 SA
ATOM     19  C   UNL d   1      55.719   0.644  34.171  0.00  0.00     0.036 A 
ATOM     20  C   UNL d   1      55.037   0.682  33.697  0.00  0.00     0.008 A 
ATOM     21  C   UNL d   1      55.116   0.125  33.082  0.00  0.00     0.012 A 
ENDBRANCH   2  17
TORSDOF 1
ENDMDL
MODEL 3
REMARK VINA RESULT:      -3.7      1.522      4.581
REMARK  1 active torsions:
REMARK  status: ('A' for Active; 'I' for Inactive)
REMARK       I    between atoms: N_3  and  C_1 
REMARK       I    between atoms: N_5  and  C_1 
REMARK       I    between atoms: C_2  and  N_4 
REMARK    1  A    between atoms: C_6  and  C_2 
ROOT
ATOM      1  C   UNL d   1      57.591   0.553  32.838  0.00  0.00     0.340 C 
ATOM      2  C   UNL d   1      58.370  -0.033  29.683  0.00  0.00     0.271 C 
ATOM      3  N   UNL d   1      57.771   0.507  32.034  0.00  0.00    -0.254 N 
ATOM      4  N   UNL d   1      58.174   0.129  30.481  0.00  0.00    -0.269 N 
ATOM      5  N   UNL d   1      56.810   0.470  33.091  0.00  0.00    -0.253 N 
ATOM      6  O   UNL d   1      58.189   0.682  33.387  0.00  0.00    -0.245 OA
ATOM      7  C   UNL d   1      58.560   0.562  31.783  0.00  0.00     0.104 A 
ATOM      8  C   UNL d   1      57.179   0.277  31.490  0.00  0.00     0.104 A 
ATOM      9  C   UNL d   1      58.764   0.359  30.997  0.00  0.00     0.102 A 
ATOM     10  C   UNL d   1      57.378   0.092  30.711  0.00  0.00     0.102 A 
ATOM     11  O   UNL d   1      57.777  -0.262  29.143  0.00  0.00    -0.266 OA
ATOM     12  O   UNL d   1      55.287   0.015  33.624  0.00  0.00    -0.300 OA
ATOM     13  C   UNL d   1      56.667   0.227  33.912  0.00  0.00     0.111 C 
ATOM     14  C   UNL d   1      56.254   0.052  32.558  0.00  0.00     0.111 C 
ATOM     15  C   UNL d   1      55.471  -0.031  32.820  0.00  0.00     0.142 C 
ATOM     16  C   UNL d   1      55.894   0.144  34.167  0.00  0.00     0.142 C 
ENDROOT
BRANCH   2  17
ATOM     17  C   UNL d   1      59.161   0.014  29.433  0.00  0.00     0.086 A 
ATOM     18  S   UNL d   1      59.528   0.681  29.097  0.00  0.00    -0.082 SA
ATOM     19  C   UNL d   1      60.330   0.483  28.938  0.00  0.00     0.036 A 
ATOM     20  C   UNL d   1      60.447  -0.306  29.172  0.00  0.00     0.008 A 
ATOM     21  C   UNL d   1      59.729  -0.595  29.481  0.00  0.00     0.012 A 
ENDBRANCH   2  17
TORSDOF 1
ENDMDL
MODEL 4
REMARK VINA RESULT:      -2.4      0.913      1.152
REMARK  1 active torsions:
REMARK  status: ('A' for Active; 'I' for Inactive)
REMARK       I    between atoms: N_3  and  C_1 
REMARK       I    between atoms: N_5  and  C_1 
REMARK       I    between atoms: C_2  and  N_4 
REMARK    1  A    between atoms: C_6  and  C_2 
ROOT
ATOM      1  C   UNL d   1      57.608   0.544  30.347  0.00  0.00     0.340 C 
ATOM      2  C   UNL d   1      56.870   0.648  33.564  0.00  0.00     0.271 C 
ATOM      3  N   UNL d   1      57.424   0.672  31.141  0.00  0.00    -0.254 N 
ATOM      4  N   UNL d   1      57.053   0.635  32.746  0.00  0.00    -0.269 N 
ATOM      5  N   UNL d   1      58.397   0.509  30.107  0.00  0.00    -0.253 N 
ATOM      6  O   UNL d   1      57.007   0.452  29.794  0.00  0.00    -0.245 OA
ATOM      7  C   UNL d   1      56.631   0.678  31.386  0.00  0.00     0.104 A 
ATOM      8  C   UNL d   1      58.034   0.666  31.713  0.00  0.00     0.104 A 
ATOM      9  C   UNL d   1      56.445   0.649  32.201  0.00  0.00     0.102 A 
ATOM     10  C   UNL d   1      57.850   0.652  32.517  0.00  0.00     0.102 A 
ATOM     11  O   UNL d   1      57.480   0.641  34.131  0.00  0.00    -0.266 OA
ATOM     12  O   UNL d   1      59.976   0.150  29.672  0.00  0.00    -0.300 OA
ATOM     13  C   UNL d   1      58.584   0.094  29.367  0.00  0.00     0.111 C 
ATOM     14  C   UNL d   1      58.997   0.315  30.714  0.00  0.00     0.111 C 
ATOM     15  C   UNL d   1      59.788   0.278  30.466  0.00  0.00     0.142 C 
ATOM     16  C   UNL d   1      59.365   0.059  29.125  0.00  0.00     0.142 C 
ENDROOT
BRANCH   2  17
ATOM     17  C   UNL d   1      56.076   0.646  33.809  0.00  0.00     0.086 A 
ATOM     18  S   UNL d   1      55.808   0.672  34.597  0.00  0.00    -0.082 SA
ATOM     19  C   UNL d   1      54.967   0.670  34.584  0.00  0.00     0.036 A 
ATOM     20  C   UNL d   1      54.725   0.636  33.789  0.00  0.00     0.008 A 
ATOM     21  C   UNL d   1      55.407   0.626  33.310  0.00  0.00     0.012 A 
ENDBRANCH   2  17
TORSDOF 1
ENDMDL
