MODEL 1
REMARK VINA RESULT:     -10.6      0.000      0.000
REMARK  6 active torsions:
REMARK  status: ('A' for Active; 'I' for Inactive)
REMARK    1  A    between atoms: N_2  and  S_1 
REMARK    2  A    between atoms: C_6  and  S_1 
REMARK    3  A    between atoms: C_3  and  N_10 
REMARK    4  A    between atoms: C_7  and  C_5 
REMARK       I    between atoms: N_10  and  C_7 
REMARK    5  A    between atoms: C_15  and  C_8 
REMARK    6  A    between atoms: O_27  and  C_24 
ROOT
ATOM      1  C   UNL d   1      52.460  32.417  52.978  0.00  0.00     0.299 C 
ATOM      2  N   UNL d   1      51.738  32.611  53.329  0.00  0.00    -0.164 NA
ATOM      3  O   UNL d   1      52.815  32.950  52.458  0.00  0.00    -0.263 OA
ENDROOT
BRANCH   1   4
ATOM      4  C   UNL d   1      52.820  31.704  53.143  0.00  0.00     0.133 A 
ATOM      5  N   UNL d   1      53.500  31.599  53.610  0.00  0.00    -0.226 N 
ATOM      6  C   UNL d   1      53.669  30.782  53.627  0.00  0.00     0.092 A 
ATOM      7  C   UNL d   1      53.100  30.399  53.177  0.00  0.00     0.021 A 
ATOM      8  C   UNL d   1      52.577  30.962  52.878  0.00  0.00     0.025 A 
BRANCH   5   9
ATOM      9  S   UNL d   1      53.930  32.194  53.989  0.00  0.00     0.277 S 
ATOM     10  O   UNL d   1      54.322  32.388  53.285  0.00  0.00    -0.199 OA
ATOM     11  O   UNL d   1      53.539  31.997  54.683  0.00  0.00    -0.199 OA
BRANCH   9  12
ATOM     12  C   UNL d   1      54.338  32.775  54.400  0.00  0.00     0.133 A 
ATOM     13  S   UNL d   1      54.233  32.979  55.190  0.00  0.00    -0.074 SA
ATOM     14  C   UNL d   1      54.758  33.590  55.372  0.00  0.00     0.036 A 
ATOM     15  C   UNL d   1      55.189  33.762  54.687  0.00  0.00     0.008 A 
ATOM     16  C   UNL d   1      54.930  33.260  54.088  0.00  0.00     0.020 A 
ENDBRANCH   9  12
ENDBRANCH   5   9
ENDBRANCH   1   4
BRANCH   2  17
ATOM     17  C   UNL d   1      51.373  33.332  53.163  0.00  0.00     0.297 A 
ATOM     18  O   UNL d   1      50.619  33.424  52.844  0.00  0.00    -0.253 OA
ATOM     19  C   UNL d   1      50.469  34.234  52.767  0.00  0.00     0.206 A 
ATOM     20  N   UNL d   1      51.133  34.639  53.039  0.00  0.00    -0.119 NA
ATOM     21  N   UNL d   1      51.693  34.077  53.285  0.00  0.00    -0.101 NA
BRANCH  19  22
ATOM     22  C   UNL d   1      49.787  34.567  52.474  0.00  0.00     0.043 A 
ATOM     23  C   UNL d   1      49.317  35.050  52.950  0.00  0.00     0.006 A 
ATOM     24  C   UNL d   1      48.622  35.386  52.641  0.00  0.00     0.024 A 
ATOM     25  C   UNL d   1      48.403  35.238  51.864  0.00  0.00     0.094 A 
ATOM     26  C   UNL d   1      48.874  34.756  51.392  0.00  0.00     0.024 A 
ATOM     27  C   UNL d   1      49.560  34.422  51.688  0.00  0.00     0.006 A 
BRANCH  25  28
ATOM     28  O   UNL d   1      47.716  35.570  51.559  0.00  0.00    -0.328 OA
ATOM     29  C   UNL d   1      47.287  36.122  52.005  0.00  0.00     0.181 C 
ENDBRANCH  25  28
ENDBRANCH  19  22
ENDBRANCH   2  17
TORSDOF 6
ENDMDL
MODEL 2
REMARK VINA RESULT:      -9.0      0.934      2.013
REMARK  6 active torsions:
REMARK  status: ('A' for Active; 'I' for Inactive)
REMARK    1  A    between atoms: N_2  and  S_1 
REMARK    2  A    between atoms: C_6  and  S_1 
REMARK    3  A    between atoms: C_3  and  N_10 
REMARK    4  A    between atoms: C_7  and  C_5 
REMARK       I    between atoms: N_10  and  C_7 
REMARK    5  A    between atoms: C_15  and  C_8 
REMARK    6  A    between atoms: O_27  and  C_24 
ROOT
ATOM      1  C   UNL d   1      52.632  33.604  53.825  0.00  0.00     0.299 C 
ATOM      2  N   UNL d   1      52.552  34.122  53.187  0.00  0.00    -0.164 NA
ATOM      3  O   UNL d   1      51.996  33.126  54.042  0.00  0.00    -0.263 OA
ENDROOT
BRANCH   1   4
ATOM      4  C   UNL d   1      53.334  33.565  54.238  0.00  0.00     0.133 A 
ATOM      5  N   UNL d   1      53.822  32.895  54.306  0.00  0.00    -0.226 N 
ATOM      6  C   UNL d   1      54.477  33.108  54.777  0.00  0.00     0.092 A 
ATOM      7  C   UNL d   1      54.386  33.895  54.991  0.00  0.00     0.021 A 
ATOM      8  C   UNL d   1      53.685  34.179  54.662  0.00  0.00     0.025 A 
BRANCH   5   9
ATOM      9  S   UNL d   1      53.685  32.154  53.968  0.00  0.00     0.277 S 
ATOM     10  O   UNL d   1      54.064  32.380  53.267  0.00  0.00    -0.199 OA
ATOM     11  O   UNL d   1      53.311  31.936  54.666  0.00  0.00    -0.199 OA
BRANCH   9  12
ATOM     12  C   UNL d   1      53.530  31.406  53.667  0.00  0.00     0.133 A 
ATOM     13  S   UNL d   1      53.302  30.744  54.100  0.00  0.00    -0.074 SA
ATOM     14  C   UNL d   1      53.207  30.113  53.576  0.00  0.00     0.036 A 
ATOM     15  C   UNL d   1      53.378  30.390  52.816  0.00  0.00     0.008 A 
ATOM     16  C   UNL d   1      53.578  31.188  52.872  0.00  0.00     0.020 A 
ENDBRANCH   9  12
ENDBRANCH   5   9
ENDBRANCH   1   4
BRANCH   2  17
ATOM     17  C   UNL d   1      51.843  34.163  52.768  0.00  0.00     0.297 A 
ATOM     18  O   UNL d   1      51.162  34.556  53.015  0.00  0.00    -0.253 OA
ATOM     19  C   UNL d   1      50.582  34.458  52.433  0.00  0.00     0.206 A 
ATOM     20  N   UNL d   1      50.908  34.005  51.827  0.00  0.00    -0.119 NA
ATOM     21  N   UNL d   1      51.691  33.822  52.037  0.00  0.00    -0.101 NA
BRANCH  19  22
ATOM     22  C   UNL d   1      49.827  34.758  52.458  0.00  0.00     0.043 A 
ATOM     23  C   UNL d   1      49.549  35.142  53.134  0.00  0.00     0.006 A 
ATOM     24  C   UNL d   1      48.775  35.445  53.148  0.00  0.00     0.024 A 
ATOM     25  C   UNL d   1      48.287  35.364  52.494  0.00  0.00     0.094 A 
ATOM     26  C   UNL d   1      48.568  34.981  51.821  0.00  0.00     0.024 A 
ATOM     27  C   UNL d   1      49.329  34.679  51.798  0.00  0.00     0.006 A 
BRANCH  25  28
ATOM     28  O   UNL d   1      47.522  35.664  52.509  0.00  0.00    -0.328 OA
ATOM     29  C   UNL d   1      47.386  36.465  52.347  0.00  0.00     0.181 C 
ENDBRANCH  25  28
ENDBRANCH  19  22
ENDBRANCH   2  17
TORSDOF 6
ENDMDL
