MODEL 1
REMARK VINA RESULT:      -5.4      0.000      0.000
REMARK  2 active torsions:
REMARK  status: ('A' for Active; 'I' for Inactive)
REMARK    1  A    between atoms: C_7  and  C_1 
REMARK    2  A    between atoms: O_19  and  C_15 
ROOT
ATOM      1  C   UNL d   1     -41.590-122.487 -51.248  0.00  0.00     0.064 A 
ATOM      2  C   UNL d   1     -41.691-123.053 -51.852  0.00  0.00     0.199 A 
ATOM      3  C   UNL d   1     -41.549-122.851 -52.642  0.00  0.00     0.062 A 
ATOM      4  C   UNL d   1     -41.344-121.711 -51.443  0.00  0.00     0.126 A 
ATOM      5  C   UNL d   1     -41.304-122.074 -52.834  0.00  0.00     0.106 A 
ATOM      6  O   UNL d   1     -41.201-121.507 -52.241  0.00  0.00    -0.305 OA
ATOM      7  C   UNL d   1     -41.650-123.409 -53.236  0.00  0.00     0.009 A 
ATOM      8  C   UNL d   1     -41.162-121.873 -53.622  0.00  0.00     0.067 A 
ATOM      9  O   UNL d   1     -41.933-123.817 -51.660  0.00  0.00    -0.286 OA
ATOM     10  C   UNL d   1     -41.266-122.442 -54.213  0.00  0.00     0.198 A 
ATOM     11  C   UNL d   1     -41.509-123.206 -54.021  0.00  0.00     0.042 A 
ATOM     12  O   UNL d   1     -41.125-122.240 -54.999  0.00  0.00    -0.286 OA
ENDROOT
BRANCH   1  13
ATOM     13  C   UNL d   1     -41.731-122.691 -50.466  0.00  0.00     0.005 A 
ATOM     14  C   UNL d   1     -42.449-122.487 -50.115  0.00  0.00     0.002 A 
ATOM     15  C   UNL d   1     -42.587-122.693 -49.330  0.00  0.00     0.024 A 
ATOM     16  C   UNL d   1     -42.017-123.101 -48.894  0.00  0.00     0.094 A 
ATOM     17  C   UNL d   1     -41.295-123.304 -49.257  0.00  0.00     0.024 A 
ATOM     18  C   UNL d   1     -41.155-123.098 -50.042  0.00  0.00     0.002 A 
BRANCH  16  19
ATOM     19  O   UNL d   1     -42.156-123.307 -48.110  0.00  0.00    -0.328 OA
ATOM     20  C   UNL d   1     -42.829-123.744 -47.910  0.00  0.00     0.181 C 
ENDBRANCH  16  19
ENDBRANCH   1  13
TORSDOF 2
ENDMDL
MODEL 2
REMARK VINA RESULT:      -5.3      0.969      4.252
REMARK  2 active torsions:
REMARK  status: ('A' for Active; 'I' for Inactive)
REMARK    1  A    between atoms: C_7  and  C_1 
REMARK    2  A    between atoms: O_19  and  C_15 
ROOT
ATOM      1  C   UNL d   1     -41.465-122.378 -52.417  0.00  0.00     0.064 A 
ATOM      2  C   UNL d   1     -41.561-123.089 -51.990  0.00  0.00     0.199 A 
ATOM      3  C   UNL d   1     -41.451-123.102 -51.169  0.00  0.00     0.062 A 
ATOM      4  C   UNL d   1     -41.258-121.676 -52.011  0.00  0.00     0.126 A 
ATOM      5  C   UNL d   1     -41.244-122.398 -50.768  0.00  0.00     0.106 A 
ATOM      6  O   UNL d   1     -41.147-121.690 -51.182  0.00  0.00    -0.305 OA
ATOM      7  C   UNL d   1     -41.545-123.802 -50.751  0.00  0.00     0.009 A 
ATOM      8  C   UNL d   1     -41.135-122.412 -49.949  0.00  0.00     0.067 A 
ATOM      9  O   UNL d   1     -41.765-123.781 -52.389  0.00  0.00    -0.286 OA
ATOM     10  C   UNL d   1     -41.232-123.121 -49.537  0.00  0.00     0.198 A 
ATOM     11  C   UNL d   1     -41.436-123.814 -49.936  0.00  0.00     0.042 A 
ATOM     12  O   UNL d   1     -41.123-123.134 -48.720  0.00  0.00    -0.286 OA
ENDROOT
BRANCH   1  13
ATOM     13  C   UNL d   1     -41.574-122.370 -53.229  0.00  0.00     0.005 A 
ATOM     14  C   UNL d   1     -42.135-121.863 -53.560  0.00  0.00     0.002 A 
ATOM     15  C   UNL d   1     -42.243-121.856 -54.376  0.00  0.00     0.024 A 
ATOM     16  C   UNL d   1     -41.796-122.351 -54.864  0.00  0.00     0.094 A 
ATOM     17  C   UNL d   1     -41.232-122.859 -54.521  0.00  0.00     0.024 A 
ATOM     18  C   UNL d   1     -41.123-122.867 -53.706  0.00  0.00     0.002 A 
BRANCH  16  19
ATOM     19  O   UNL d   1     -41.903-122.344 -55.679  0.00  0.00    -0.328 OA
ATOM     20  C   UNL d   1     -42.469-121.844 -56.018  0.00  0.00     0.181 C 
ENDBRANCH  16  19
ENDBRANCH   1  13
TORSDOF 2
ENDMDL
MODEL 3
REMARK VINA RESULT:      -5.2      0.841      4.324
REMARK  2 active torsions:
REMARK  status: ('A' for Active; 'I' for Inactive)
REMARK    1  A    between atoms: C_7  and  C_1 
REMARK    2  A    between atoms: O_19  and  C_15 
ROOT
ATOM      1  C   UNL d   1     -41.617-123.081 -51.153  0.00  0.00     0.064 A 
ATOM      2  C   UNL d   1     -42.216-122.698 -50.715  0.00  0.00     0.199 A 
ATOM      3  C   UNL d   1     -42.324-122.872 -49.913  0.00  0.00     0.062 A 
ATOM      4  C   UNL d   1     -41.124-123.643 -50.777  0.00  0.00     0.126 A 
ATOM      5  C   UNL d   1     -41.828-123.434 -49.541  0.00  0.00     0.106 A 
ATOM      6  O   UNL d   1     -41.233-123.817 -49.966  0.00  0.00    -0.305 OA
ATOM      7  C   UNL d   1     -42.913-122.495 -49.485  0.00  0.00     0.009 A 
ATOM      8  C   UNL d   1     -41.936-123.607 -48.740  0.00  0.00     0.067 A 
ATOM      9  O   UNL d   1     -42.702-122.145 -51.086  0.00  0.00    -0.286 OA
ATOM     10  C   UNL d   1     -42.533-123.222 -48.317  0.00  0.00     0.198 A 
ATOM     11  C   UNL d   1     -43.019-122.668 -48.688  0.00  0.00     0.042 A 
ATOM     12  O   UNL d   1     -42.640-123.395 -47.519  0.00  0.00    -0.286 OA
ENDROOT
BRANCH   1  13
ATOM     13  C   UNL d   1     -41.513-122.906 -51.947  0.00  0.00     0.005 A 
ATOM     14  C   UNL d   1     -41.268-122.151 -52.170  0.00  0.00     0.002 A 
ATOM     15  C   UNL d   1     -41.165-121.978 -52.968  0.00  0.00     0.024 A 
ATOM     16  C   UNL d   1     -41.304-122.553 -53.545  0.00  0.00     0.094 A 
ATOM     17  C   UNL d   1     -41.552-123.313 -53.311  0.00  0.00     0.024 A 
ATOM     18  C   UNL d   1     -41.655-123.487 -52.513  0.00  0.00     0.002 A 
BRANCH  16  19
ATOM     19  O   UNL d   1     -41.201-122.380 -54.342  0.00  0.00    -0.328 OA
ATOM     20  C   UNL d   1     -41.855-122.195 -54.814  0.00  0.00     0.181 C 
ENDBRANCH  16  19
ENDBRANCH   1  13
TORSDOF 2
ENDMDL
MODEL 4
REMARK VINA RESULT:      -4.2      0.827      1.002
REMARK  2 active torsions:
REMARK  status: ('A' for Active; 'I' for Inactive)
REMARK    1  A    between atoms: C_7  and  C_1 
REMARK    2  A    between atoms: O_19  and  C_15 
ROOT
ATOM      1  C   UNL d   1     -41.745-122.568 -52.031  0.00  0.00     0.064 A 
ATOM      2  C   UNL d   1     -41.496-123.049 -52.666  0.00  0.00     0.199 A 
ATOM      3  C   UNL d   1     -41.526-122.765 -53.442  0.00  0.00     0.062 A 
ATOM      4  C   UNL d   1     -42.026-121.794 -52.182  0.00  0.00     0.126 A 
ATOM      5  C   UNL d   1     -41.807-121.991 -53.590  0.00  0.00     0.106 A 
ATOM      6  O   UNL d   1     -42.056-121.508 -52.967  0.00  0.00    -0.305 OA
ATOM      7  C   UNL d   1     -41.281-123.239 -54.066  0.00  0.00     0.009 A 
ATOM      8  C   UNL d   1     -41.837-121.707 -54.365  0.00  0.00     0.067 A 
ATOM      9  O   UNL d   1     -41.219-123.811 -52.517  0.00  0.00    -0.286 OA
ATOM     10  C   UNL d   1     -41.588-122.193 -54.986  0.00  0.00     0.198 A 
ATOM     11  C   UNL d   1     -41.311-122.955 -54.837  0.00  0.00     0.042 A 
ATOM     12  O   UNL d   1     -41.618-121.909 -55.759  0.00  0.00    -0.286 OA
ENDROOT
BRANCH   1  13
ATOM     13  C   UNL d   1     -41.714-122.853 -51.263  0.00  0.00     0.005 A 
ATOM     14  C   UNL d   1     -42.149-123.525 -51.059  0.00  0.00     0.002 A 
ATOM     15  C   UNL d   1     -42.115-123.809 -50.287  0.00  0.00     0.024 A 
ATOM     16  C   UNL d   1     -41.653-123.429 -49.718  0.00  0.00     0.094 A 
ATOM     17  C   UNL d   1     -41.217-122.752 -49.932  0.00  0.00     0.024 A 
ATOM     18  C   UNL d   1     -41.250-122.467 -50.704  0.00  0.00     0.002 A 
BRANCH  16  19
ATOM     19  O   UNL d   1     -41.620-123.713 -48.947  0.00  0.00    -0.328 OA
ATOM     20  C   UNL d   1     -42.270-123.622 -48.444  0.00  0.00     0.181 C 
ENDBRANCH  16  19
ENDBRANCH   1  13
TORSDOF 2
ENDMDL
