MODEL 1
REMARK VINA RESULT:      -5.0      0.000      0.000
REMARK  5 active torsions:
REMARK  status: ('A' for Active; 'I' for Inactive)
REMARK    1  A    between atoms: N_2  and  C_1 
REMARK    2  A    between atoms: C_8  and  C_1 
REMARK    3  A    between atoms: O_5  and  N_2 
REMARK    4  A    between atoms: C_3  and  O_5 
REMARK    5  A    between atoms: C_4  and  C_3 
ROOT
ATOM      1  C   UNL d   1      58.099   0.176  29.967  0.00  0.00     0.319 C 
ATOM      2  O   UNL d   1      57.467   0.597  29.477  0.00  0.00    -0.257 OA
ENDROOT
BRANCH   1   3
ATOM      3  O   UNL d   1      58.047   0.202  30.877  0.00  0.00    -0.168 OA
BRANCH   3   4
ATOM      4  N   UNL d   1      57.314   0.258  31.250  0.00  0.00    -0.100 NA
BRANCH   4   5
ATOM      5  C   UNL d   1      57.288   0.318  32.073  0.00  0.00     0.228 C 
ATOM      6  N   UNL d   1      57.911   0.681  32.491  0.00  0.00    -0.123 N 
BRANCH   5   7
ATOM      7  C   UNL d   1      56.636   0.014  32.475  0.00  0.00     0.121 A 
ATOM      8  N   UNL d   1      56.116   0.544  32.827  0.00  0.00    -0.241 NA
ATOM      9  C   UNL d   1      55.446   0.251  33.241  0.00  0.00     0.099 A 
ATOM     10  C   UNL d   1      55.323  -0.567  33.285  0.00  0.00     0.021 A 
ATOM     11  C   UNL d   1      55.852  -1.081  32.927  0.00  0.00     0.003 A 
ATOM     12  C   UNL d   1      56.504  -0.785  32.525  0.00  0.00     0.022 A 
ENDBRANCH   5   7
ENDBRANCH   4   5
ENDBRANCH   3   4
ENDBRANCH   1   3
BRANCH   1  13
ATOM     13  C   UNL d   1      58.722  -0.232  29.602  0.00  0.00     0.065 A 
ATOM     14  C   UNL d   1      58.605  -1.021  29.393  0.00  0.00     0.005 A 
ATOM     15  C   UNL d   1      59.221  -1.433  29.029  0.00  0.00     0.000 A 
ATOM     16  C   UNL d   1      59.126  -2.231  28.809  0.00  0.00     0.000 C 
ATOM     17  C   UNL d   1      59.933  -1.065  28.878  0.00  0.00     0.000 A 
ATOM     18  C   UNL d   1      60.040  -0.281  29.090  0.00  0.00     0.000 A 
ATOM     19  C   UNL d   1      60.569  -1.466  28.510  0.00  0.00     0.000 C 
ATOM     20  C   UNL d   1      59.432   0.134  29.452  0.00  0.00     0.005 A 
ENDBRANCH   1  13
TORSDOF 5
ENDMDL
MODEL 2
REMARK VINA RESULT:      -4.9      1.199      4.607
REMARK  5 active torsions:
REMARK  status: ('A' for Active; 'I' for Inactive)
REMARK    1  A    between atoms: N_2  and  C_1 
REMARK    2  A    between atoms: C_8  and  C_1 
REMARK    3  A    between atoms: O_5  and  N_2 
REMARK    4  A    between atoms: C_3  and  O_5 
REMARK    5  A    between atoms: C_4  and  C_3 
ROOT
ATOM      1  C   UNL d   1      57.658   0.170  31.601  0.00  0.00     0.319 C 
ATOM      2  O   UNL d   1      58.379   0.593  31.945  0.00  0.00    -0.257 OA
ENDROOT
BRANCH   1   3
ATOM      3  O   UNL d   1      57.687  -0.132  30.741  0.00  0.00    -0.168 OA
BRANCH   3   4
ATOM      4  N   UNL d   1      58.411  -0.300  30.384  0.00  0.00    -0.100 NA
BRANCH   4   5
ATOM      5  C   UNL d   1      58.430  -0.457  29.574  0.00  0.00     0.228 C 
ATOM      6  N   UNL d   1      58.005   0.021  29.041  0.00  0.00    -0.123 N 
BRANCH   5   7
ATOM      7  C   UNL d   1      58.876  -1.095  29.302  0.00  0.00     0.121 A 
ATOM      8  N   UNL d   1      59.668  -0.965  29.123  0.00  0.00    -0.241 NA
ATOM      9  C   UNL d   1      60.137  -1.604  28.844  0.00  0.00     0.099 A 
ATOM     10  C   UNL d   1      59.792  -2.352  28.756  0.00  0.00     0.021 A 
ATOM     11  C   UNL d   1      59.000  -2.462  28.940  0.00  0.00     0.003 A 
ATOM     12  C   UNL d   1      58.550  -1.832  29.212  0.00  0.00     0.022 A 
ENDBRANCH   5   7
ENDBRANCH   4   5
ENDBRANCH   3   4
ENDBRANCH   1   3
BRANCH   1  13
ATOM     13  C   UNL d   1      56.973   0.055  32.055  0.00  0.00     0.065 A 
ATOM     14  C   UNL d   1      56.775  -0.714  32.278  0.00  0.00     0.005 A 
ATOM     15  C   UNL d   1      56.096  -0.837  32.730  0.00  0.00     0.000 A 
ATOM     16  C   UNL d   1      55.876  -1.605  32.966  0.00  0.00     0.000 C 
ATOM     17  C   UNL d   1      55.627  -0.207  32.952  0.00  0.00     0.000 A 
ATOM     18  C   UNL d   1      55.832   0.554  32.726  0.00  0.00     0.000 A 
ATOM     19  C   UNL d   1      54.935  -0.312  33.410  0.00  0.00     0.000 C 
ATOM     20  C   UNL d   1      56.506   0.682  32.277  0.00  0.00     0.005 A 
ENDBRANCH   1  13
TORSDOF 5
ENDMDL
MODEL 3
REMARK VINA RESULT:      -4.9      1.187      4.899
REMARK  5 active torsions:
REMARK  status: ('A' for Active; 'I' for Inactive)
REMARK    1  A    between atoms: N_2  and  C_1 
REMARK    2  A    between atoms: C_8  and  C_1 
REMARK    3  A    between atoms: O_5  and  N_2 
REMARK    4  A    between atoms: C_3  and  O_5 
REMARK    5  A    between atoms: C_4  and  C_3 
ROOT
ATOM      1  C   UNL d   1      56.633  -0.708  31.972  0.00  0.00     0.319 C 
ATOM      2  O   UNL d   1      56.699  -1.607  31.895  0.00  0.00    -0.257 OA
ENDROOT
BRANCH   1   3
ATOM      3  O   UNL d   1      56.955  -0.179  31.303  0.00  0.00    -0.168 OA
BRANCH   3   4
ATOM      4  N   UNL d   1      57.580  -0.440  30.832  0.00  0.00    -0.100 NA
BRANCH   4   5
ATOM      5  C   UNL d   1      57.810   0.017  30.185  0.00  0.00     0.228 C 
ATOM      6  N   UNL d   1      57.363   0.682  29.956  0.00  0.00    -0.123 N 
BRANCH   5   7
ATOM      7  C   UNL d   1      58.489  -0.194  29.768  0.00  0.00     0.121 A 
ATOM      8  N   UNL d   1      58.399  -0.631  29.077  0.00  0.00    -0.241 NA
ATOM      9  C   UNL d   1      59.081  -0.855  28.640  0.00  0.00     0.099 A 
ATOM     10  C   UNL d   1      59.830  -0.631  28.914  0.00  0.00     0.021 A 
ATOM     11  C   UNL d   1      59.900  -0.196  29.605  0.00  0.00     0.003 A 
ATOM     12  C   UNL d   1      59.228   0.018  30.026  0.00  0.00     0.022 A 
ENDBRANCH   5   7
ENDBRANCH   4   5
ENDBRANCH   3   4
ENDBRANCH   1   3
BRANCH   1  13
ATOM     13  C   UNL d   1      56.284  -0.360  32.640  0.00  0.00     0.065 A 
ATOM     14  C   UNL d   1      56.776  -0.020  33.207  0.00  0.00     0.005 A 
ATOM     15  C   UNL d   1      56.437   0.328  33.874  0.00  0.00     0.000 A 
ATOM     16  C   UNL d   1      56.914   0.678  34.460  0.00  0.00     0.000 C 
ATOM     17  C   UNL d   1      55.626   0.334  33.970  0.00  0.00     0.000 A 
ATOM     18  C   UNL d   1      55.145  -0.007  33.401  0.00  0.00     0.000 A 
ATOM     19  C   UNL d   1      55.264   0.682  34.639  0.00  0.00     0.000 C 
ATOM     20  C   UNL d   1      55.477  -0.354  32.736  0.00  0.00     0.005 A 
ENDBRANCH   1  13
TORSDOF 5
ENDMDL
