MODEL 1
REMARK VINA RESULT:      -3.4      0.000      0.000
REMARK  9 active torsions:
REMARK  status: ('A' for Active; 'I' for Inactive)
REMARK       I    between atoms: C_9  and  N_1 
REMARK       I    between atoms: N_2  and  C_10 
REMARK    1  A    between atoms: C_17  and  C_9 
REMARK    2  A    between atoms: C_10  and  C_18 
REMARK    3  A    between atoms: C_21  and  C_17 
REMARK    4  A    between atoms: C_18  and  C_22 
REMARK    5  A    between atoms: C_24  and  C_21 
REMARK    6  A    between atoms: C_22  and  C_23 
REMARK    7  A    between atoms: C_23  and  C_26 
REMARK    8  A    between atoms: C_25  and  C_24 
REMARK    9  A    between atoms: C_26  and  C_25 
ROOT
ATOM      1  C   UNL d   1      32.711  18.504 -23.439  0.00  0.00     0.000 C 
ENDROOT
BRANCH   1   2
ATOM      2  C   UNL d   1      32.505  18.119 -24.148  0.00  0.00     0.000 C 
BRANCH   2   3
ATOM      3  C   UNL d   1      31.713  18.005 -24.336  0.00  0.00     0.005 C 
BRANCH   3   4
ATOM      4  C   UNL d   1      31.374  17.256 -24.270  0.00  0.00     0.063 C 
BRANCH   4   5
ATOM      5  C   UNL d   1      30.573  17.151 -24.433  0.00  0.00     0.280 C 
ATOM      6  N   UNL d   1      30.159  16.528 -24.088  0.00  0.00    -0.195 N 
ATOM      7  N   UNL d   1      29.359  16.420 -24.248  0.00  0.00    -0.163 NA
ATOM      8  C   UNL d   1      30.391  15.930 -23.569  0.00  0.00     0.088 A 
ATOM      9  C   UNL d   1      29.096  15.762 -23.832  0.00  0.00     0.103 A 
ATOM     10  C   UNL d   1      28.325  15.458 -23.835  0.00  0.00     0.022 C 
ATOM     11  C   UNL d   1      29.739  15.461 -23.412  0.00  0.00     0.040 A 
ATOM     12  C   UNL d   1      31.149  15.826 -23.261  0.00  0.00     0.021 C 
ATOM     13  O   UNL d   1      30.174  17.667 -24.941  0.00  0.00    -0.265 OA
ENDBRANCH   4   5
ENDBRANCH   3   4
ENDBRANCH   2   3
ENDBRANCH   1   2
BRANCH   1  14
ATOM     14  C   UNL d   1      32.793  19.325 -23.431  0.00  0.00     0.000 C 
BRANCH  14  15
ATOM     15  C   UNL d   1      33.240  19.695 -22.835  0.00  0.00     0.000 C 
BRANCH  15  16
ATOM     16  C   UNL d   1      32.867  20.073 -22.207  0.00  0.00     0.005 C 
BRANCH  16  17
ATOM     17  C   UNL d   1      33.130  20.813 -21.954  0.00  0.00     0.063 C 
BRANCH  17  18
ATOM     18  C   UNL d   1      33.040  21.039 -21.170  0.00  0.00     0.280 C 
ATOM     19  N   UNL d   1      33.032  21.838 -20.965  0.00  0.00    -0.195 N 
ATOM     20  N   UNL d   1      32.947  22.150 -20.208  0.00  0.00    -0.163 NA
ATOM     21  C   UNL d   1      33.110  22.480 -21.489  0.00  0.00     0.088 A 
ATOM     22  C   UNL d   1      32.972  22.973 -20.258  0.00  0.00     0.103 A 
ATOM     23  C   UNL d   1      32.906  23.498 -19.623  0.00  0.00     0.022 C 
ATOM     24  C   UNL d   1      33.073  23.174 -21.054  0.00  0.00     0.040 A 
ATOM     25  C   UNL d   1      33.209  22.421 -22.312  0.00  0.00     0.021 C 
ATOM     26  O   UNL d   1      32.956  20.463 -20.583  0.00  0.00    -0.265 OA
ENDBRANCH  17  18
ENDBRANCH  16  17
ENDBRANCH  15  16
ENDBRANCH  14  15
ENDBRANCH   1  14
TORSDOF 9
ENDMDL
MODEL 2
REMARK VINA RESULT:      -1.8      1.095      6.503
REMARK  9 active torsions:
REMARK  status: ('A' for Active; 'I' for Inactive)
REMARK       I    between atoms: C_9  and  N_1 
REMARK       I    between atoms: N_2  and  C_10 
REMARK    1  A    between atoms: C_17  and  C_9 
REMARK    2  A    between atoms: C_10  and  C_18 
REMARK    3  A    between atoms: C_21  and  C_17 
REMARK    4  A    between atoms: C_18  and  C_22 
REMARK    5  A    between atoms: C_24  and  C_21 
REMARK    6  A    between atoms: C_22  and  C_23 
REMARK    7  A    between atoms: C_23  and  C_26 
REMARK    8  A    between atoms: C_25  and  C_24 
REMARK    9  A    between atoms: C_26  and  C_25 
ROOT
ATOM      1  C   UNL d   1      32.257  18.423 -23.280  0.00  0.00     0.000 C 
ENDROOT
BRANCH   1   2
ATOM      2  C   UNL d   1      32.941  18.897 -23.251  0.00  0.00     0.000 C 
BRANCH   2   3
ATOM      3  C   UNL d   1      32.869  19.715 -23.189  0.00  0.00     0.005 C 
BRANCH   3   4
ATOM      4  C   UNL d   1      33.041  20.094 -22.477  0.00  0.00     0.063 C 
BRANCH   4   5
ATOM      5  C   UNL d   1      33.087  20.917 -22.450  0.00  0.00     0.280 C 
ATOM      6  N   UNL d   1      33.120  21.305 -21.725  0.00  0.00    -0.195 N 
ATOM      7  N   UNL d   1      33.166  22.126 -21.695  0.00  0.00    -0.163 NA
ATOM      8  C   UNL d   1      33.116  21.028 -20.948  0.00  0.00     0.088 A 
ATOM      9  C   UNL d   1      33.191  22.357 -20.906  0.00  0.00     0.103 A 
ATOM     10  C   UNL d   1      33.239  23.135 -20.626  0.00  0.00     0.022 C 
ATOM     11  C   UNL d   1      33.159  21.673 -20.447  0.00  0.00     0.040 A 
ATOM     12  C   UNL d   1      33.075  20.237 -20.719  0.00  0.00     0.021 C 
ATOM     13  O   UNL d   1      33.102  21.362 -23.147  0.00  0.00    -0.265 OA
ENDBRANCH   4   5
ENDBRANCH   3   4
ENDBRANCH   2   3
ENDBRANCH   1   2
BRANCH   1  14
ATOM     14  C   UNL d   1      32.184  17.851 -23.870  0.00  0.00     0.000 C 
BRANCH  14  15
ATOM     15  C   UNL d   1      32.066  17.053 -23.666  0.00  0.00     0.000 C 
BRANCH  15  16
ATOM     16  C   UNL d   1      31.360  16.813 -23.318  0.00  0.00     0.005 C 
BRANCH  16  17
ATOM     17  C   UNL d   1      30.788  16.425 -23.769  0.00  0.00     0.063 C 
BRANCH  17  18
ATOM     18  C   UNL d   1      30.198  15.987 -23.403  0.00  0.00     0.280 C 
ATOM     19  N   UNL d   1      29.428  15.993 -23.699  0.00  0.00    -0.195 N 
ATOM     20  N   UNL d   1      28.781  15.585 -23.394  0.00  0.00    -0.163 NA
ATOM     21  C   UNL d   1      29.162  16.417 -24.363  0.00  0.00     0.088 A 
ATOM     22  C   UNL d   1      28.122  15.751 -23.861  0.00  0.00     0.103 A 
ATOM     23  C   UNL d   1      27.360  15.453 -23.746  0.00  0.00     0.022 C 
ATOM     24  C   UNL d   1      28.362  16.267 -24.462  0.00  0.00     0.040 A 
ATOM     25  C   UNL d   1      29.632  16.906 -24.843  0.00  0.00     0.021 C 
ATOM     26  O   UNL d   1      30.377  15.535 -22.733  0.00  0.00    -0.265 OA
ENDBRANCH  17  18
ENDBRANCH  16  17
ENDBRANCH  15  16
ENDBRANCH  14  15
ENDBRANCH   1  14
TORSDOF 9
ENDMDL
MODEL 3
REMARK VINA RESULT:      -1.7      1.402      2.243
REMARK  9 active torsions:
REMARK  status: ('A' for Active; 'I' for Inactive)
REMARK       I    between atoms: C_9  and  N_1 
REMARK       I    between atoms: N_2  and  C_10 
REMARK    1  A    between atoms: C_17  and  C_9 
REMARK    2  A    between atoms: C_10  and  C_18 
REMARK    3  A    between atoms: C_21  and  C_17 
REMARK    4  A    between atoms: C_18  and  C_22 
REMARK    5  A    between atoms: C_24  and  C_21 
REMARK    6  A    between atoms: C_22  and  C_23 
REMARK    7  A    between atoms: C_23  and  C_26 
REMARK    8  A    between atoms: C_25  and  C_24 
REMARK    9  A    between atoms: C_26  and  C_25 
ROOT
ATOM      1  C   UNL d   1      32.885  20.635 -23.107  0.00  0.00     0.000 C 
ENDROOT
BRANCH   1   2
ATOM      2  C   UNL d   1      33.241  19.883 -23.130  0.00  0.00     0.000 C 
BRANCH   2   3
ATOM      3  C   UNL d   1      33.109  19.388 -23.773  0.00  0.00     0.005 C 
BRANCH   3   4
ATOM      4  C   UNL d   1      32.811  18.628 -23.656  0.00  0.00     0.063 C 
BRANCH   4   5
ATOM      5  C   UNL d   1      32.156  18.372 -24.087  0.00  0.00     0.280 C 
ATOM      6  N   UNL d   1      31.897  17.593 -24.023  0.00  0.00    -0.195 N 
ATOM      7  N   UNL d   1      31.244  17.335 -24.452  0.00  0.00    -0.163 NA
ATOM      8  C   UNL d   1      32.174  16.953 -23.583  0.00  0.00     0.088 A 
ATOM      9  C   UNL d   1      31.116  16.541 -24.279  0.00  0.00     0.103 A 
ATOM     10  C   UNL d   1      30.514  16.064 -24.592  0.00  0.00     0.022 C 
ATOM     11  C   UNL d   1      31.695  16.308 -23.740  0.00  0.00     0.040 A 
ATOM     12  C   UNL d   1      32.822  16.962 -23.073  0.00  0.00     0.021 C 
ATOM     13  O   UNL d   1      31.750  18.892 -24.587  0.00  0.00    -0.265 OA
ENDBRANCH   4   5
ENDBRANCH   3   4
ENDBRANCH   2   3
ENDBRANCH   1   2
BRANCH   1  14
ATOM     14  C   UNL d   1      33.211  21.226 -22.633  0.00  0.00     0.000 C 
BRANCH  14  15
ATOM     15  C   UNL d   1      32.906  21.367 -21.872  0.00  0.00     0.000 C 
BRANCH  15  16
ATOM     16  C   UNL d   1      33.157  22.020 -21.437  0.00  0.00     0.005 C 
BRANCH  16  17
ATOM     17  C   UNL d   1      33.039  22.043 -20.621  0.00  0.00     0.063 C 
BRANCH  17  18
ATOM     18  C   UNL d   1      33.068  22.758 -20.218  0.00  0.00     0.280 C 
ATOM     19  N   UNL d   1      33.116  22.771 -19.394  0.00  0.00    -0.195 N 
ATOM     20  N   UNL d   1      33.150  23.439 -18.915  0.00  0.00    -0.163 NA
ATOM     21  C   UNL d   1      33.140  22.107 -18.894  0.00  0.00     0.088 A 
ATOM     22  C   UNL d   1      33.193  23.196 -18.128  0.00  0.00     0.103 A 
ATOM     23  C   UNL d   1      33.236  23.694 -17.470  0.00  0.00     0.022 C 
ATOM     24  C   UNL d   1      33.187  22.369 -18.119  0.00  0.00     0.040 A 
ATOM     25  C   UNL d   1      33.119  21.314 -19.143  0.00  0.00     0.021 C 
ATOM     26  O   UNL d   1      33.050  23.469 -20.639  0.00  0.00    -0.265 OA
ENDBRANCH  17  18
ENDBRANCH  16  17
ENDBRANCH  15  16
ENDBRANCH  14  15
ENDBRANCH   1  14
TORSDOF 9
ENDMDL
