MODEL 1
REMARK VINA RESULT:      56.1      0.000      0.000
REMARK  1 active torsions:
REMARK  status: ('A' for Active; 'I' for Inactive)
REMARK    1  A    between atoms: N_3  and  C_1 
ROOT
ATOM      1  C   UNL d   1     -51.027  26.294  33.533  0.00  0.00     0.110 A 
ATOM      2  C   UNL d   1     -50.246  26.377  33.820  0.00  0.00     0.212 A 
ATOM      3  C   UNL d   1     -49.910  27.128  33.873  0.00  0.00     0.046 A 
ATOM      4  C   UNL d   1     -51.457  26.966  33.306  0.00  0.00     0.056 A 
ATOM      5  S   UNL d   1     -51.105  27.721  33.365  0.00  0.00    -0.085 SA
ATOM      6  C   UNL d   1     -50.338  27.797  33.646  0.00  0.00     0.033 A 
ATOM      7  C   UNL d   1     -49.140  27.215  34.154  0.00  0.00     0.004 A 
ATOM      8  O   UNL d   1     -49.817  25.713  34.046  0.00  0.00    -0.285 OA
ATOM      9  C   UNL d   1     -49.996  28.545  33.702  0.00  0.00     0.007 A 
ATOM     10  C   UNL d   1     -48.800  27.952  34.210  0.00  0.00     0.000 A 
ATOM     11  C   UNL d   1     -49.234  28.630  33.981  0.00  0.00     0.001 A 
ATOM     12  C   UNL d   1     -48.034  28.045  34.490  0.00  0.00     0.000 C 
ENDROOT
BRANCH   1  13
ATOM     13  N   UNL d   1     -51.372  25.544  33.477  0.00  0.00    -0.301 N 
ATOM     14  C   UNL d   1     -52.182  25.465  33.477  0.00  0.00     0.080 A 
ATOM     15  C   UNL d   1     -52.533  24.717  33.421  0.00  0.00     0.018 A 
ATOM     16  C   UNL d   1     -53.349  24.638  33.421  0.00  0.00     0.002 A 
ATOM     17  C   UNL d   1     -52.057  24.049  33.363  0.00  0.00     0.003 A 
ATOM     18  C   UNL d   1     -53.696  23.892  33.365  0.00  0.00     0.000 A 
ATOM     19  C   UNL d   1     -53.218  23.221  33.307  0.00  0.00     0.000 A 
ATOM     20  C   UNL d   1     -52.394  23.300  33.306  0.00  0.00     0.000 A 
ATOM     21  C   UNL d   1     -51.224  24.121  33.362  0.00  0.00     0.019 A 
ATOM     22  C   UNL d   1     -50.892  24.871  33.419  0.00  0.00     0.080 A 
ENDBRANCH   1  13
TORSDOF 1
ENDMDL
MODEL 2
REMARK VINA RESULT:      57.7      1.073      4.576
REMARK  1 active torsions:
REMARK  status: ('A' for Active; 'I' for Inactive)
REMARK    1  A    between atoms: N_3  and  C_1 
ROOT
ATOM      1  C   UNL d   1     -50.819  25.794  33.459  0.00  0.00     0.110 A 
ATOM      2  C   UNL d   1     -51.630  25.591  33.446  0.00  0.00     0.212 A 
ATOM      3  C   UNL d   1     -51.849  24.797  33.400  0.00  0.00     0.046 A 
ATOM      4  C   UNL d   1     -50.243  25.198  33.426  0.00  0.00     0.056 A 
ATOM      5  S   UNL d   1     -50.478  24.398  33.380  0.00  0.00    -0.085 SA
ATOM      6  C   UNL d   1     -51.276  24.203  33.367  0.00  0.00     0.033 A 
ATOM      7  C   UNL d   1     -52.647  24.592  33.388  0.00  0.00     0.004 A 
ATOM      8  O   UNL d   1     -52.202  26.179  33.479  0.00  0.00    -0.285 OA
ATOM      9  C   UNL d   1     -51.502  23.412  33.322  0.00  0.00     0.007 A 
ATOM     10  C   UNL d   1     -52.873  23.811  33.342  0.00  0.00     0.000 A 
ATOM     11  C   UNL d   1     -52.292  23.209  33.309  0.00  0.00     0.001 A 
ATOM     12  C   UNL d   1     -53.666  23.600  33.329  0.00  0.00     0.000 C 
ENDROOT
BRANCH   1  13
ATOM     13  N   UNL d   1     -50.590  26.588  33.505  0.00  0.00    -0.301 N 
ATOM     14  C   UNL d   1     -49.806  26.782  33.616  0.00  0.00     0.080 A 
ATOM     15  C   UNL d   1     -49.572  27.575  33.663  0.00  0.00     0.018 A 
ATOM     16  C   UNL d   1     -48.783  27.770  33.775  0.00  0.00     0.002 A 
ATOM     17  C   UNL d   1     -50.135  28.170  33.596  0.00  0.00     0.003 A 
ATOM     18  C   UNL d   1     -48.551  28.560  33.821  0.00  0.00     0.000 A 
ATOM     19  C   UNL d   1     -49.118  29.158  33.754  0.00  0.00     0.000 A 
ATOM     20  C   UNL d   1     -49.914  28.961  33.641  0.00  0.00     0.000 A 
ATOM     21  C   UNL d   1     -50.941  27.978  33.482  0.00  0.00     0.019 A 
ATOM     22  C   UNL d   1     -51.158  27.187  33.437  0.00  0.00     0.080 A 
ENDBRANCH   1  13
TORSDOF 1
ENDMDL
