MODEL 1
REMARK VINA RESULT:      57.9      0.000      0.000
REMARK  5 active torsions:
REMARK  status: ('A' for Active; 'I' for Inactive)
REMARK    1  A    between atoms: C_6  and  N_1 
REMARK    2  A    between atoms: C_7  and  C_2 
REMARK    3  A    between atoms: C_12  and  C_6 
REMARK    4  A    between atoms: C_11  and  C_7 
REMARK       I    between atoms: C_8  and  N_10 
REMARK    5  A    between atoms: N_10  and  C_11 
ROOT
ATOM      1  N   UNL d   1     -51.532  25.967  34.078  0.00  0.00    -0.289 N 
ATOM      2  C   UNL d   1     -51.731  26.007  34.885  0.00  0.00     0.149 A 
ATOM      3  N   UNL d   1     -51.120  26.403  35.279  0.00  0.00    -0.227 NA
ATOM      4  C   UNL d   1     -50.798  26.338  33.976  0.00  0.00     0.083 A 
ATOM      5  C   UNL d   1     -50.543  26.609  34.721  0.00  0.00     0.099 A 
ATOM      6  C   UNL d   1     -50.326  26.467  33.307  0.00  0.00     0.019 A 
ATOM      7  C   UNL d   1     -49.818  27.007  34.790  0.00  0.00     0.021 A 
ATOM      8  C   UNL d   1     -49.608  26.862  33.378  0.00  0.00     0.002 A 
ATOM      9  C   UNL d   1     -49.356  27.130  34.117  0.00  0.00     0.002 A 
ENDROOT
BRANCH   1  10
ATOM     10  C   UNL d   1     -51.983  25.618  33.481  0.00  0.00     0.082 C 
BRANCH  10  11
ATOM     11  C   UNL d   1     -52.117  24.805  33.483  0.00  0.00     0.018 A 
ATOM     12  C   UNL d   1     -52.873  24.519  33.637  0.00  0.00     0.002 A 
ATOM     13  C   UNL d   1     -53.014  23.700  33.641  0.00  0.00     0.000 A 
ATOM     14  C   UNL d   1     -52.391  23.191  33.490  0.00  0.00     0.000 A 
ATOM     15  C   UNL d   1     -51.632  23.481  33.336  0.00  0.00     0.000 A 
ATOM     16  C   UNL d   1     -51.498  24.292  33.333  0.00  0.00     0.002 A 
ENDBRANCH  10  11
ENDBRANCH   1  10
BRANCH   2  17
ATOM     17  C   UNL d   1     -52.197  25.881  35.551  0.00  0.00     0.058 C 
BRANCH  17  18
ATOM     18  C   UNL d   1     -51.872  25.969  36.302  0.00  0.00     0.105 C 
BRANCH  18  19
ATOM     19  N   UNL d   1     -52.351  25.900  36.967  0.00  0.00    -0.206 NA
ATOM     20  C   UNL d   1     -52.063  26.104  37.707  0.00  0.00     0.280 C 
ATOM     21  O   UNL d   1     -51.289  26.379  37.782  0.00  0.00    -0.265 OA
ATOM     22  C   UNL d   1     -52.543  26.035  38.374  0.00  0.00     0.068 C 
ENDBRANCH  18  19
ENDBRANCH  17  18
ENDBRANCH   2  17
TORSDOF 5
ENDMDL
