MODEL 1
REMARK VINA RESULT:      82.0      0.000      0.000
REMARK  7 active torsions:
REMARK  status: ('A' for Active; 'I' for Inactive)
REMARK    1  A    between atoms: C_13  and  N_1 
REMARK    2  A    between atoms: C_2  and  N_6 
REMARK    3  A    between atoms: C_8  and  C_5 
REMARK       I    between atoms: N_6  and  C_8 
REMARK    4  A    between atoms: S_20  and  C_9 
REMARK    5  A    between atoms: C_14  and  C_19 
REMARK    6  A    between atoms: C_19  and  C_23 
REMARK    7  A    between atoms: C_23  and  S_20 
ROOT
ATOM      1  N   UNL d   1      61.097  46.983  50.912  0.00  0.00    -0.181 NA
ATOM      2  C   UNL d   1      61.158  46.714  50.193  0.00  0.00     0.283 C 
ATOM      3  O   UNL d   1      61.048  47.187  49.594  0.00  0.00    -0.265 OA
ENDROOT
BRANCH   2   4
ATOM      4  C   UNL d   1      61.328  45.977  50.074  0.00  0.00     0.080 A 
ATOM      5  C   UNL d   1      61.530  45.463  50.606  0.00  0.00     0.088 A 
ATOM      6  N   UNL d   1      61.652  44.790  50.255  0.00  0.00    -0.273 N 
ATOM      7  C   UNL d   1      61.526  44.888  49.508  0.00  0.00     0.265 A 
ATOM      8  C   UNL d   1      61.324  45.625  49.389  0.00  0.00     0.067 A 
ATOM      9  O   UNL d   1      61.589  44.344  48.960  0.00  0.00    -0.267 OA
BRANCH   6  10
ATOM     10  C   UNL d   1      61.881  44.083  50.626  0.00  0.00     0.067 A 
ATOM     11  C   UNL d   1      61.455  43.811  51.279  0.00  0.00     0.020 A 
ATOM     12  C   UNL d   1      61.690  43.106  51.642  0.00  0.00     0.031 A 
ATOM     13  C   UNL d   1      62.332  42.682  51.362  0.00  0.00     0.140 A 
ATOM     14  C   UNL d   1      62.755  42.962  50.705  0.00  0.00     0.031 A 
ATOM     15  F   UNL d   1      62.567  41.972  51.730  0.00  0.00    -0.204 F 
ATOM     16  C   UNL d   1      62.532  43.653  50.341  0.00  0.00     0.020 A 
ENDBRANCH   6  10
ENDBRANCH   2   4
BRANCH   1  17
ATOM     17  C   UNL d   1      60.926  47.723  51.036  0.00  0.00     0.219 A 
ATOM     18  S   UNL d   1      60.222  48.013  51.153  0.00  0.00    -0.019 SA
ATOM     19  C   UNL d   1      60.291  48.765  51.253  0.00  0.00     0.165 A 
ATOM     20  N   UNL d   1      61.034  48.958  51.201  0.00  0.00    -0.133 NA
ATOM     21  N   UNL d   1      61.434  48.301  51.064  0.00  0.00    -0.120 NA
BRANCH  19  22
ATOM     22  S   UNL d   1      58.859  49.631  51.531  0.00  0.00    -0.059 SA
BRANCH  22  23
ATOM     23  C   UNL d   1      58.178  49.456  51.099  0.00  0.00     0.042 C 
BRANCH  23  24
ATOM     24  C   UNL d   1      58.113  49.705  50.312  0.00  0.00     0.058 C 
BRANCH  24  25
ATOM     25  C   UNL d   1      57.371  49.705  49.952  0.00  0.00     0.204 A 
ATOM     26  O   UNL d   1      56.639  49.705  50.345  0.00  0.00    -0.281 OA
ATOM     27  C   UNL d   1      56.043  49.705  49.767  0.00  0.00     0.152 A 
ATOM     28  C   UNL d   1      56.408  49.704  49.023  0.00  0.00     0.152 A 
ATOM     29  O   UNL d   1      57.227  49.704  49.134  0.00  0.00    -0.281 OA
ENDBRANCH  24  25
ENDBRANCH  23  24
ENDBRANCH  22  23
ENDBRANCH  19  22
ENDBRANCH   1  17
TORSDOF 7
ENDMDL
