MODEL 1
REMARK VINA RESULT:      22.3      0.000      0.000
REMARK  4 active torsions:
REMARK  status: ('A' for Active; 'I' for Inactive)
REMARK    1  A    between atoms: C_2  and  N_1 
REMARK    2  A    between atoms: C_6  and  C_2 
REMARK    3  A    between atoms: C_7  and  C_2 
REMARK    4  A    between atoms: C_9  and  C_6 
ROOT
ATOM      1  C   UNL d   1     -55.651 -99.856 -44.280  0.00  0.00     0.153 C 
ENDROOT
BRANCH   1   2
ATOM      2  N   UNL d   1     -55.371-100.631 -44.346  0.00  0.00    -0.224 N 
ATOM      3  N   UNL d   1     -55.457-101.135 -44.978  0.00  0.00    -0.165 NA
ATOM      4  C   UNL d   1     -55.093-101.845 -44.801  0.00  0.00     0.103 A 
ATOM      5  C   UNL d   1     -55.049-102.532 -45.311  0.00  0.00     0.022 C 
ATOM      6  C   UNL d   1     -54.771-101.790 -44.044  0.00  0.00     0.040 A 
ATOM      7  C   UNL d   1     -54.941-101.049 -43.767  0.00  0.00     0.085 A 
ATOM      8  C   UNL d   1     -54.713-100.760 -43.010  0.00  0.00     0.021 C 
ENDBRANCH   1   2
BRANCH   1   9
ATOM      9  C   UNL d   1     -56.430 -99.709 -44.032  0.00  0.00     0.096 C 
BRANCH   9  10
ATOM     10  C   UNL d   1     -56.939 -99.290 -44.521  0.00  0.00     0.213 C 
ATOM     11  O   UNL d   1     -56.655 -98.804 -45.125  0.00  0.00    -0.644 OA
ATOM     12  O   UNL d   1     -57.765 -99.330 -44.439  0.00  0.00    -0.644 OA
ENDBRANCH   9  10
ENDBRANCH   1   9
BRANCH   1  13
ATOM     13  C   UNL d   1     -55.159 -99.228 -44.459  0.00  0.00     0.230 C 
ATOM     14  O   UNL d   1     -54.858 -98.757 -43.846  0.00  0.00    -0.643 OA
ATOM     15  O   UNL d   1     -54.958 -99.055 -45.248  0.00  0.00    -0.643 OA
ENDBRANCH   1  13
TORSDOF 4
ENDMDL
MODEL 2
REMARK VINA RESULT:      23.4      0.995      1.616
REMARK  4 active torsions:
REMARK  status: ('A' for Active; 'I' for Inactive)
REMARK    1  A    between atoms: C_2  and  N_1 
REMARK    2  A    between atoms: C_6  and  C_2 
REMARK    3  A    between atoms: C_7  and  C_2 
REMARK    4  A    between atoms: C_9  and  C_6 
ROOT
ATOM      1  C   UNL d   1     -56.489 -99.086 -44.468  0.00  0.00     0.153 C 
ENDROOT
BRANCH   1   2
ATOM      2  N   UNL d   1     -55.870 -99.616 -44.333  0.00  0.00    -0.224 N 
ATOM      3  N   UNL d   1     -55.799-100.374 -44.618  0.00  0.00    -0.165 NA
ATOM      4  C   UNL d   1     -55.098-100.694 -44.345  0.00  0.00     0.103 A 
ATOM      5  C   UNL d   1     -54.802-101.481 -44.511  0.00  0.00     0.022 C 
ATOM      6  C   UNL d   1     -54.719-100.129 -43.878  0.00  0.00     0.040 A 
ATOM      7  C   UNL d   1     -55.191 -99.472 -43.872  0.00  0.00     0.085 A 
ATOM      8  C   UNL d   1     -55.010 -98.761 -43.459  0.00  0.00     0.021 C 
ENDBRANCH   1   2
BRANCH   1   9
ATOM      9  C   UNL d   1     -56.916 -98.765 -43.830  0.00  0.00     0.096 C 
BRANCH   9  10
ATOM     10  C   UNL d   1     -57.714 -98.940 -43.749  0.00  0.00     0.213 C 
ATOM     11  O   UNL d   1     -58.144 -99.296 -44.358  0.00  0.00    -0.644 OA
ATOM     12  O   UNL d   1     -58.136 -98.768 -43.053  0.00  0.00    -0.644 OA
ENDBRANCH   9  10
ENDBRANCH   1   9
BRANCH   1  13
ATOM     13  C   UNL d   1     -56.685 -98.873 -45.233  0.00  0.00     0.230 C 
ATOM     14  O   UNL d   1     -56.084 -98.773 -45.796  0.00  0.00    -0.643 OA
ATOM     15  O   UNL d   1     -57.479 -98.755 -45.453  0.00  0.00    -0.643 OA
ENDBRANCH   1  13
TORSDOF 4
ENDMDL
