MODEL 1
REMARK VINA RESULT:     -10.3      0.000      0.000
REMARK  2 active torsions:
REMARK  status: ('A' for Active; 'I' for Inactive)
REMARK    1  A    between atoms: C_8  and  N_1 
REMARK    2  A    between atoms: C_12  and  C_8 
ROOT
ATOM      1  N   UNL d   1     -48.572  13.533  23.140  0.00  0.00    -0.238 N 
ATOM      2  C   UNL d   1     -48.065  13.939  22.963  0.00  0.00     0.267 A 
ATOM      3  C   UNL d   1     -48.507  12.779  23.347  0.00  0.00     0.267 A 
ATOM      4  C   UNL d   1     -47.809  12.338  23.387  0.00  0.00     0.057 A 
ATOM      5  C   UNL d   1     -47.271  13.853  22.891  0.00  0.00     0.057 A 
ATOM      6  C   UNL d   1     -47.038  12.603  23.218  0.00  0.00     0.005 A 
ATOM      7  C   UNL d   1     -46.840  13.318  22.991  0.00  0.00     0.005 A 
ATOM      8  O   UNL d   1     -48.343  14.749  22.766  0.00  0.00    -0.267 OA
ATOM      9  O   UNL d   1     -49.167  12.400  23.535  0.00  0.00    -0.267 OA
ATOM     10  C   UNL d   1     -47.034  14.463  22.688  0.00  0.00     0.005 A 
ATOM     11  C   UNL d   1     -47.952  11.561  23.626  0.00  0.00     0.005 A 
ATOM     12  C   UNL d   1     -46.413  12.074  23.293  0.00  0.00     0.000 A 
ATOM     13  C   UNL d   1     -46.156  13.404  22.883  0.00  0.00     0.000 A 
ATOM     14  C   UNL d   1     -47.314  11.035  23.698  0.00  0.00     0.000 A 
ATOM     15  C   UNL d   1     -46.545  11.295  23.530  0.00  0.00     0.000 A 
ATOM     16  C   UNL d   1     -45.918  14.022  22.678  0.00  0.00     0.000 A 
ATOM     17  C   UNL d   1     -46.353  14.550  22.581  0.00  0.00     0.000 A 
ENDROOT
BRANCH   1  18
ATOM     18  C   UNL d   1     -49.390  13.879  23.141  0.00  0.00     0.111 C 
BRANCH  18  19
ATOM     19  C   UNL d   1     -49.936  13.717  22.468  0.00  0.00     0.118 A 
ATOM     20  O   UNL d   1     -49.796  13.941  21.626  0.00  0.00    -0.304 OA
ATOM     21  C   UNL d   1     -50.488  13.668  21.155  0.00  0.00     0.123 A 
ATOM     22  C   UNL d   1     -51.058  13.275  21.705  0.00  0.00     0.029 A 
ATOM     23  C   UNL d   1     -50.712  13.308  22.516  0.00  0.00     0.028 A 
ENDBRANCH  18  19
ENDBRANCH   1  18
TORSDOF 2
ENDMDL
MODEL 2
REMARK VINA RESULT:     -10.2      0.464      2.076
REMARK  2 active torsions:
REMARK  status: ('A' for Active; 'I' for Inactive)
REMARK    1  A    between atoms: C_8  and  N_1 
REMARK    2  A    between atoms: C_12  and  C_8 
ROOT
ATOM      1  N   UNL d   1     -48.787  13.307  23.273  0.00  0.00    -0.238 N 
ATOM      2  C   UNL d   1     -48.660  12.663  23.423  0.00  0.00     0.267 A 
ATOM      3  C   UNL d   1     -48.258  13.841  23.048  0.00  0.00     0.267 A 
ATOM      4  C   UNL d   1     -47.446  13.717  22.952  0.00  0.00     0.057 A 
ATOM      5  C   UNL d   1     -48.001  12.207  23.439  0.00  0.00     0.057 A 
ATOM      6  C   UNL d   1     -47.029  13.008  23.073  0.00  0.00     0.005 A 
ATOM      7  C   UNL d   1     -47.333  12.332  23.299  0.00  0.00     0.005 A 
ATOM      8  O   UNL d   1     -49.388  12.227  23.654  0.00  0.00    -0.267 OA
ATOM      9  O   UNL d   1     -48.518  14.564  22.899  0.00  0.00    -0.267 OA
ATOM     10  C   UNL d   1     -48.209  11.583  23.636  0.00  0.00     0.005 A 
ATOM     11  C   UNL d   1     -47.059  14.406  22.709  0.00  0.00     0.005 A 
ATOM     12  C   UNL d   1     -46.216  13.001  22.945  0.00  0.00     0.000 A 
ATOM     13  C   UNL d   1     -46.867  11.815  23.361  0.00  0.00     0.000 A 
ATOM     14  C   UNL d   1     -46.240  14.388  22.583  0.00  0.00     0.000 A 
ATOM     15  C   UNL d   1     -45.821  13.683  22.703  0.00  0.00     0.000 A 
ATOM     16  C   UNL d   1     -47.080  11.186  23.561  0.00  0.00     0.000 A 
ATOM     17  C   UNL d   1     -47.746  11.069  23.698  0.00  0.00     0.000 A 
ENDROOT
BRANCH   1  18
ATOM     18  C   UNL d   1     -49.630  13.581  23.335  0.00  0.00     0.111 C 
BRANCH  18  19
ATOM     19  C   UNL d   1     -50.127  13.638  22.610  0.00  0.00     0.118 A 
ATOM     20  O   UNL d   1     -50.302  12.977  22.053  0.00  0.00    -0.304 OA
ATOM     21  C   UNL d   1     -50.820  13.292  21.413  0.00  0.00     0.123 A 
ATOM     22  C   UNL d   1     -50.965  14.149  21.574  0.00  0.00     0.029 A 
ATOM     23  C   UNL d   1     -50.535  14.358  22.315  0.00  0.00     0.028 A 
ENDBRANCH  18  19
ENDBRANCH   1  18
TORSDOF 2
ENDMDL
MODEL 3
REMARK VINA RESULT:      -9.8      1.236      3.885
REMARK  2 active torsions:
REMARK  status: ('A' for Active; 'I' for Inactive)
REMARK    1  A    between atoms: C_8  and  N_1 
REMARK    2  A    between atoms: C_12  and  C_8 
ROOT
ATOM      1  N   UNL d   1     -48.768  13.232  22.431  0.00  0.00    -0.238 N 
ATOM      2  C   UNL d   1     -49.198  12.755  22.635  0.00  0.00     0.267 A 
ATOM      3  C   UNL d   1     -48.845  14.003  22.551  0.00  0.00     0.267 A 
ATOM      4  C   UNL d   1     -49.466  14.379  22.949  0.00  0.00     0.057 A 
ATOM      5  C   UNL d   1     -49.891  12.755  23.039  0.00  0.00     0.057 A 
ATOM      6  C   UNL d   1     -50.128  14.019  23.299  0.00  0.00     0.005 A 
ATOM      7  C   UNL d   1     -50.280  13.259  23.314  0.00  0.00     0.005 A 
ATOM      8  O   UNL d   1     -48.933  11.950  22.403  0.00  0.00    -0.267 OA
ATOM      9  O   UNL d   1     -48.283  14.469  22.268  0.00  0.00    -0.267 OA
ATOM     10  C   UNL d   1     -50.080  12.097  23.085  0.00  0.00     0.005 A 
ATOM     11  C   UNL d   1     -49.363  15.199  22.968  0.00  0.00     0.005 A 
ATOM     12  C   UNL d   1     -50.687  14.494  23.671  0.00  0.00     0.000 A 
ATOM     13  C   UNL d   1     -50.873  13.093  23.644  0.00  0.00     0.000 A 
ATOM     14  C   UNL d   1     -49.932  15.670  23.345  0.00  0.00     0.000 A 
ATOM     15  C   UNL d   1     -50.594  15.314  23.696  0.00  0.00     0.000 A 
ATOM     16  C   UNL d   1     -51.063  12.427  23.689  0.00  0.00     0.000 A 
ATOM     17  C   UNL d   1     -50.670  11.931  23.413  0.00  0.00     0.000 A 
ENDROOT
BRANCH   1  18
ATOM     18  C   UNL d   1     -48.047  12.967  21.986  0.00  0.00     0.111 C 
BRANCH  18  19
ATOM     19  C   UNL d   1     -47.275  12.897  22.403  0.00  0.00     0.118 A 
ATOM     20  O   UNL d   1     -47.109  12.378  23.097  0.00  0.00    -0.304 OA
ATOM     21  C   UNL d   1     -46.265  12.491  23.325  0.00  0.00     0.123 A 
ATOM     22  C   UNL d   1     -45.908  13.081  22.771  0.00  0.00     0.029 A 
ATOM     23  C   UNL d   1     -46.535  13.329  22.203  0.00  0.00     0.028 A 
ENDBRANCH  18  19
ENDBRANCH   1  18
TORSDOF 2
ENDMDL
MODEL 4
REMARK VINA RESULT:      -9.4      1.349      3.341
REMARK  2 active torsions:
REMARK  status: ('A' for Active; 'I' for Inactive)
REMARK    1  A    between atoms: C_8  and  N_1 
REMARK    2  A    between atoms: C_12  and  C_8 
ROOT
ATOM      1  N   UNL d   1     -48.693  13.813  22.416  0.00  0.00    -0.238 N 
ATOM      2  C   UNL d   1     -48.950  14.399  22.624  0.00  0.00     0.267 A 
ATOM      3  C   UNL d   1     -49.005  13.103  22.536  0.00  0.00     0.267 A 
ATOM      4  C   UNL d   1     -49.708  12.938  22.940  0.00  0.00     0.057 A 
ATOM      5  C   UNL d   1     -49.605  14.614  23.035  0.00  0.00     0.057 A 
ATOM      6  C   UNL d   1     -50.222  13.486  23.297  0.00  0.00     0.005 A 
ATOM      7  C   UNL d   1     -50.129  14.256  23.314  0.00  0.00     0.005 A 
ATOM      8  O   UNL d   1     -48.450  15.083  22.390  0.00  0.00    -0.267 OA
ATOM      9  O   UNL d   1     -48.619  12.487  22.248  0.00  0.00    -0.267 OA
ATOM     10  C   UNL d   1     -49.579  15.298  23.084  0.00  0.00     0.005 A 
ATOM     11  C   UNL d   1     -49.866  12.127  22.958  0.00  0.00     0.005 A 
ATOM     12  C   UNL d   1     -50.897  13.207  23.674  0.00  0.00     0.000 A 
ATOM     13  C   UNL d   1     -50.638  14.597  23.650  0.00  0.00     0.000 A 
ATOM     14  C   UNL d   1     -50.550  11.856  23.340  0.00  0.00     0.000 A 
ATOM     15  C   UNL d   1     -51.064  12.399  23.698  0.00  0.00     0.000 A 
ATOM     16  C   UNL d   1     -50.610  15.288  23.698  0.00  0.00     0.000 A 
ATOM     17  C   UNL d   1     -50.085  15.638  23.417  0.00  0.00     0.000 A 
ENDROOT
BRANCH   1  18
ATOM     18  C   UNL d   1     -47.929  13.841  21.963  0.00  0.00     0.111 C 
BRANCH  18  19
ATOM     19  C   UNL d   1     -47.170  13.662  22.372  0.00  0.00     0.118 A 
ATOM     20  O   UNL d   1     -46.788  14.160  22.992  0.00  0.00    -0.304 OA
ATOM     21  C   UNL d   1     -46.041  13.762  23.238  0.00  0.00     0.123 A 
ATOM     22  C   UNL d   1     -45.960  13.016  22.769  0.00  0.00     0.029 A 
ATOM     23  C   UNL d   1     -46.660  12.959  22.236  0.00  0.00     0.028 A 
ENDBRANCH  18  19
ENDBRANCH   1  18
TORSDOF 2
ENDMDL
MODEL 5
REMARK VINA RESULT:      -8.9      1.288      2.129
REMARK  2 active torsions:
REMARK  status: ('A' for Active; 'I' for Inactive)
REMARK    1  A    between atoms: C_8  and  N_1 
REMARK    2  A    between atoms: C_12  and  C_8 
ROOT
ATOM      1  N   UNL d   1     -48.903  13.138  22.167  0.00  0.00    -0.238 N 
ATOM      2  C   UNL d   1     -49.068  13.789  22.205  0.00  0.00     0.267 A 
ATOM      3  C   UNL d   1     -48.186  12.837  22.274  0.00  0.00     0.267 A 
ATOM      4  C   UNL d   1     -47.497  13.259  22.453  0.00  0.00     0.057 A 
ATOM      5  C   UNL d   1     -48.665  14.466  22.356  0.00  0.00     0.057 A 
ATOM      6  C   UNL d   1     -47.426  14.082  22.555  0.00  0.00     0.005 A 
ATOM      7  C   UNL d   1     -47.999  14.601  22.500  0.00  0.00     0.005 A 
ATOM      8  O   UNL d   1     -49.923  13.924  22.054  0.00  0.00    -0.267 OA
ATOM      9  O   UNL d   1     -48.108  12.061  22.206  0.00  0.00    -0.267 OA
ATOM     10  C   UNL d   1     -49.127  14.972  22.321  0.00  0.00     0.005 A 
ATOM     11  C   UNL d   1     -46.843  12.760  22.526  0.00  0.00     0.005 A 
ATOM     12  C   UNL d   1     -46.687  14.395  22.732  0.00  0.00     0.000 A 
ATOM     13  C   UNL d   1     -47.799  15.261  22.610  0.00  0.00     0.000 A 
ATOM     14  C   UNL d   1     -46.102  13.086  22.705  0.00  0.00     0.000 A 
ATOM     15  C   UNL d   1     -46.027  13.905  22.807  0.00  0.00     0.000 A 
ATOM     16  C   UNL d   1     -48.268  15.770  22.573  0.00  0.00     0.000 A 
ATOM     17  C   UNL d   1     -48.928  15.628  22.430  0.00  0.00     0.000 A 
ENDROOT
BRANCH   1  18
ATOM     18  C   UNL d   1     -49.553  12.563  21.980  0.00  0.00     0.111 C 
BRANCH  18  19
ATOM     19  C   UNL d   1     -50.025  12.206  22.632  0.00  0.00     0.118 A 
ATOM     20  O   UNL d   1     -50.803  12.500  22.925  0.00  0.00    -0.304 OA
ATOM     21  C   UNL d   1     -51.064  11.970  23.580  0.00  0.00     0.123 A 
ATOM     22  C   UNL d   1     -50.446  11.348  23.691  0.00  0.00     0.029 A 
ATOM     23  C   UNL d   1     -49.806  11.497  23.104  0.00  0.00     0.028 A 
ENDBRANCH  18  19
ENDBRANCH   1  18
TORSDOF 2
ENDMDL
MODEL 6
REMARK VINA RESULT:      -8.6      1.155      3.338
REMARK  2 active torsions:
REMARK  status: ('A' for Active; 'I' for Inactive)
REMARK    1  A    between atoms: C_8  and  N_1 
REMARK    2  A    between atoms: C_12  and  C_8 
ROOT
ATOM      1  N   UNL d   1     -48.023  13.294  22.175  0.00  0.00    -0.238 N 
ATOM      2  C   UNL d   1     -48.067  13.923  22.409  0.00  0.00     0.267 A 
ATOM      3  C   UNL d   1     -48.627  12.828  21.988  0.00  0.00     0.267 A 
ATOM      4  C   UNL d   1     -49.430  13.019  22.042  0.00  0.00     0.057 A 
ATOM      5  C   UNL d   1     -48.672  14.420  22.582  0.00  0.00     0.057 A 
ATOM      6  C   UNL d   1     -49.758  13.738  22.304  0.00  0.00     0.005 A 
ATOM      7  C   UNL d   1     -49.363  14.360  22.545  0.00  0.00     0.005 A 
ATOM      8  O   UNL d   1     -47.276  14.277  22.558  0.00  0.00    -0.267 OA
ATOM      9  O   UNL d   1     -48.459  12.110  21.724  0.00  0.00    -0.267 OA
ATOM     10  C   UNL d   1     -48.381  15.000  22.805  0.00  0.00     0.005 A 
ATOM     11  C   UNL d   1     -49.909  12.393  21.798  0.00  0.00     0.005 A 
ATOM     12  C   UNL d   1     -50.576  13.817  22.316  0.00  0.00     0.000 A 
ATOM     13  C   UNL d   1     -49.765  14.897  22.737  0.00  0.00     0.000 A 
ATOM     14  C   UNL d   1     -50.733  12.483  21.814  0.00  0.00     0.000 A 
ATOM     15  C   UNL d   1     -51.064  13.197  22.074  0.00  0.00     0.000 A 
ATOM     16  C   UNL d   1     -49.468  15.482  22.961  0.00  0.00     0.000 A 
ATOM     17  C   UNL d   1     -48.781  15.535  22.996  0.00  0.00     0.000 A 
ENDROOT
BRANCH   1  18
ATOM     18  C   UNL d   1     -47.209  12.955  22.066  0.00  0.00     0.111 C 
BRANCH  18  19
ATOM     19  C   UNL d   1     -46.864  12.433  22.686  0.00  0.00     0.118 A 
ATOM     20  O   UNL d   1     -47.301  11.818  23.143  0.00  0.00    -0.304 OA
ATOM     21  C   UNL d   1     -46.732  11.437  23.698  0.00  0.00     0.123 A 
ATOM     22  C   UNL d   1     -45.942  11.818  23.584  0.00  0.00     0.029 A 
ATOM     23  C   UNL d   1     -46.028  12.432  22.958  0.00  0.00     0.028 A 
ENDBRANCH  18  19
ENDBRANCH   1  18
TORSDOF 2
ENDMDL
MODEL 7
REMARK VINA RESULT:      -8.5      1.241      2.511
REMARK  2 active torsions:
REMARK  status: ('A' for Active; 'I' for Inactive)
REMARK    1  A    between atoms: C_8  and  N_1 
REMARK    2  A    between atoms: C_12  and  C_8 
ROOT
ATOM      1  N   UNL d   1     -48.510  12.789  22.215  0.00  0.00    -0.238 N 
ATOM      2  C   UNL d   1     -47.892  12.623  22.424  0.00  0.00     0.267 A 
ATOM      3  C   UNL d   1     -48.787  13.518  22.128  0.00  0.00     0.267 A 
ATOM      4  C   UNL d   1     -48.376  14.221  22.275  0.00  0.00     0.057 A 
ATOM      5  C   UNL d   1     -47.243  13.036  22.650  0.00  0.00     0.057 A 
ATOM      6  C   UNL d   1     -47.592  14.297  22.543  0.00  0.00     0.005 A 
ATOM      7  C   UNL d   1     -47.106  13.715  22.704  0.00  0.00     0.005 A 
ATOM      8  O   UNL d   1     -47.775  11.753  22.455  0.00  0.00    -0.267 OA
ATOM      9  O   UNL d   1     -49.525  13.595  21.876  0.00  0.00    -0.267 OA
ATOM     10  C   UNL d   1     -46.767  12.567  22.807  0.00  0.00     0.005 A 
ATOM     11  C   UNL d   1     -48.843  14.885  22.122  0.00  0.00     0.005 A 
ATOM     12  C   UNL d   1     -47.284  15.051  22.656  0.00  0.00     0.000 A 
ATOM     13  C   UNL d   1     -46.475  13.921  22.921  0.00  0.00     0.000 A 
ATOM     14  C   UNL d   1     -48.523  15.641  22.239  0.00  0.00     0.000 A 
ATOM     15  C   UNL d   1     -47.742  15.721  22.507  0.00  0.00     0.000 A 
ATOM     16  C   UNL d   1     -45.996  13.445  23.079  0.00  0.00     0.000 A 
ATOM     17  C   UNL d   1     -46.140  12.772  23.024  0.00  0.00     0.000 A 
ENDROOT
BRANCH   1  18
ATOM     18  C   UNL d   1     -49.066  12.125  22.018  0.00  0.00     0.111 C 
BRANCH  18  19
ATOM     19  C   UNL d   1     -49.664  11.864  22.609  0.00  0.00     0.118 A 
ATOM     20  O   UNL d   1     -49.535  11.266  23.244  0.00  0.00    -0.304 OA
ATOM     21  C   UNL d   1     -50.287  11.186  23.698  0.00  0.00     0.123 A 
ATOM     22  C   UNL d   1     -50.881  11.735  23.343  0.00  0.00     0.029 A 
ATOM     23  C   UNL d   1     -50.493  12.153  22.671  0.00  0.00     0.028 A 
ENDBRANCH  18  19
ENDBRANCH   1  18
TORSDOF 2
ENDMDL
MODEL 8
REMARK VINA RESULT:      -7.4      8.419      9.839
REMARK  2 active torsions:
REMARK  status: ('A' for Active; 'I' for Inactive)
REMARK    1  A    between atoms: C_8  and  N_1 
REMARK    2  A    between atoms: C_12  and  C_8 
ROOT
ATOM      1  N   UNL d   1     -40.208  14.503  18.967  0.00  0.00    -0.238 N 
ATOM      2  C   UNL d   1     -40.544  14.940  18.581  0.00  0.00     0.267 A 
ATOM      3  C   UNL d   1     -39.624  14.034  18.733  0.00  0.00     0.267 A 
ATOM      4  C   UNL d   1     -39.309  13.986  17.970  0.00  0.00     0.057 A 
ATOM      5  C   UNL d   1     -40.508  15.154  17.809  0.00  0.00     0.057 A 
ATOM      6  C   UNL d   1     -39.545  14.421  17.302  0.00  0.00     0.005 A 
ATOM      7  C   UNL d   1     -40.108  14.953  17.278  0.00  0.00     0.005 A 
ATOM      8  O   UNL d   1     -41.164  15.372  19.030  0.00  0.00    -0.267 OA
ATOM      9  O   UNL d   1     -39.304  13.563  19.271  0.00  0.00    -0.267 OA
ATOM     10  C   UNL d   1     -40.992  15.632  17.724  0.00  0.00     0.005 A 
ATOM     11  C   UNL d   1     -38.698  13.432  17.927  0.00  0.00     0.005 A 
ATOM     12  C   UNL d   1     -39.157  14.290  16.588  0.00  0.00     0.000 A 
ATOM     13  C   UNL d   1     -40.202  15.242  16.649  0.00  0.00     0.000 A 
ATOM     14  C   UNL d   1     -38.313  13.307  17.203  0.00  0.00     0.000 A 
ATOM     15  C   UNL d   1     -38.546  13.739  16.534  0.00  0.00     0.000 A 
ATOM     16  C   UNL d   1     -40.692  15.725  16.566  0.00  0.00     0.000 A 
ATOM     17  C   UNL d   1     -41.086  15.920  17.099  0.00  0.00     0.000 A 
ENDROOT
BRANCH   1  18
ATOM     18  C   UNL d   1     -40.446  14.449  19.822  0.00  0.00     0.111 C 
BRANCH  18  19
ATOM     19  C   UNL d   1     -40.075  14.985  20.415  0.00  0.00     0.118 A 
ATOM     20  O   UNL d   1     -39.210  15.116  20.521  0.00  0.00    -0.304 OA
ATOM     21  C   UNL d   1     -39.102  15.695  21.176  0.00  0.00     0.123 A 
ATOM     22  C   UNL d   1     -39.902  15.922  21.477  0.00  0.00     0.029 A 
ATOM     23  C   UNL d   1     -40.500  15.481  21.003  0.00  0.00     0.028 A 
ENDBRANCH  18  19
ENDBRANCH   1  18
TORSDOF 2
ENDMDL
MODEL 9
REMARK VINA RESULT:      -7.3      8.740      9.995
REMARK  2 active torsions:
REMARK  status: ('A' for Active; 'I' for Inactive)
REMARK    1  A    between atoms: C_8  and  N_1 
REMARK    2  A    between atoms: C_12  and  C_8 
ROOT
ATOM      1  N   UNL d   1     -39.905  14.397  19.314  0.00  0.00    -0.238 N 
ATOM      2  C   UNL d   1     -39.470  13.991  19.000  0.00  0.00     0.267 A 
ATOM      3  C   UNL d   1     -40.371  14.927  18.972  0.00  0.00     0.267 A 
ATOM      4  C   UNL d   1     -40.419  15.089  18.162  0.00  0.00     0.057 A 
ATOM      5  C   UNL d   1     -39.256  13.876  18.235  0.00  0.00     0.057 A 
ATOM      6  C   UNL d   1     -39.986  14.726  17.552  0.00  0.00     0.005 A 
ATOM      7  C   UNL d   1     -39.456  14.167  17.637  0.00  0.00     0.005 A 
ATOM      8  O   UNL d   1     -39.039  13.467  19.560  0.00  0.00    -0.267 OA
ATOM      9  O   UNL d   1     -40.840  15.347  19.438  0.00  0.00    -0.267 OA
ATOM     10  C   UNL d   1     -38.780  13.382  18.245  0.00  0.00     0.005 A 
ATOM     11  C   UNL d   1     -40.971  15.683  18.003  0.00  0.00     0.005 A 
ATOM     12  C   UNL d   1     -40.116  14.969  16.777  0.00  0.00     0.000 A 
ATOM     13  C   UNL d   1     -39.168  13.952  17.038  0.00  0.00     0.000 A 
ATOM     14  C   UNL d   1     -41.095  15.920  17.218  0.00  0.00     0.000 A 
ATOM     15  C   UNL d   1     -40.665  15.561  16.606  0.00  0.00     0.000 A 
ATOM     16  C   UNL d   1     -38.687  13.453  17.051  0.00  0.00     0.000 A 
ATOM     17  C   UNL d   1     -38.493  13.169  17.650  0.00  0.00     0.000 A 
ENDROOT
BRANCH   1  18
ATOM     18  C   UNL d   1     -39.958  14.329  20.198  0.00  0.00     0.111 C 
BRANCH  18  19
ATOM     19  C   UNL d   1     -39.547  14.917  20.709  0.00  0.00     0.118 A 
ATOM     20  O   UNL d   1     -38.686  15.108  20.685  0.00  0.00    -0.304 OA
ATOM     21  C   UNL d   1     -38.529  15.726  21.294  0.00  0.00     0.123 A 
ATOM     22  C   UNL d   1     -39.293  15.918  21.694  0.00  0.00     0.029 A 
ATOM     23  C   UNL d   1     -39.920  15.416  21.330  0.00  0.00     0.028 A 
ENDBRANCH  18  19
ENDBRANCH   1  18
TORSDOF 2
ENDMDL
