MODEL 1
REMARK VINA RESULT:      -7.9      0.000      0.000
REMARK  5 active torsions:
REMARK  status: ('A' for Active; 'I' for Inactive)
REMARK    1  A    between atoms: N_2  and  S_1 
REMARK    2  A    between atoms: C_8  and  S_1 
REMARK    3  A    between atoms: S_7  and  C_3 
REMARK    4  A    between atoms: C_11  and  S_7 
REMARK    5  A    between atoms: C_12  and  C_11 
ROOT
ATOM      1  N   UNL d   1     -49.358  13.967  22.485  0.00  0.00    -0.208 N 
ATOM      2  C   UNL d   1     -48.596  14.179  22.749  0.00  0.00     0.189 A 
ATOM      3  N   UNL d   1     -48.671  14.829  23.260  0.00  0.00    -0.219 NA
ATOM      4  C   UNL d   1     -49.904  14.490  22.835  0.00  0.00     0.114 A 
ATOM      5  C   UNL d   1     -49.479  15.017  23.309  0.00  0.00     0.121 A 
ENDROOT
BRANCH   1   6
ATOM      6  S   UNL d   1     -49.535  13.344  21.964  0.00  0.00     0.273 S 
ATOM      7  O   UNL d   1     -49.152  13.772  21.378  0.00  0.00    -0.200 OA
ATOM      8  O   UNL d   1     -49.588  12.874  21.282  0.00  0.00    -0.200 OA
BRANCH   6   9
ATOM      9  C   UNL d   1     -49.925  12.898  22.543  0.00  0.00     0.104 A 
ATOM     10  C   UNL d   1     -50.674  13.125  22.790  0.00  0.00     0.013 A 
ATOM     11  C   UNL d   1     -51.061  12.680  23.365  0.00  0.00     0.001 A 
ATOM     12  C   UNL d   1     -50.697  12.015  23.687  0.00  0.00     0.000 A 
ATOM     13  C   UNL d   1     -49.948  11.792  23.436  0.00  0.00     0.001 A 
ATOM     14  C   UNL d   1     -49.561  12.242  22.858  0.00  0.00     0.013 A 
ENDBRANCH   6   9
ENDBRANCH   1   6
BRANCH   2  15
ATOM     15  S   UNL d   1     -47.883  13.803  22.537  0.00  0.00    -0.049 SA
BRANCH  15  16
ATOM     16  C   UNL d   1     -47.187  13.982  22.946  0.00  0.00     0.038 C 
BRANCH  16  17
ATOM     17  C   UNL d   1     -46.478  13.593  22.745  0.00  0.00     0.007 A 
ATOM     18  C   UNL d   1     -46.294  12.852  23.076  0.00  0.00     0.001 A 
ATOM     19  C   UNL d   1     -45.597  12.465  22.882  0.00  0.00     0.000 A 
ATOM     20  C   UNL d   1     -45.071  12.816  22.349  0.00  0.00     0.000 A 
ATOM     21  C   UNL d   1     -45.251  13.556  22.016  0.00  0.00     0.000 A 
ATOM     22  C   UNL d   1     -44.369  12.434  22.148  0.00  0.00     0.000 C 
ATOM     23  C   UNL d   1     -45.953  13.941  22.215  0.00  0.00     0.001 A 
ENDBRANCH  16  17
ENDBRANCH  15  16
ENDBRANCH   2  15
TORSDOF 5
ENDMDL
MODEL 2
REMARK VINA RESULT:      -6.3      9.293     10.075
REMARK  5 active torsions:
REMARK  status: ('A' for Active; 'I' for Inactive)
REMARK    1  A    between atoms: N_2  and  S_1 
REMARK    2  A    between atoms: C_8  and  S_1 
REMARK    3  A    between atoms: S_7  and  C_3 
REMARK    4  A    between atoms: C_11  and  S_7 
REMARK    5  A    between atoms: C_12  and  C_11 
ROOT
ATOM      1  N   UNL d   1     -39.127  14.676  17.989  0.00  0.00    -0.208 N 
ATOM      2  C   UNL d   1     -38.693  14.812  18.688  0.00  0.00     0.189 A 
ATOM      3  N   UNL d   1     -38.101  15.368  18.519  0.00  0.00    -0.219 NA
ATOM      4  C   UNL d   1     -38.800  15.151  17.388  0.00  0.00     0.114 A 
ATOM      5  C   UNL d   1     -38.171  15.574  17.718  0.00  0.00     0.121 A 
ENDROOT
BRANCH   1   6
ATOM      6  S   UNL d   1     -39.771  14.157  17.912  0.00  0.00     0.273 S 
ATOM      7  O   UNL d   1     -39.274  13.557  18.168  0.00  0.00    -0.200 OA
ATOM      8  O   UNL d   1     -40.241  13.473  17.915  0.00  0.00    -0.200 OA
BRANCH   6   9
ATOM      9  C   UNL d   1     -40.289  14.750  17.651  0.00  0.00     0.104 A 
ATOM     10  C   UNL d   1     -40.772  15.130  18.195  0.00  0.00     0.013 A 
ATOM     11  C   UNL d   1     -41.286  15.719  17.935  0.00  0.00     0.001 A 
ATOM     12  C   UNL d   1     -41.312  15.922  17.137  0.00  0.00     0.000 A 
ATOM     13  C   UNL d   1     -40.827  15.538  16.598  0.00  0.00     0.001 A 
ATOM     14  C   UNL d   1     -40.311  14.946  16.862  0.00  0.00     0.013 A 
ENDBRANCH   6   9
ENDBRANCH   1   6
BRANCH   2  15
ATOM     15  S   UNL d   1     -38.831  14.451  19.427  0.00  0.00    -0.049 SA
BRANCH  15  16
ATOM     16  C   UNL d   1     -38.381  14.675  20.083  0.00  0.00     0.038 C 
BRANCH  16  17
ATOM     17  C   UNL d   1     -38.526  14.323  20.824  0.00  0.00     0.007 A 
ATOM     18  C   UNL d   1     -39.098  14.642  21.338  0.00  0.00     0.001 A 
ATOM     19  C   UNL d   1     -39.246  14.299  22.069  0.00  0.00     0.000 A 
ATOM     20  C   UNL d   1     -38.821  13.628  22.297  0.00  0.00     0.000 A 
ATOM     21  C   UNL d   1     -38.249  13.306  21.786  0.00  0.00     0.000 A 
ATOM     22  C   UNL d   1     -38.963  13.277  23.029  0.00  0.00     0.000 C 
ATOM     23  C   UNL d   1     -38.104  13.655  21.053  0.00  0.00     0.001 A 
ENDBRANCH  16  17
ENDBRANCH  15  16
ENDBRANCH   2  15
TORSDOF 5
ENDMDL
MODEL 3
REMARK VINA RESULT:      -6.2      8.336     10.041
REMARK  5 active torsions:
REMARK  status: ('A' for Active; 'I' for Inactive)
REMARK    1  A    between atoms: N_2  and  S_1 
REMARK    2  A    between atoms: C_8  and  S_1 
REMARK    3  A    between atoms: S_7  and  C_3 
REMARK    4  A    between atoms: C_11  and  S_7 
REMARK    5  A    between atoms: C_12  and  C_11 
ROOT
ATOM      1  N   UNL d   1     -39.775  14.837  20.510  0.00  0.00    -0.208 N 
ATOM      2  C   UNL d   1     -40.032  14.529  19.780  0.00  0.00     0.189 A 
ATOM      3  N   UNL d   1     -40.823  14.293  19.864  0.00  0.00    -0.219 NA
ATOM      4  C   UNL d   1     -40.411  14.790  21.046  0.00  0.00     0.114 A 
ATOM      5  C   UNL d   1     -41.052  14.456  20.646  0.00  0.00     0.121 A 
ENDROOT
BRANCH   1   6
ATOM      6  S   UNL d   1     -39.016  15.137  20.670  0.00  0.00     0.273 S 
ATOM      7  O   UNL d   1     -39.160  15.707  20.097  0.00  0.00    -0.200 OA
ATOM      8  O   UNL d   1     -38.328  15.601  20.649  0.00  0.00    -0.200 OA
BRANCH   6   9
ATOM      9  C   UNL d   1     -38.853  14.569  21.251  0.00  0.00     0.104 A 
ATOM     10  C   UNL d   1     -39.104  14.699  22.022  0.00  0.00     0.013 A 
ATOM     11  C   UNL d   1     -38.942  14.133  22.599  0.00  0.00     0.001 A 
ATOM     12  C   UNL d   1     -38.532  13.447  22.401  0.00  0.00     0.000 A 
ATOM     13  C   UNL d   1     -38.283  13.323  21.628  0.00  0.00     0.001 A 
ATOM     14  C   UNL d   1     -38.448  13.893  21.050  0.00  0.00     0.013 A 
ENDBRANCH   6   9
ENDBRANCH   1   6
BRANCH   2  15
ATOM     15  S   UNL d   1     -39.573  14.468  19.086  0.00  0.00    -0.049 SA
BRANCH  15  16
ATOM     16  C   UNL d   1     -39.900  14.127  18.407  0.00  0.00     0.038 C 
BRANCH  16  17
ATOM     17  C   UNL d   1     -39.428  14.024  17.729  0.00  0.00     0.007 A 
ATOM     18  C   UNL d   1     -38.955  13.344  17.643  0.00  0.00     0.001 A 
ATOM     19  C   UNL d   1     -38.487  13.236  16.977  0.00  0.00     0.000 A 
ATOM     20  C   UNL d   1     -38.486  13.812  16.384  0.00  0.00     0.000 A 
ATOM     21  C   UNL d   1     -38.957  14.492  16.465  0.00  0.00     0.000 A 
ATOM     22  C   UNL d   1     -38.020  13.712  15.711  0.00  0.00     0.000 C 
ATOM     23  C   UNL d   1     -39.425  14.596  17.137  0.00  0.00     0.001 A 
ENDBRANCH  16  17
ENDBRANCH  15  16
ENDBRANCH   2  15
TORSDOF 5
ENDMDL
MODEL 4
REMARK VINA RESULT:      -6.2      1.177      1.834
REMARK  5 active torsions:
REMARK  status: ('A' for Active; 'I' for Inactive)
REMARK    1  A    between atoms: N_2  and  S_1 
REMARK    2  A    between atoms: C_8  and  S_1 
REMARK    3  A    between atoms: S_7  and  C_3 
REMARK    4  A    between atoms: C_11  and  S_7 
REMARK    5  A    between atoms: C_12  and  C_11 
ROOT
ATOM      1  N   UNL d   1     -49.089  12.897  23.249  0.00  0.00    -0.208 N 
ATOM      2  C   UNL d   1     -48.351  12.514  23.310  0.00  0.00     0.189 A 
ATOM      3  N   UNL d   1     -48.482  11.743  23.588  0.00  0.00    -0.219 NA
ATOM      4  C   UNL d   1     -49.677  12.358  23.491  0.00  0.00     0.114 A 
ATOM      5  C   UNL d   1     -49.300  11.652  23.698  0.00  0.00     0.121 A 
ENDROOT
BRANCH   1   6
ATOM      6  S   UNL d   1     -49.210  13.677  22.993  0.00  0.00     0.273 S 
ATOM      7  O   UNL d   1     -48.694  13.915  23.584  0.00  0.00    -0.200 OA
ATOM      8  O   UNL d   1     -49.170  14.504  22.926  0.00  0.00    -0.200 OA
BRANCH   6   9
ATOM      9  C   UNL d   1     -49.735  13.457  22.390  0.00  0.00     0.104 A 
ATOM     10  C   UNL d   1     -50.539  13.422  22.549  0.00  0.00     0.013 A 
ATOM     11  C   UNL d   1     -51.059  13.203  21.949  0.00  0.00     0.001 A 
ATOM     12  C   UNL d   1     -50.772  13.020  21.199  0.00  0.00     0.000 A 
ATOM     13  C   UNL d   1     -49.966  13.056  21.046  0.00  0.00     0.001 A 
ATOM     14  C   UNL d   1     -49.445  13.277  21.651  0.00  0.00     0.013 A 
ENDBRANCH   6   9
ENDBRANCH   1   6
BRANCH   2  15
ATOM     15  S   UNL d   1     -47.610  12.848  23.123  0.00  0.00    -0.049 SA
BRANCH  15  16
ATOM     16  C   UNL d   1     -46.915  12.457  23.345  0.00  0.00     0.038 C 
BRANCH  16  17
ATOM     17  C   UNL d   1     -46.212  12.593  22.921  0.00  0.00     0.007 A 
ATOM     18  C   UNL d   1     -46.070  13.331  22.563  0.00  0.00     0.001 A 
ATOM     19  C   UNL d   1     -45.378  13.470  22.144  0.00  0.00     0.000 A 
ATOM     20  C   UNL d   1     -44.815  12.868  22.076  0.00  0.00     0.000 A 
ATOM     21  C   UNL d   1     -44.953  12.130  22.432  0.00  0.00     0.000 A 
ATOM     22  C   UNL d   1     -44.118  13.000  21.657  0.00  0.00     0.000 C 
ATOM     23  C   UNL d   1     -45.650  11.995  22.852  0.00  0.00     0.001 A 
ENDBRANCH  16  17
ENDBRANCH  15  16
ENDBRANCH   2  15
TORSDOF 5
ENDMDL
MODEL 5
REMARK VINA RESULT:      -5.3      8.317     10.410
REMARK  5 active torsions:
REMARK  status: ('A' for Active; 'I' for Inactive)
REMARK    1  A    between atoms: N_2  and  S_1 
REMARK    2  A    between atoms: C_8  and  S_1 
REMARK    3  A    between atoms: S_7  and  C_3 
REMARK    4  A    between atoms: C_11  and  S_7 
REMARK    5  A    between atoms: C_12  and  C_11 
ROOT
ATOM      1  N   UNL d   1     -39.292  15.541  19.312  0.00  0.00    -0.208 N 
ATOM      2  C   UNL d   1     -38.643  15.241  18.884  0.00  0.00     0.189 A 
ATOM      3  N   UNL d   1     -37.966  15.310  19.360  0.00  0.00    -0.219 NA
ATOM      4  C   UNL d   1     -39.013  15.796  20.055  0.00  0.00     0.114 A 
ATOM      5  C   UNL d   1     -38.199  15.652  20.080  0.00  0.00     0.121 A 
ENDROOT
BRANCH   1   6
ATOM      6  S   UNL d   1     -40.076  15.577  19.041  0.00  0.00     0.273 S 
ATOM      7  O   UNL d   1     -39.786  15.922  18.355  0.00  0.00    -0.200 OA
ATOM      8  O   UNL d   1     -40.745  15.717  18.569  0.00  0.00    -0.200 OA
BRANCH   6   9
ATOM      9  C   UNL d   1     -40.388  15.230  19.726  0.00  0.00     0.104 A 
ATOM     10  C   UNL d   1     -40.404  14.412  19.791  0.00  0.00     0.013 A 
ATOM     11  C   UNL d   1     -40.714  14.069  20.473  0.00  0.00     0.001 A 
ATOM     12  C   UNL d   1     -41.004  14.544  21.081  0.00  0.00     0.000 A 
ATOM     13  C   UNL d   1     -40.985  15.362  21.009  0.00  0.00     0.001 A 
ATOM     14  C   UNL d   1     -40.673  15.705  20.322  0.00  0.00     0.013 A 
ENDBRANCH   6   9
ENDBRANCH   1   6
BRANCH   2  15
ATOM     15  S   UNL d   1     -38.669  14.927  18.112  0.00  0.00    -0.049 SA
BRANCH  15  16
ATOM     16  C   UNL d   1     -37.968  14.694  17.739  0.00  0.00     0.038 C 
BRANCH  16  17
ATOM     17  C   UNL d   1     -37.992  14.404  16.959  0.00  0.00     0.007 A 
ATOM     18  C   UNL d   1     -37.940  13.587  16.811  0.00  0.00     0.001 A 
ATOM     19  C   UNL d   1     -37.963  13.295  16.044  0.00  0.00     0.000 A 
ATOM     20  C   UNL d   1     -38.038  13.821  15.411  0.00  0.00     0.000 A 
ATOM     21  C   UNL d   1     -38.090  14.638  15.555  0.00  0.00     0.000 A 
ATOM     22  C   UNL d   1     -38.062  13.537  14.637  0.00  0.00     0.000 C 
ATOM     23  C   UNL d   1     -38.067  14.926  16.327  0.00  0.00     0.001 A 
ENDBRANCH  16  17
ENDBRANCH  15  16
ENDBRANCH   2  15
TORSDOF 5
ENDMDL
