MODEL 1
REMARK VINA RESULT:      -7.7      0.000      0.000
REMARK  3 active torsions:
REMARK  status: ('A' for Active; 'I' for Inactive)
REMARK    1  A    between atoms: N_2  and  S_1 
REMARK    2  A    between atoms: C_5  and  S_1 
REMARK    3  A    between atoms: C_4  and  C_3 
ROOT
ATOM      1  N   UNL d   1     -47.812  11.991  23.154  0.00  0.00    -0.223 N 
ATOM      2  C   UNL d   1     -47.041  12.294  23.211  0.00  0.00     0.127 A 
ATOM      3  S   UNL d   1     -46.564  11.712  23.547  0.00  0.00    -0.065 SA
ATOM      4  C   UNL d   1     -47.808  11.222  23.455  0.00  0.00     0.099 A 
ATOM      5  C   UNL d   1     -47.039  11.048  23.698  0.00  0.00     0.057 A 
ENDROOT
BRANCH   1   6
ATOM      6  S   UNL d   1     -48.472  12.391  22.847  0.00  0.00     0.272 S 
ATOM      7  O   UNL d   1     -48.909  12.889  23.325  0.00  0.00    -0.200 OA
ATOM      8  O   UNL d   1     -48.679  12.279  22.057  0.00  0.00    -0.200 OA
BRANCH   6   9
ATOM      9  C   UNL d   1     -49.119  12.769  22.505  0.00  0.00     0.104 A 
ATOM     10  C   UNL d   1     -49.574  13.295  22.942  0.00  0.00     0.014 A 
ATOM     11  C   UNL d   1     -50.218  13.670  22.599  0.00  0.00     0.012 A 
ATOM     12  C   UNL d   1     -50.412  13.518  21.808  0.00  0.00     0.058 A 
ATOM     13  C   UNL d   1     -49.950  12.984  21.366  0.00  0.00     0.012 A 
ATOM     14 CL   UNL d   1     -51.056  13.892  21.461  0.00  0.00    -0.082 Cl
ATOM     15  C   UNL d   1     -49.305  12.612  21.717  0.00  0.00     0.014 A 
ENDBRANCH   6   9
ENDBRANCH   1   6
BRANCH   2  16
ATOM     16  C   UNL d   1     -46.797  13.041  22.975  0.00  0.00     0.123 A 
ATOM     17  O   UNL d   1     -46.896  13.742  23.400  0.00  0.00    -0.303 OA
ATOM     18  C   UNL d   1     -46.570  14.357  22.960  0.00  0.00     0.123 A 
ATOM     19  C   UNL d   1     -46.267  14.039  22.260  0.00  0.00     0.029 A 
ATOM     20  C   UNL d   1     -46.408  13.224  22.271  0.00  0.00     0.029 A 
ENDBRANCH   2  16
TORSDOF 3
ENDMDL
MODEL 2
REMARK VINA RESULT:      -7.7      1.947      3.696
REMARK  3 active torsions:
REMARK  status: ('A' for Active; 'I' for Inactive)
REMARK    1  A    between atoms: N_2  and  S_1 
REMARK    2  A    between atoms: C_5  and  S_1 
REMARK    3  A    between atoms: C_4  and  C_3 
ROOT
ATOM      1  N   UNL d   1     -49.087  14.580  22.936  0.00  0.00    -0.223 N 
ATOM      2  C   UNL d   1     -49.784  14.360  22.542  0.00  0.00     0.127 A 
ATOM      3  S   UNL d   1     -50.345  14.952  22.670  0.00  0.00    -0.065 SA
ATOM      4  C   UNL d   1     -49.220  15.307  23.306  0.00  0.00     0.099 A 
ATOM      5  C   UNL d   1     -49.995  15.537  23.143  0.00  0.00     0.057 A 
ENDROOT
BRANCH   1   6
ATOM      6  S   UNL d   1     -48.379  14.146  22.955  0.00  0.00     0.272 S 
ATOM      7  O   UNL d   1     -48.303  13.507  23.459  0.00  0.00    -0.200 OA
ATOM      8  O   UNL d   1     -47.759  14.367  22.461  0.00  0.00    -0.200 OA
BRANCH   6   9
ATOM      9  C   UNL d   1     -47.662  13.742  22.944  0.00  0.00     0.104 A 
ATOM     10  C   UNL d   1     -47.546  13.084  23.425  0.00  0.00     0.014 A 
ATOM     11  C   UNL d   1     -46.830  12.683  23.411  0.00  0.00     0.012 A 
ATOM     12  C   UNL d   1     -46.221  12.941  22.912  0.00  0.00     0.058 A 
ATOM     13  C   UNL d   1     -46.341  13.606  22.426  0.00  0.00     0.012 A 
ATOM     14 CL   UNL d   1     -45.503  12.541  22.897  0.00  0.00    -0.082 Cl
ATOM     15  C   UNL d   1     -47.061  14.004  22.445  0.00  0.00     0.014 A 
ENDBRANCH   6   9
ENDBRANCH   1   6
BRANCH   2  16
ATOM     16  C   UNL d   1     -49.896  13.677  22.104  0.00  0.00     0.123 A 
ATOM     17  O   UNL d   1     -49.667  13.559  21.319  0.00  0.00    -0.303 OA
ATOM     18  C   UNL d   1     -49.886  12.796  21.100  0.00  0.00     0.123 A 
ATOM     19  C   UNL d   1     -50.252  12.437  21.748  0.00  0.00     0.029 A 
ATOM     20  C   UNL d   1     -50.257  12.984  22.369  0.00  0.00     0.029 A 
ENDBRANCH   2  16
TORSDOF 3
ENDMDL
