MODEL 1
REMARK VINA RESULT:       1.5      0.000      0.000
REMARK  4 active torsions:
REMARK  status: ('A' for Active; 'I' for Inactive)
REMARK    1  A    between atoms: N_3  and  S_1 
REMARK    2  A    between atoms: C_13  and  S_1 
REMARK    3  A    between atoms: C_2  and  N_3 
REMARK    4  A    between atoms: N_8  and  C_4 
REMARK       I    between atoms: C_10  and  N_9 
ROOT
ATOM      1  C   UNL d   1      33.099  20.955 -22.848  0.00  0.00     0.110 A 
ATOM      2  C   UNL d   1      32.893  21.864 -22.334  0.00  0.00     0.083 A 
ATOM      3  C   UNL d   1      33.106  21.205 -23.630  0.00  0.00     0.020 A 
ATOM      4  C   UNL d   1      32.831  22.417 -22.944  0.00  0.00     0.018 A 
ATOM      5  C   UNL d   1      32.957  22.004 -23.647  0.00  0.00     0.003 A 
ATOM      6  C   UNL d   1      32.933  22.402 -24.370  0.00  0.00     0.000 A 
ATOM      7  C   UNL d   1      33.236  20.775 -24.331  0.00  0.00     0.002 A 
ATOM      8  C   UNL d   1      32.682  23.216 -22.961  0.00  0.00     0.002 A 
ATOM      9  C   UNL d   1      32.653  23.636 -23.687  0.00  0.00     0.000 A 
ATOM     10  C   UNL d   1      33.208  21.191 -25.055  0.00  0.00     0.000 A 
ATOM     11  C   UNL d   1      32.782  23.210 -24.388  0.00  0.00     0.000 A 
ATOM     12  C   UNL d   1      33.057  21.998 -25.074  0.00  0.00     0.000 A 
ENDROOT
BRANCH   1  13
ATOM     13  N   UNL d   1      33.231  20.176 -22.646  0.00  0.00    -0.157 NA
BRANCH  13  14
ATOM     14  S   UNL d   1      32.735  19.571 -22.908  0.00  0.00     0.285 S 
ATOM     15  O   UNL d   1      33.227  19.464 -23.563  0.00  0.00    -0.198 OA
ATOM     16  O   UNL d   1      32.251  19.682 -22.256  0.00  0.00    -0.198 OA
BRANCH  14  17
ATOM     17  C   UNL d   1      32.247  18.971 -23.173  0.00  0.00     0.105 A 
ATOM     18  C   UNL d   1      32.487  18.188 -23.103  0.00  0.00     0.013 A 
ATOM     19  C   UNL d   1      32.008  17.567 -23.364  0.00  0.00     0.001 A 
ATOM     20  C   UNL d   1      31.263  17.760 -23.707  0.00  0.00     0.000 A 
ATOM     21  C   UNL d   1      31.025  18.540 -23.776  0.00  0.00     0.001 A 
ATOM     22  C   UNL d   1      31.512  19.144 -23.512  0.00  0.00     0.013 A 
ENDBRANCH  14  17
ENDBRANCH  13  14
ENDBRANCH   1  13
BRANCH   2  23
ATOM     23  N   UNL d   1      32.794  22.103 -21.557  0.00  0.00    -0.300 N 
ATOM     24  C   UNL d   1      32.248  22.698 -21.382  0.00  0.00     0.100 A 
ATOM     25  C   UNL d   1      32.158  22.925 -20.625  0.00  0.00     0.102 A 
ATOM     26  N   UNL d   1      32.595  22.587 -19.981  0.00  0.00    -0.269 N 
ATOM     27  C   UNL d   1      33.135  21.999 -20.156  0.00  0.00     0.102 A 
ATOM     28  C   UNL d   1      32.505  22.819 -19.193  0.00  0.00     0.265 C 
ATOM     29  C   UNL d   1      33.239  21.745 -20.984  0.00  0.00     0.100 A 
ATOM     30  O   UNL d   1      31.973  23.411 -18.958  0.00  0.00    -0.267 OA
ATOM     31  C   UNL d   1      32.927  22.495 -18.565  0.00  0.00     0.066 C 
ENDBRANCH   2  23
TORSDOF 4
ENDMDL
