MODEL 1
REMARK VINA RESULT:       2.0      0.000      0.000
REMARK  2 active torsions:
REMARK  status: ('A' for Active; 'I' for Inactive)
REMARK    1  A    between atoms: N_10  and  C_3 
REMARK    2  A    between atoms: C_12  and  C_5 
ROOT
ATOM      1  N   UNL d   1      30.494  18.109 -24.383  0.00  0.00    -0.196 N 
ATOM      2  C   UNL d   1      30.023  17.426 -24.354  0.00  0.00     0.167 A 
ATOM      3  C   UNL d   1      31.308  18.036 -24.296  0.00  0.00     0.152 A 
ATOM      4  N   UNL d   1      29.340  18.892 -24.582  0.00  0.00    -0.163 NA
ATOM      5  C   UNL d   1      29.220  17.477 -24.437  0.00  0.00     0.055 A 
ATOM      6  N   UNL d   1      30.375  16.687 -24.238  0.00  0.00    -0.227 NA
ATOM      7  C   UNL d   1      31.658  17.307 -24.182  0.00  0.00     0.052 A 
ATOM      8  C   UNL d   1      28.871  18.214 -24.553  0.00  0.00     0.104 A 
ATOM      9  C   UNL d   1      31.189  16.629 -24.152  0.00  0.00     0.086 A 
ATOM     10  C   UNL d   1      32.480  17.256 -24.096  0.00  0.00     0.004 A 
ATOM     11  C   UNL d   1      28.072  18.277 -24.637  0.00  0.00     0.023 C 
ATOM     12  C   UNL d   1      31.538  15.892 -24.037  0.00  0.00     0.019 A 
ATOM     13  C   UNL d   1      32.831  16.506 -23.979  0.00  0.00     0.000 A 
ATOM     14  C   UNL d   1      32.362  15.827 -23.950  0.00  0.00     0.002 A 
ENDROOT
BRANCH   3  15
ATOM     15  N   UNL d   1      31.790  18.727 -24.326  0.00  0.00    -0.286 N 
ATOM     16  C   UNL d   1      31.985  19.128 -23.615  0.00  0.00     0.101 A 
ATOM     17  C   UNL d   1      32.472  19.825 -23.645  0.00  0.00     0.100 A 
ATOM     18  N   UNL d   1      32.756  20.110 -24.380  0.00  0.00    -0.299 N 
ATOM     19  C   UNL d   1      32.561  19.709 -25.095  0.00  0.00     0.100 A 
ATOM     20  C   UNL d   1      33.240  20.805 -24.401  0.00  0.00     0.100 C 
ATOM     21  C   UNL d   1      32.074  19.011 -25.074  0.00  0.00     0.101 A 
ENDBRANCH   3  15
BRANCH   5  22
ATOM     22  C   UNL d   1      28.751  16.798 -24.408  0.00  0.00     0.004 A 
ATOM     23  C   UNL d   1      28.624  16.370 -25.088  0.00  0.00     0.000 A 
ATOM     24  C   UNL d   1      28.155  15.692 -25.059  0.00  0.00     0.000 A 
ATOM     25  C   UNL d   1      27.821  15.453 -24.349  0.00  0.00     0.000 A 
ATOM     26  C   UNL d   1      27.955  15.891 -23.669  0.00  0.00     0.000 A 
ATOM     27  C   UNL d   1      28.423  16.569 -23.699  0.00  0.00     0.000 A 
ENDBRANCH   5  22
TORSDOF 2
ENDMDL
MODEL 2
REMARK VINA RESULT:       3.3      2.498      3.924
REMARK  2 active torsions:
REMARK  status: ('A' for Active; 'I' for Inactive)
REMARK    1  A    between atoms: N_10  and  C_3 
REMARK    2  A    between atoms: C_12  and  C_5 
ROOT
ATOM      1  N   UNL d   1      32.676  19.805 -23.281  0.00  0.00    -0.196 N 
ATOM      2  C   UNL d   1      32.675  18.991 -23.119  0.00  0.00     0.167 A 
ATOM      3  C   UNL d   1      32.817  20.334 -22.669  0.00  0.00     0.152 A 
ATOM      4  N   UNL d   1      32.397  19.532 -24.635  0.00  0.00    -0.163 NA
ATOM      5  C   UNL d   1      32.538  18.454 -23.708  0.00  0.00     0.055 A 
ATOM      6  N   UNL d   1      32.817  18.724 -22.349  0.00  0.00    -0.227 NA
ATOM      7  C   UNL d   1      32.957  20.073 -21.908  0.00  0.00     0.052 A 
ATOM      8  C   UNL d   1      32.397  18.722 -24.474  0.00  0.00     0.104 A 
ATOM      9  C   UNL d   1      32.957  19.264 -21.747  0.00  0.00     0.086 A 
ATOM     10  C   UNL d   1      33.098  20.623 -21.305  0.00  0.00     0.004 A 
ATOM     11  C   UNL d   1      32.258  18.197 -25.071  0.00  0.00     0.023 C 
ATOM     12  C   UNL d   1      33.098  18.996 -20.982  0.00  0.00     0.019 A 
ATOM     13  C   UNL d   1      33.241  20.347 -20.528  0.00  0.00     0.000 A 
ATOM     14  C   UNL d   1      33.241  19.538 -20.368  0.00  0.00     0.002 A 
ENDROOT
BRANCH   3  15
ATOM     15  N   UNL d   1      32.819  21.162 -22.829  0.00  0.00    -0.286 N 
ATOM     16  C   UNL d   1      33.240  21.456 -23.492  0.00  0.00     0.101 A 
ATOM     17  C   UNL d   1      33.241  22.291 -23.654  0.00  0.00     0.100 A 
ATOM     18  N   UNL d   1      32.823  22.818 -23.154  0.00  0.00    -0.299 N 
ATOM     19  C   UNL d   1      32.400  22.524 -22.488  0.00  0.00     0.100 A 
ATOM     20  C   UNL d   1      32.830  23.648 -23.322  0.00  0.00     0.100 C 
ATOM     21  C   UNL d   1      32.394  21.690 -22.318  0.00  0.00     0.101 A 
ENDBRANCH   3  15
BRANCH   5  22
ATOM     22  C   UNL d   1      32.537  17.645 -23.548  0.00  0.00     0.004 A 
ATOM     23  C   UNL d   1      31.834  17.271 -23.382  0.00  0.00     0.000 A 
ATOM     24  C   UNL d   1      31.834  16.461 -23.221  0.00  0.00     0.000 A 
ATOM     25  C   UNL d   1      32.537  16.040 -23.229  0.00  0.00     0.000 A 
ATOM     26  C   UNL d   1      33.240  16.426 -23.397  0.00  0.00     0.000 A 
ATOM     27  C   UNL d   1      33.241  17.235 -23.558  0.00  0.00     0.000 A 
ENDBRANCH   5  22
TORSDOF 2
ENDMDL
MODEL 3
REMARK VINA RESULT:       3.5      1.458      4.646
REMARK  2 active torsions:
REMARK  status: ('A' for Active; 'I' for Inactive)
REMARK    1  A    between atoms: N_10  and  C_3 
REMARK    2  A    between atoms: C_12  and  C_5 
ROOT
ATOM      1  N   UNL d   1      29.642  16.499 -23.596  0.00  0.00    -0.196 N 
ATOM      2  C   UNL d   1      30.363  16.851 -23.810  0.00  0.00     0.167 A 
ATOM      3  C   UNL d   1      28.939  16.863 -23.816  0.00  0.00     0.152 A 
ATOM      4  N   UNL d   1      30.345  15.455 -22.964  0.00  0.00    -0.163 NA
ATOM      5  C   UNL d   1      31.066  16.509 -23.603  0.00  0.00     0.055 A 
ATOM      6  N   UNL d   1      30.365  17.559 -24.239  0.00  0.00    -0.227 NA
ATOM      7  C   UNL d   1      28.939  17.561 -24.239  0.00  0.00     0.052 A 
ATOM      8  C   UNL d   1      31.061  15.804 -23.176  0.00  0.00     0.104 A 
ATOM      9  C   UNL d   1      29.655  17.911 -24.451  0.00  0.00     0.086 A 
ATOM     10  C   UNL d   1      28.219  17.912 -24.451  0.00  0.00     0.004 A 
ATOM     11  C   UNL d   1      31.755  15.453 -22.963  0.00  0.00     0.023 C 
ATOM     12  C   UNL d   1      29.659  18.615 -24.878  0.00  0.00     0.019 A 
ATOM     13  C   UNL d   1      28.227  18.627 -24.885  0.00  0.00     0.000 A 
ATOM     14  C   UNL d   1      28.944  18.977 -25.097  0.00  0.00     0.002 A 
ENDROOT
BRANCH   3  15
ATOM     15  N   UNL d   1      28.205  16.509 -23.601  0.00  0.00    -0.286 N 
ATOM     16  C   UNL d   1      27.776  16.809 -22.946  0.00  0.00     0.101 A 
ATOM     17  C   UNL d   1      27.035  16.451 -22.728  0.00  0.00     0.100 A 
ATOM     18  N   UNL d   1      26.735  15.803 -23.167  0.00  0.00    -0.299 N 
ATOM     19  C   UNL d   1      27.165  15.501 -23.826  0.00  0.00     0.100 A 
ATOM     20  C   UNL d   1      25.997  15.453 -22.944  0.00  0.00     0.100 C 
ATOM     21  C   UNL d   1      27.907  15.853 -24.049  0.00  0.00     0.101 A 
ENDBRANCH   3  15
BRANCH   5  22
ATOM     22  C   UNL d   1      31.782  16.858 -23.815  0.00  0.00     0.004 A 
ATOM     23  C   UNL d   1      32.158  16.619 -24.496  0.00  0.00     0.000 A 
ATOM     24  C   UNL d   1      32.874  16.969 -24.709  0.00  0.00     0.000 A 
ATOM     25  C   UNL d   1      33.204  17.552 -24.236  0.00  0.00     0.000 A 
ATOM     26  C   UNL d   1      32.818  17.786 -23.552  0.00  0.00     0.000 A 
ATOM     27  C   UNL d   1      32.101  17.437 -23.339  0.00  0.00     0.000 A 
ENDBRANCH   5  22
TORSDOF 2
ENDMDL
