MODEL 1
REMARK VINA RESULT:      26.2      0.000      0.000
REMARK  6 active torsions:
REMARK  status: ('A' for Active; 'I' for Inactive)
REMARK       I    between atoms: C_2  and  N_1 
REMARK    1  A    between atoms: C_4  and  N_1 
REMARK    2  A    between atoms: C_11  and  N_1 
REMARK    3  A    between atoms: C_3  and  C_2 
REMARK    4  A    between atoms: C_5  and  C_4 
REMARK       I    between atoms: N_10  and  C_5 
REMARK    5  A    between atoms: C_21  and  N_10 
REMARK    6  A    between atoms: C_13  and  C_11 
ROOT
ATOM      1  N   UNL d   1      46.376 -17.843  43.706  0.00  0.00    -0.281 N 
ATOM      2  C   UNL d   1      46.348 -18.234  42.979  0.00  0.00     0.263 C 
ATOM      3  O   UNL d   1      46.103 -17.848  42.309  0.00  0.00    -0.267 OA
ENDROOT
BRANCH   1   4
ATOM      4  C   UNL d   1      46.038 -16.501  43.997  0.00  0.00     0.181 A 
ATOM      5  C   UNL d   1      45.717 -15.933  44.264  0.00  0.00     0.007 A 
ATOM      6  C   UNL d   1      45.093 -16.047  44.766  0.00  0.00    -0.002 A 
ATOM      7  C   UNL d   1      44.846 -16.801  44.955  0.00  0.00    -0.001 A 
ATOM      8  C   UNL d   1      45.238 -17.447  44.629  0.00  0.00    -0.002 A 
ATOM      9  C   UNL d   1      45.863 -17.333  44.127  0.00  0.00     0.007 A 
BRANCH   4  10
ATOM     10  C   UNL d   1      45.847 -15.101  44.171  0.00  0.00     0.282 C 
ATOM     11  N   UNL d   1      46.172 -14.413  43.851  0.00  0.00    -0.210 NA
ATOM     12  O   UNL d   1      45.257 -15.064  44.742  0.00  0.00    -0.268 OA
BRANCH  11  13
ATOM     13  C   UNL d   1      45.902 -13.676  44.106  0.00  0.00     0.084 A 
ATOM     14  C   UNL d   1      46.237 -13.224  44.700  0.00  0.00     0.019 A 
ATOM     15  C   UNL d   1      45.803 -12.546  44.773  0.00  0.00     0.002 A 
ATOM     16  C   UNL d   1      45.192 -12.573  44.223  0.00  0.00     0.002 A 
ATOM     17  C   UNL d   1      45.261 -13.269  43.819  0.00  0.00     0.019 A 
ENDBRANCH  11  13
ENDBRANCH   4  10
ENDBRANCH   1   4
BRANCH   1  18
ATOM     18  C   UNL d   1      46.647 -18.313  44.380  0.00  0.00     0.104 C 
BRANCH  18  19
ATOM     19  C   UNL d   1      46.261 -19.079  44.556  0.00  0.00     0.117 A 
ATOM     20  O   UNL d   1      46.594 -19.689  44.883  0.00  0.00    -0.304 OA
ATOM     21  C   UNL d   1      45.998 -20.329  44.950  0.00  0.00     0.123 A 
ATOM     22  C   UNL d   1      45.303 -20.103  44.662  0.00  0.00     0.029 A 
ATOM     23  C   UNL d   1      45.430 -19.282  44.390  0.00  0.00     0.028 A 
ENDBRANCH  18  19
ENDBRANCH   1  18
BRANCH   2  24
ATOM     24  C   UNL d   1      46.468 -19.024  42.408  0.00  0.00     0.076 A 
ATOM     25  C   UNL d   1      46.380 -18.488  41.698  0.00  0.00     0.107 A 
ATOM     26  N   UNL d   1      46.425 -18.807  40.896  0.00  0.00    -0.206 NA
ATOM     27  C   UNL d   1      46.553 -19.634  40.788  0.00  0.00     0.279 A 
ATOM     28  C   UNL d   1      46.643 -20.179  41.466  0.00  0.00     0.063 A 
ATOM     29  O   UNL d   1      46.597 -19.947  39.975  0.00  0.00    -0.265 OA
ATOM     30  C   UNL d   1      46.599 -19.865  42.274  0.00  0.00     0.011 A 
ENDBRANCH   2  24
TORSDOF 6
ENDMDL
