MODEL 1
REMARK VINA RESULT:      34.1      0.000      0.000
REMARK  5 active torsions:
REMARK  status: ('A' for Active; 'I' for Inactive)
REMARK    1  A    between atoms: C_2  and  C_1 
REMARK    2  A    between atoms: N_5  and  C_2 
REMARK    3  A    between atoms: C_9  and  C_4 
REMARK    4  A    between atoms: C_21  and  N_10 
REMARK    5  A    between atoms: C_18  and  C_21 
ROOT
ATOM      1  N   UNL d   1      12.902  12.137  -5.809  0.00  0.00    -0.191 NA
ATOM      2  C   UNL d   1      13.273  12.196  -5.081  0.00  0.00     0.103 C 
ATOM      3  C   UNL d   1      13.643  12.251  -4.341  0.00  0.00     0.097 C 
ENDROOT
BRANCH   3   4
ATOM      4  C   UNL d   1      13.386  11.779  -3.722  0.00  0.00     0.091 C 
BRANCH   4   5
ATOM      5  N   UNL d   1      13.635  11.945  -2.952  0.00  0.00    -0.299 N 
ATOM      6  C   UNL d   1      14.437  12.073  -2.790  0.00  0.00     0.100 A 
ATOM      7  C   UNL d   1      14.689  12.238  -2.028  0.00  0.00     0.100 A 
ATOM      8  N   UNL d   1      14.135  12.276  -1.416  0.00  0.00    -0.291 N 
ATOM      9  C   UNL d   1      13.336  12.152  -1.563  0.00  0.00     0.100 A 
ATOM     10  C   UNL d   1      13.084  11.985  -2.336  0.00  0.00     0.100 A 
BRANCH   8  11
ATOM     11  C   UNL d   1      14.390  12.442  -0.649  0.00  0.00     0.143 C 
ATOM     12  S   UNL d   1      14.126  11.987  -0.014  0.00  0.00    -0.057 SA
BRANCH  11  13
ATOM     13  C   UNL d   1      14.917  13.073  -0.514  0.00  0.00     0.126 A 
ATOM     14  O   UNL d   1      14.779  13.866  -0.713  0.00  0.00    -0.305 OA
ATOM     15  C   UNL d   1      15.442  14.299  -0.483  0.00  0.00     0.100 A 
ATOM     16  C   UNL d   1      15.989  13.775  -0.142  0.00  0.00     0.027 A 
ATOM     17  C   UNL d   1      15.662  13.020  -0.164  0.00  0.00     0.029 A 
BRANCH  15  18
ATOM     18  C   UNL d   1      15.549  15.109  -0.572  0.00  0.00     0.024 A 
ATOM     19  C   UNL d   1      15.066  15.527  -1.093  0.00  0.00     0.013 A 
ATOM     20  C   UNL d   1      15.163  16.343  -1.192  0.00  0.00     0.058 A 
ATOM     21 CL   UNL d   1      14.679  16.765  -1.716  0.00  0.00    -0.082 Cl
ATOM     22  C   UNL d   1      15.755  16.740  -0.759  0.00  0.00     0.011 A 
ATOM     23  C   UNL d   1      16.235  16.314  -0.238  0.00  0.00     0.001 A 
ATOM     24  C   UNL d   1      16.133  15.502  -0.144  0.00  0.00     0.002 A 
ENDBRANCH  15  18
ENDBRANCH  11  13
ENDBRANCH   8  11
ENDBRANCH   4   5
ENDBRANCH   3   4
TORSDOF 5
ENDMDL
