MODEL 1
REMARK VINA RESULT:      50.7      0.000      0.000
REMARK  5 active torsions:
REMARK  status: ('A' for Active; 'I' for Inactive)
REMARK    1  A    between atoms: C_2  and  S_1 
REMARK    2  A    between atoms: N_4  and  S_1 
REMARK    3  A    between atoms: C_15  and  N_4 
REMARK    4  A    between atoms: N_7  and  C_6 
REMARK    5  A    between atoms: C_12  and  C_13 
ROOT
ATOM      1  C   UNL d   1      45.511 -14.866  44.034  0.00  0.00     0.021 A 
ATOM      2  C   UNL d   1      45.614 -13.453  43.849  0.00  0.00     0.094 A 
ATOM      3  C   UNL d   1      45.792 -14.221  43.604  0.00  0.00     0.021 A 
ATOM      4  C   UNL d   1      45.051 -14.744  44.710  0.00  0.00     0.002 A 
ATOM      5  C   UNL d   1      44.876 -13.978  44.952  0.00  0.00     0.002 A 
ATOM      6  C   UNL d   1      45.157 -13.332  44.521  0.00  0.00     0.020 A 
ENDROOT
BRANCH   1   7
ATOM      7  C   UNL d   1      45.689 -15.634  43.790  0.00  0.00     0.103 A 
ATOM      8  N   UNL d   1      45.674 -15.825  42.987  0.00  0.00    -0.147 NA
ATOM      9  N   UNL d   1      45.852 -16.594  42.742  0.00  0.00    -0.130 NA
ATOM     10  C   UNL d   1      46.044 -17.170  43.300  0.00  0.00     0.170 A 
ATOM     11  C   UNL d   1      46.058 -16.979  44.103  0.00  0.00     0.041 A 
ATOM     12  C   UNL d   1      45.880 -16.211  44.348  0.00  0.00     0.024 A 
BRANCH  10  13
ATOM     13  N   UNL d   1      46.220 -17.932  43.062  0.00  0.00    -0.284 N 
ATOM     14  C   UNL d   1      46.470 -18.493  43.613  0.00  0.00     0.108 A 
ATOM     15  C   UNL d   1      46.647 -19.255  43.375  0.00  0.00     0.142 A 
ATOM     16  O   UNL d   1      46.574 -19.462  42.579  0.00  0.00    -0.300 OA
ATOM     17  C   UNL d   1      46.324 -18.901  42.028  0.00  0.00     0.142 A 
ATOM     18  C   UNL d   1      46.147 -18.134  42.273  0.00  0.00     0.108 A 
ENDBRANCH  10  13
ENDBRANCH   1   7
BRANCH   2  19
ATOM     19  N   UNL d   1      45.895 -12.808  43.419  0.00  0.00    -0.158 NA
BRANCH  19  20
ATOM     20  S   UNL d   1      45.644 -12.686  42.646  0.00  0.00     0.285 S 
ATOM     21  O   UNL d   1      46.161 -13.276  42.383  0.00  0.00    -0.198 OA
ATOM     22  O   UNL d   1      45.124 -12.091  42.912  0.00  0.00    -0.198 OA
BRANCH  20  23
ATOM     23  C   UNL d   1      45.397 -12.569  41.865  0.00  0.00     0.106 A 
ATOM     24  C   UNL d   1      45.862 -12.812  41.239  0.00  0.00     0.025 A 
ATOM     25  C   UNL d   1      45.617 -12.697  40.462  0.00  0.00     0.069 A 
ATOM     26 CL   UNL d   1      46.087 -12.943  39.828  0.00  0.00    -0.082 Cl
ATOM     27  C   UNL d   1      44.893 -12.331  40.315  0.00  0.00     0.068 A 
ATOM     28  C   UNL d   1      44.421 -12.084  40.946  0.00  0.00     0.013 A 
ATOM     29 CL   UNL d   1      44.630 -12.206  39.532  0.00  0.00    -0.082 Cl
ATOM     30  C   UNL d   1      44.673 -12.203  41.718  0.00  0.00     0.014 A 
ENDBRANCH  20  23
ENDBRANCH  19  20
ENDBRANCH   2  19
TORSDOF 5
ENDMDL
