MODEL 1
REMARK VINA RESULT:      45.1      0.000      0.000
REMARK  2 active torsions:
REMARK  status: ('A' for Active; 'I' for Inactive)
REMARK    1  A    between atoms: N_9  and  C_3 
REMARK    2  A    between atoms: C_11  and  C_4 
ROOT
ATOM      1  N   UNL d   1      14.104  13.633  -2.579  0.00  0.00    -0.196 N 
ATOM      2  C   UNL d   1      14.470  13.790  -1.862  0.00  0.00     0.167 A 
ATOM      3  C   UNL d   1      13.878  12.863  -2.772  0.00  0.00     0.153 A 
ATOM      4  C   UNL d   1      14.628  14.593  -1.826  0.00  0.00     0.057 A 
ATOM      5  N   UNL d   1      14.034  14.340  -2.989  0.00  0.00    -0.161 NA
ATOM      6  N   UNL d   1      14.615  13.178  -1.327  0.00  0.00    -0.227 NA
ATOM      7  C   UNL d   1      14.023  12.248  -2.236  0.00  0.00     0.057 A 
ATOM      8  C   UNL d   1      14.360  14.932  -2.517  0.00  0.00     0.124 A 
ATOM      9  C   UNL d   1      14.389  12.405  -1.519  0.00  0.00     0.086 A 
ATOM     10  C   UNL d   1      14.532  11.780  -0.985  0.00  0.00     0.021 C 
ENDROOT
BRANCH   3  11
ATOM     11  N   UNL d   1      13.512  12.707  -3.488  0.00  0.00    -0.285 N 
ATOM     12  C   UNL d   1      13.505  11.937  -3.794  0.00  0.00     0.108 A 
ATOM     13  C   UNL d   1      13.137  11.780  -4.515  0.00  0.00     0.142 A 
ATOM     14  O   UNL d   1      12.773  12.392  -4.933  0.00  0.00    -0.300 OA
ATOM     15  C   UNL d   1      12.778  13.158  -4.632  0.00  0.00     0.142 A 
ATOM     16  C   UNL d   1      13.146  13.315  -3.911  0.00  0.00     0.108 A 
ENDBRANCH   3  11
BRANCH   4  17
ATOM     17  C   UNL d   1      14.982  15.062  -1.250  0.00  0.00     0.004 A 
ATOM     18  C   UNL d   1      15.367  14.713  -0.598  0.00  0.00     0.000 A 
ATOM     19  C   UNL d   1      15.718  15.188  -0.027  0.00  0.00     0.000 A 
ATOM     20  C   UNL d   1      15.694  16.015  -0.093  0.00  0.00     0.000 A 
ATOM     21  C   UNL d   1      15.313  16.360  -0.739  0.00  0.00     0.000 A 
ATOM     22  C   UNL d   1      14.957  15.887  -1.318  0.00  0.00     0.000 A 
ENDBRANCH   4  17
TORSDOF 2
ENDMDL
MODEL 2
REMARK VINA RESULT:      45.1      1.968      3.415
REMARK  2 active torsions:
REMARK  status: ('A' for Active; 'I' for Inactive)
REMARK    1  A    between atoms: N_9  and  C_3 
REMARK    2  A    between atoms: C_11  and  C_4 
ROOT
ATOM      1  N   UNL d   1      13.896  13.363  -2.975  0.00  0.00    -0.196 N 
ATOM      2  C   UNL d   1      13.632  13.626  -3.705  0.00  0.00     0.167 A 
ATOM      3  C   UNL d   1      13.792  12.574  -2.755  0.00  0.00     0.153 A 
ATOM      4  C   UNL d   1      13.810  14.424  -3.768  0.00  0.00     0.057 A 
ATOM      5  N   UNL d   1      14.239  13.997  -2.584  0.00  0.00    -0.161 NA
ATOM      6  N   UNL d   1      13.259  13.105  -4.226  0.00  0.00    -0.227 NA
ATOM      7  C   UNL d   1      13.419  12.050  -3.277  0.00  0.00     0.057 A 
ATOM      8  C   UNL d   1      14.182  14.652  -3.081  0.00  0.00     0.124 A 
ATOM      9  C   UNL d   1      13.154  12.314  -4.007  0.00  0.00     0.086 A 
ATOM     10  C   UNL d   1      12.779  11.779  -4.526  0.00  0.00     0.021 C 
ENDROOT
BRANCH   3  11
ATOM     11  N   UNL d   1      14.057  12.310  -2.025  0.00  0.00    -0.285 N 
ATOM     12  C   UNL d   1      14.869  12.238  -1.877  0.00  0.00     0.108 A 
ATOM     13  C   UNL d   1      15.134  11.973  -1.144  0.00  0.00     0.142 A 
ATOM     14  O   UNL d   1      14.590  11.779  -0.554  0.00  0.00    -0.300 OA
ATOM     15  C   UNL d   1      13.782  11.850  -0.698  0.00  0.00     0.142 A 
ATOM     16  C   UNL d   1      13.516  12.115  -1.432  0.00  0.00     0.108 A 
ENDBRANCH   3  11
BRANCH   4  17
ATOM     17  C   UNL d   1      13.679  14.974  -4.367  0.00  0.00     0.004 A 
ATOM     18  C   UNL d   1      12.917  15.080  -4.686  0.00  0.00     0.000 A 
ATOM     19  C   UNL d   1      12.795  15.631  -5.283  0.00  0.00     0.000 A 
ATOM     20  C   UNL d   1      13.427  16.086  -5.573  0.00  0.00     0.000 A 
ATOM     21  C   UNL d   1      14.182  15.980  -5.256  0.00  0.00     0.000 A 
ATOM     22  C   UNL d   1      14.311  15.426  -4.654  0.00  0.00     0.000 A 
ENDBRANCH   4  17
TORSDOF 2
ENDMDL
MODEL 3
REMARK VINA RESULT:      45.9      1.586      2.744
REMARK  2 active torsions:
REMARK  status: ('A' for Active; 'I' for Inactive)
REMARK    1  A    between atoms: N_9  and  C_3 
REMARK    2  A    between atoms: C_11  and  C_4 
ROOT
ATOM      1  N   UNL d   1      13.867  13.817  -3.179  0.00  0.00    -0.196 N 
ATOM      2  C   UNL d   1      13.876  13.116  -2.753  0.00  0.00     0.167 A 
ATOM      3  C   UNL d   1      13.510  13.847  -3.923  0.00  0.00     0.153 A 
ATOM      4  C   UNL d   1      14.264  13.253  -2.045  0.00  0.00     0.057 A 
ATOM      5  N   UNL d   1      14.250  14.390  -2.735  0.00  0.00    -0.161 NA
ATOM      6  N   UNL d   1      13.528  12.436  -3.065  0.00  0.00    -0.227 NA
ATOM      7  C   UNL d   1      13.160  13.165  -4.236  0.00  0.00     0.057 A 
ATOM      8  C   UNL d   1      14.494  14.035  -2.032  0.00  0.00     0.124 A 
ATOM      9  C   UNL d   1      13.169  12.465  -3.811  0.00  0.00     0.086 A 
ATOM     10  C   UNL d   1      12.814  11.782  -4.134  0.00  0.00     0.021 C 
ENDROOT
BRANCH   3  11
ATOM     11  N   UNL d   1      13.501  14.548  -4.348  0.00  0.00    -0.285 N 
ATOM     12  C   UNL d   1      12.783  14.933  -4.503  0.00  0.00     0.108 A 
ATOM     13  C   UNL d   1      12.774  15.637  -4.931  0.00  0.00     0.142 A 
ATOM     14  O   UNL d   1      13.483  15.961  -5.207  0.00  0.00    -0.300 OA
ATOM     15  C   UNL d   1      14.197  15.580  -5.054  0.00  0.00     0.142 A 
ATOM     16  C   UNL d   1      14.206  14.876  -4.626  0.00  0.00     0.108 A 
ENDBRANCH   3  11
BRANCH   4  17
ATOM     17  C   UNL d   1      14.439  12.764  -1.406  0.00  0.00     0.004 A 
ATOM     18  C   UNL d   1      15.159  12.347  -1.376  0.00  0.00     0.000 A 
ATOM     19  C   UNL d   1      15.326  11.861  -0.735  0.00  0.00     0.000 A 
ATOM     20  C   UNL d   1      14.781  11.780  -0.114  0.00  0.00     0.000 A 
ATOM     21  C   UNL d   1      14.067  12.194  -0.144  0.00  0.00     0.000 A 
ATOM     22  C   UNL d   1      13.893  12.686  -0.788  0.00  0.00     0.000 A 
ENDBRANCH   4  17
TORSDOF 2
ENDMDL
