MODEL 1
REMARK VINA RESULT:      69.3      0.000      0.000
REMARK  4 active torsions:
REMARK  status: ('A' for Active; 'I' for Inactive)
REMARK    1  A    between atoms: C_11  and  C_4 
REMARK    2  A    between atoms: N_10  and  C_5 
REMARK    3  A    between atoms: C_13  and  N_10 
REMARK    4  A    between atoms: C_14  and  C_13 
ROOT
ATOM      1  N   UNL d   1      58.663  49.607  51.911  0.00  0.00    -0.195 N 
ATOM      2  C   UNL d   1      59.045  49.526  51.184  0.00  0.00     0.167 A 
ATOM      3  N   UNL d   1      59.238  49.678  52.489  0.00  0.00    -0.163 NA
ATOM      4  C   UNL d   1      59.855  49.546  51.315  0.00  0.00     0.055 A 
ATOM      5  C   UNL d   1      57.842  49.606  51.947  0.00  0.00     0.167 A 
ATOM      6  C   UNL d   1      59.977  49.640  52.119  0.00  0.00     0.104 A 
ATOM      7  N   UNL d   1      58.605  49.444  50.494  0.00  0.00    -0.227 NA
ATOM      8  C   UNL d   1      57.394  49.523  51.254  0.00  0.00     0.058 A 
ATOM      9  C   UNL d   1      57.776  49.442  50.527  0.00  0.00     0.086 A 
ATOM     10  C   UNL d   1      60.710  49.688  52.495  0.00  0.00     0.023 C 
ATOM     11  C   UNL d   1      57.337  49.358  49.825  0.00  0.00     0.021 C 
ENDROOT
BRANCH   5  12
ATOM     12  N   UNL d   1      57.460  49.687  52.674  0.00  0.00    -0.224 NA
BRANCH  12  13
ATOM     13  C   UNL d   1      57.840  49.458  53.367  0.00  0.00     0.120 C 
BRANCH  13  14
ATOM     14  C   UNL d   1      57.450  49.518  54.091  0.00  0.00     0.101 A 
ATOM     15  N   UNL d   1      56.622  49.469  54.119  0.00  0.00    -0.242 NA
ATOM     16  C   UNL d   1      56.230  49.530  54.847  0.00  0.00     0.099 A 
ATOM     17  C   UNL d   1      56.668  49.639  55.543  0.00  0.00     0.021 A 
ATOM     18  C   UNL d   1      57.488  49.687  55.511  0.00  0.00     0.003 A 
ATOM     19  C   UNL d   1      57.880  49.627  54.784  0.00  0.00     0.021 A 
ENDBRANCH  13  14
ENDBRANCH  12  13
ENDBRANCH   5  12
BRANCH   4  20
ATOM     20  C   UNL d   1      60.503  49.492  50.806  0.00  0.00     0.004 A 
ATOM     21  C   UNL d   1      60.399  49.608  49.991  0.00  0.00     0.000 A 
ATOM     22  C   UNL d   1      61.048  49.554  49.482  0.00  0.00     0.000 A 
ATOM     23  C   UNL d   1      61.797  49.384  49.782  0.00  0.00     0.000 A 
ATOM     24  C   UNL d   1      61.899  49.268  50.599  0.00  0.00     0.000 A 
ATOM     25  C   UNL d   1      61.253  49.322  51.105  0.00  0.00     0.000 A 
ENDBRANCH   4  20
TORSDOF 4
ENDMDL
