MODEL 1
REMARK VINA RESULT:      17.4      0.000      0.000
REMARK  3 active torsions:
REMARK  status: ('A' for Active; 'I' for Inactive)
REMARK    1  A    between atoms: S_4  and  C_1 
REMARK    2  A    between atoms: N_3  and  C_2 
REMARK    3  A    between atoms: C_5  and  S_4 
ROOT
ATOM      1  C   UNL d   1      44.987 -13.550  44.371  0.00  0.00     0.139 A 
ATOM      2  C   UNL d   1      45.247 -12.980  43.833  0.00  0.00     0.188 A 
ATOM      3  N   UNL d   1      44.202 -13.838  44.280  0.00  0.00    -0.216 NA
ATOM      4  C   UNL d   1      44.806 -12.692  43.244  0.00  0.00     0.209 A 
ATOM      5  N   UNL d   1      44.005 -12.963  43.123  0.00  0.00    -0.202 NA
ATOM      6  C   UNL d   1      43.719 -13.552  43.669  0.00  0.00     0.201 A 
ATOM      7  N   UNL d   1      45.016 -12.113  42.667  0.00  0.00    -0.125 N 
ENDROOT
BRANCH   1   8
ATOM      8  S   UNL d   1      45.417 -13.832  44.948  0.00  0.00    -0.047 SA
BRANCH   8   9
ATOM      9  C   UNL d   1      45.366 -14.775  44.933  0.00  0.00     0.115 A 
ATOM     10  N   UNL d   1      44.584 -15.091  44.955  0.00  0.00    -0.217 NA
ATOM     11  C   UNL d   1      44.487 -15.923  44.944  0.00  0.00     0.200 A 
ATOM     12  N   UNL d   1      45.135 -16.420  44.913  0.00  0.00    -0.224 NA
ATOM     13  C   UNL d   1      45.919 -16.096  44.892  0.00  0.00     0.085 A 
ATOM     14  C   UNL d   1      46.027 -15.285  44.902  0.00  0.00     0.045 A 
ATOM     15  C   UNL d   1      46.460 -16.535  44.866  0.00  0.00     0.021 C 
ENDBRANCH   8   9
ENDBRANCH   1   8
BRANCH   2  16
ATOM     16  N   UNL d   1      46.034 -12.693  43.928  0.00  0.00    -0.108 N 
ATOM     17  O   UNL d   1      46.646 -12.804  43.392  0.00  0.00    -0.532 OA
ATOM     18  O   UNL d   1      46.272 -12.254  44.599  0.00  0.00    -0.532 OA
ENDBRANCH   2  16
TORSDOF 3
ENDMDL
MODEL 2
REMARK VINA RESULT:      18.8      3.156      5.039
REMARK  3 active torsions:
REMARK  status: ('A' for Active; 'I' for Inactive)
REMARK    1  A    between atoms: S_4  and  C_1 
REMARK    2  A    between atoms: N_3  and  C_2 
REMARK    3  A    between atoms: C_5  and  S_4 
ROOT
ATOM      1  C   UNL d   1      46.248 -18.120  43.656  0.00  0.00     0.139 A 
ATOM      2  C   UNL d   1      46.295 -18.880  43.338  0.00  0.00     0.188 A 
ATOM      3  N   UNL d   1      46.407 -18.034  44.478  0.00  0.00    -0.216 NA
ATOM      4  C   UNL d   1      46.479 -19.525  43.755  0.00  0.00     0.209 A 
ATOM      5  N   UNL d   1      46.646 -19.474  44.591  0.00  0.00    -0.202 NA
ATOM      6  C   UNL d   1      46.602 -18.696  44.937  0.00  0.00     0.201 A 
ATOM      7  N   UNL d   1      46.542 -20.324  43.486  0.00  0.00    -0.125 N 
ENDROOT
BRANCH   1   8
ATOM      8  S   UNL d   1      46.068 -17.488  43.249  0.00  0.00    -0.047 SA
BRANCH   8   9
ATOM      9  C   UNL d   1      45.810 -16.803  43.846  0.00  0.00     0.115 A 
ATOM     10  N   UNL d   1      45.167 -16.998  44.356  0.00  0.00    -0.217 NA
ATOM     11  C   UNL d   1      44.900 -16.423  44.904  0.00  0.00     0.200 A 
ATOM     12  N   UNL d   1      45.256 -15.688  44.945  0.00  0.00    -0.224 NA
ATOM     13  C   UNL d   1      45.902 -15.498  44.430  0.00  0.00     0.085 A 
ATOM     14  C   UNL d   1      46.171 -16.052  43.890  0.00  0.00     0.045 A 
ATOM     15  C   UNL d   1      46.193 -14.867  44.479  0.00  0.00     0.021 C 
ENDBRANCH   8   9
ENDBRANCH   1   8
BRANCH   2  16
ATOM     16  N   UNL d   1      46.135 -18.963  42.514  0.00  0.00    -0.108 N 
ATOM     17  O   UNL d   1      46.640 -18.735  41.908  0.00  0.00    -0.532 OA
ATOM     18  O   UNL d   1      45.422 -19.295  42.229  0.00  0.00    -0.532 OA
ENDBRANCH   2  16
TORSDOF 3
ENDMDL
MODEL 3
REMARK VINA RESULT:      19.3      1.390      1.884
REMARK  3 active torsions:
REMARK  status: ('A' for Active; 'I' for Inactive)
REMARK    1  A    between atoms: S_4  and  C_1 
REMARK    2  A    between atoms: N_3  and  C_2 
REMARK    3  A    between atoms: C_5  and  S_4 
ROOT
ATOM      1  C   UNL d   1      45.351 -14.195  44.560  0.00  0.00     0.139 A 
ATOM      2  C   UNL d   1      45.178 -13.484  44.179  0.00  0.00     0.188 A 
ATOM      3  N   UNL d   1      46.093 -14.252  44.955  0.00  0.00    -0.216 NA
ATOM      4  C   UNL d   1      45.662 -12.860  44.162  0.00  0.00     0.209 A 
ATOM      5  N   UNL d   1      46.422 -12.884  44.552  0.00  0.00    -0.202 NA
ATOM      6  C   UNL d   1      46.618 -13.611  44.952  0.00  0.00     0.201 A 
ATOM      7  N   UNL d   1      45.541 -12.111  43.791  0.00  0.00    -0.125 N 
ENDROOT
BRANCH   1   8
ATOM      8  S   UNL d   1      44.879 -14.806  44.577  0.00  0.00    -0.047 SA
BRANCH   8   9
ATOM      9  C   UNL d   1      45.378 -15.584  44.380  0.00  0.00     0.115 A 
ATOM     10  N   UNL d   1      45.890 -15.520  43.713  0.00  0.00    -0.217 NA
ATOM     11  C   UNL d   1      46.354 -16.184  43.498  0.00  0.00     0.200 A 
ATOM     12  N   UNL d   1      46.312 -16.879  43.925  0.00  0.00    -0.224 NA
ATOM     13  C   UNL d   1      45.795 -16.937  44.595  0.00  0.00     0.085 A 
ATOM     14  C   UNL d   1      45.337 -16.296  44.815  0.00  0.00     0.045 A 
ATOM     15  C   UNL d   1      45.773 -17.539  44.947  0.00  0.00     0.021 C 
ENDBRANCH   8   9
ENDBRANCH   1   8
BRANCH   2  16
ATOM     16  N   UNL d   1      44.435 -13.430  43.785  0.00  0.00    -0.108 N 
ATOM     17  O   UNL d   1      43.716 -13.681  44.092  0.00  0.00    -0.532 OA
ATOM     18  O   UNL d   1      44.359 -13.106  43.017  0.00  0.00    -0.532 OA
ENDBRANCH   2  16
TORSDOF 3
ENDMDL
