MODEL 1
REMARK VINA RESULT:      -5.3      0.000      0.000
REMARK  3 active torsions:
REMARK  status: ('A' for Active; 'I' for Inactive)
REMARK    1  A    between atoms: C_6  and  N_1 
REMARK    2  A    between atoms: C_11  and  C_6 
REMARK    3  A    between atoms: C_9  and  C_11 
ROOT
ATOM      1  N   UNL d   1      58.192   0.637  30.767  0.00  0.00    -0.240 N 
ATOM      2  C   UNL d   1      58.115   0.626  29.951  0.00  0.00     0.267 A 
ATOM      3  C   UNL d   1      58.997   0.660  30.940  0.00  0.00     0.267 A 
ATOM      4  C   UNL d   1      58.866   0.642  29.618  0.00  0.00     0.061 A 
ATOM      5  C   UNL d   1      59.415   0.663  30.234  0.00  0.00     0.061 A 
ATOM      6  O   UNL d   1      57.367   0.602  29.543  0.00  0.00    -0.267 OA
ATOM      7  O   UNL d   1      59.304   0.676  31.715  0.00  0.00    -0.267 OA
ATOM      8  C   UNL d   1      60.198   0.682  30.066  0.00  0.00     0.005 A 
ATOM      9  C   UNL d   1      59.109   0.641  28.845  0.00  0.00     0.005 A 
ATOM     10  C   UNL d   1      59.926   0.660  28.673  0.00  0.00     0.000 A 
ATOM     11  C   UNL d   1      60.475   0.681  29.289  0.00  0.00     0.000 A 
ENDROOT
BRANCH   1  12
ATOM     12  C   UNL d   1      57.576   0.627  31.317  0.00  0.00     0.086 C 
BRANCH  12  13
ATOM     13  C   UNL d   1      57.142  -0.068  31.449  0.00  0.00     0.019 C 
BRANCH  13  14
ATOM     14  C   UNL d   1      56.602  -0.090  32.071  0.00  0.00     0.002 A 
ATOM     15  C   UNL d   1      56.244   0.586  32.331  0.00  0.00     0.000 A 
ATOM     16  C   UNL d   1      55.695   0.561  32.963  0.00  0.00     0.000 A 
ATOM     17  C   UNL d   1      55.515  -0.164  33.327  0.00  0.00     0.000 A 
ATOM     18  C   UNL d   1      55.876  -0.837  33.062  0.00  0.00     0.000 A 
ATOM     19  C   UNL d   1      56.424  -0.817  32.433  0.00  0.00     0.000 A 
ENDBRANCH  13  14
ENDBRANCH  12  13
ENDBRANCH   1  12
TORSDOF 3
ENDMDL
MODEL 2
REMARK VINA RESULT:      -4.6      1.378      1.609
REMARK  3 active torsions:
REMARK  status: ('A' for Active; 'I' for Inactive)
REMARK    1  A    between atoms: C_6  and  N_1 
REMARK    2  A    between atoms: C_11  and  C_6 
REMARK    3  A    between atoms: C_9  and  C_11 
ROOT
ATOM      1  N   UNL d   1      58.041  -0.659  30.255  0.00  0.00    -0.240 N 
ATOM      2  C   UNL d   1      58.624  -0.113  30.068  0.00  0.00     0.267 A 
ATOM      3  C   UNL d   1      58.215  -1.355  29.851  0.00  0.00     0.267 A 
ATOM      4  C   UNL d   1      59.157  -0.467  29.552  0.00  0.00     0.061 A 
ATOM      5  C   UNL d   1      58.902  -1.240  29.417  0.00  0.00     0.061 A 
ATOM      6  O   UNL d   1      58.648   0.682  30.373  0.00  0.00    -0.267 OA
ATOM      7  O   UNL d   1      57.749  -2.045  29.897  0.00  0.00    -0.267 OA
ATOM      8  C   UNL d   1      59.323  -1.717  28.930  0.00  0.00     0.005 A 
ATOM      9  C   UNL d   1      59.828  -0.183  29.198  0.00  0.00     0.005 A 
ATOM     10  C   UNL d   1      60.264  -0.682  28.690  0.00  0.00     0.000 A 
ATOM     11  C   UNL d   1      60.010  -1.455  28.555  0.00  0.00     0.000 A 
ENDROOT
BRANCH   1  12
ATOM     12  C   UNL d   1      57.397  -0.534  30.755  0.00  0.00     0.086 C 
BRANCH  12  13
ATOM     13  C   UNL d   1      57.499  -0.530  31.579  0.00  0.00     0.019 C 
BRANCH  13  14
ATOM     14  C   UNL d   1      56.836  -0.460  32.064  0.00  0.00     0.002 A 
ATOM     15  C   UNL d   1      56.498   0.260  32.200  0.00  0.00     0.000 A 
ATOM     16  C   UNL d   1      55.825   0.328  32.693  0.00  0.00     0.000 A 
ATOM     17  C   UNL d   1      55.501  -0.350  33.048  0.00  0.00     0.000 A 
ATOM     18  C   UNL d   1      55.844  -1.068  32.908  0.00  0.00     0.000 A 
ATOM     19  C   UNL d   1      56.515  -1.141  32.417  0.00  0.00     0.000 A 
ENDBRANCH  13  14
ENDBRANCH  12  13
ENDBRANCH   1  12
TORSDOF 3
ENDMDL
MODEL 3
REMARK VINA RESULT:      -4.6      1.265      4.266
REMARK  3 active torsions:
REMARK  status: ('A' for Active; 'I' for Inactive)
REMARK    1  A    between atoms: C_6  and  N_1 
REMARK    2  A    between atoms: C_11  and  C_6 
REMARK    3  A    between atoms: C_9  and  C_11 
ROOT
ATOM      1  N   UNL d   1      57.302  -0.475  31.802  0.00  0.00    -0.240 N 
ATOM      2  C   UNL d   1      56.617  -0.895  31.969  0.00  0.00     0.267 A 
ATOM      3  C   UNL d   1      57.363   0.130  32.357  0.00  0.00     0.267 A 
ATOM      4  C   UNL d   1      56.255  -0.553  32.623  0.00  0.00     0.061 A 
ATOM      5  C   UNL d   1      56.720   0.084  32.864  0.00  0.00     0.061 A 
ATOM      6  O   UNL d   1      56.350  -1.569  31.521  0.00  0.00    -0.267 OA
ATOM      7  O   UNL d   1      57.989   0.681  32.373  0.00  0.00    -0.267 OA
ATOM      8  C   UNL d   1      56.495   0.521  33.497  0.00  0.00     0.005 A 
ATOM      9  C   UNL d   1      55.573  -0.744  33.017  0.00  0.00     0.005 A 
ATOM     10  C   UNL d   1      55.341  -0.287  33.676  0.00  0.00     0.000 A 
ATOM     11  C   UNL d   1      55.806   0.351  33.918  0.00  0.00     0.000 A 
ENDROOT
BRANCH   1  12
ATOM     12  C   UNL d   1      57.833  -0.630  31.190  0.00  0.00     0.086 C 
BRANCH  12  13
ATOM     13  C   UNL d   1      57.741  -0.265  30.450  0.00  0.00     0.019 C 
BRANCH  13  14
ATOM     14  C   UNL d   1      58.322  -0.372  29.875  0.00  0.00     0.002 A 
ATOM     15  C   UNL d   1      58.426  -1.092  29.523  0.00  0.00     0.000 A 
ATOM     16  C   UNL d   1      59.017  -1.198  28.939  0.00  0.00     0.000 A 
ATOM     17  C   UNL d   1      59.501  -0.559  28.719  0.00  0.00     0.000 A 
ATOM     18  C   UNL d   1      59.392   0.157  29.075  0.00  0.00     0.000 A 
ATOM     19  C   UNL d   1      58.804   0.269  29.658  0.00  0.00     0.000 A 
ENDBRANCH  13  14
ENDBRANCH  12  13
ENDBRANCH   1  12
TORSDOF 3
ENDMDL
MODEL 4
REMARK VINA RESULT:      -4.6      1.224      4.358
REMARK  3 active torsions:
REMARK  status: ('A' for Active; 'I' for Inactive)
REMARK    1  A    between atoms: C_6  and  N_1 
REMARK    2  A    between atoms: C_11  and  C_6 
REMARK    3  A    between atoms: C_9  and  C_11 
ROOT
ATOM      1  N   UNL d   1      57.270  -0.446  31.879  0.00  0.00    -0.240 N 
ATOM      2  C   UNL d   1      57.288   0.108  32.484  0.00  0.00     0.267 A 
ATOM      3  C   UNL d   1      56.585  -0.894  31.974  0.00  0.00     0.267 A 
ATOM      4  C   UNL d   1      56.620   0.004  32.952  0.00  0.00     0.061 A 
ATOM      5  C   UNL d   1      56.183  -0.619  32.634  0.00  0.00     0.061 A 
ATOM      6  O   UNL d   1      57.909   0.682  32.585  0.00  0.00    -0.267 OA
ATOM      7  O   UNL d   1      56.366  -1.518  31.465  0.00  0.00    -0.267 OA
ATOM      8  C   UNL d   1      55.498  -0.841  32.984  0.00  0.00     0.005 A 
ATOM      9  C   UNL d   1      56.365   0.396  33.614  0.00  0.00     0.005 A 
ATOM     10  C   UNL d   1      55.651   0.162  33.977  0.00  0.00     0.000 A 
ATOM     11  C   UNL d   1      55.213  -0.462  33.659  0.00  0.00     0.000 A 
ENDROOT
BRANCH   1  12
ATOM     12  C   UNL d   1      57.833  -0.538  31.283  0.00  0.00     0.086 C 
BRANCH  12  13
ATOM     13  C   UNL d   1      57.727  -0.176  30.544  0.00  0.00     0.019 C 
BRANCH  13  14
ATOM     14  C   UNL d   1      58.330  -0.224  29.984  0.00  0.00     0.002 A 
ATOM     15  C   UNL d   1      58.780   0.422  29.806  0.00  0.00     0.000 A 
ATOM     16  C   UNL d   1      59.392   0.372  29.237  0.00  0.00     0.000 A 
ATOM     17  C   UNL d   1      59.539  -0.350  28.850  0.00  0.00     0.000 A 
ATOM     18  C   UNL d   1      59.085  -0.993  29.032  0.00  0.00     0.000 A 
ATOM     19  C   UNL d   1      58.474  -0.947  29.599  0.00  0.00     0.000 A 
ENDBRANCH  13  14
ENDBRANCH  12  13
ENDBRANCH   1  12
TORSDOF 3
ENDMDL
MODEL 5
REMARK VINA RESULT:      -3.7      1.628      4.487
REMARK  3 active torsions:
REMARK  status: ('A' for Active; 'I' for Inactive)
REMARK    1  A    between atoms: C_6  and  N_1 
REMARK    2  A    between atoms: C_11  and  C_6 
REMARK    3  A    between atoms: C_9  and  C_11 
ROOT
ATOM      1  N   UNL d   1      56.570   0.620  32.858  0.00  0.00    -0.240 N 
ATOM      2  C   UNL d   1      55.752   0.627  32.927  0.00  0.00     0.267 A 
ATOM      3  C   UNL d   1      56.882   0.635  33.620  0.00  0.00     0.267 A 
ATOM      4  C   UNL d   1      55.558   0.646  33.725  0.00  0.00     0.061 A 
ATOM      5  C   UNL d   1      56.261   0.651  34.156  0.00  0.00     0.061 A 
ATOM      6  O   UNL d   1      55.218   0.616  32.263  0.00  0.00    -0.267 OA
ATOM      7  O   UNL d   1      57.700   0.633  33.785  0.00  0.00    -0.267 OA
ATOM      8  C   UNL d   1      56.235   0.668  34.956  0.00  0.00     0.005 A 
ATOM      9  C   UNL d   1      54.839   0.659  34.100  0.00  0.00     0.005 A 
ATOM     10  C   UNL d   1      54.815   0.677  34.935  0.00  0.00     0.000 A 
ATOM     11  C   UNL d   1      55.519   0.682  35.366  0.00  0.00     0.000 A 
ENDROOT
BRANCH   1  12
ATOM     12  C   UNL d   1      57.001   0.602  32.155  0.00  0.00     0.086 C 
BRANCH  12  13
ATOM     13  C   UNL d   1      57.076  -0.104  31.725  0.00  0.00     0.019 C 
BRANCH  13  14
ATOM     14  C   UNL d   1      57.553  -0.115  31.053  0.00  0.00     0.002 A 
ATOM     15  C   UNL d   1      57.846   0.571  30.743  0.00  0.00     0.000 A 
ATOM     16  C   UNL d   1      58.330   0.557  30.060  0.00  0.00     0.000 A 
ATOM     17  C   UNL d   1      58.512  -0.168  29.697  0.00  0.00     0.000 A 
ATOM     18  C   UNL d   1      58.216  -0.851  30.011  0.00  0.00     0.000 A 
ATOM     19  C   UNL d   1      57.733  -0.842  30.692  0.00  0.00     0.000 A 
ENDBRANCH  13  14
ENDBRANCH  12  13
ENDBRANCH   1  12
TORSDOF 3
ENDMDL
MODEL 6
REMARK VINA RESULT:      -3.1      0.619      1.341
REMARK  3 active torsions:
REMARK  status: ('A' for Active; 'I' for Inactive)
REMARK    1  A    between atoms: C_6  and  N_1 
REMARK    2  A    between atoms: C_11  and  C_6 
REMARK    3  A    between atoms: C_9  and  C_11 
ROOT
ATOM      1  N   UNL d   1      58.242  -0.020  30.346  0.00  0.00    -0.240 N 
ATOM      2  C   UNL d   1      58.939   0.314  30.622  0.00  0.00     0.267 A 
ATOM      3  C   UNL d   1      58.335  -0.153  29.538  0.00  0.00     0.267 A 
ATOM      4  C   UNL d   1      59.460   0.387  29.991  0.00  0.00     0.061 A 
ATOM      5  C   UNL d   1      59.085   0.097  29.317  0.00  0.00     0.061 A 
ATOM      6  O   UNL d   1      59.071   0.537  31.433  0.00  0.00    -0.267 OA
ATOM      7  O   UNL d   1      57.744  -0.489  29.054  0.00  0.00    -0.267 OA
ATOM      8  C   UNL d   1      59.471   0.101  28.615  0.00  0.00     0.005 A 
ATOM      9  C   UNL d   1      60.216   0.678  29.954  0.00  0.00     0.005 A 
ATOM     10  C   UNL d   1      60.616   0.682  29.221  0.00  0.00     0.000 A 
ATOM     11  C   UNL d   1      60.240   0.391  28.546  0.00  0.00     0.000 A 
ENDROOT
BRANCH   1  12
ATOM     12  C   UNL d   1      57.571  -0.191  30.793  0.00  0.00     0.086 C 
BRANCH  12  13
ATOM     13  C   UNL d   1      57.597  -0.153  31.622  0.00  0.00     0.019 C 
BRANCH  13  14
ATOM     14  C   UNL d   1      56.924  -0.354  32.053  0.00  0.00     0.002 A 
ATOM     15  C   UNL d   1      56.348   0.193  32.200  0.00  0.00     0.000 A 
ATOM     16  C   UNL d   1      55.666  -0.013  32.639  0.00  0.00     0.000 A 
ATOM     17  C   UNL d   1      55.578  -0.788  32.927  0.00  0.00     0.000 A 
ATOM     18  C   UNL d   1      56.156  -1.331  32.777  0.00  0.00     0.000 A 
ATOM     19  C   UNL d   1      56.839  -1.130  32.340  0.00  0.00     0.000 A 
ENDBRANCH  13  14
ENDBRANCH  12  13
ENDBRANCH   1  12
TORSDOF 3
ENDMDL
MODEL 7
REMARK VINA RESULT:      -3.0     10.125     10.509
REMARK  3 active torsions:
REMARK  status: ('A' for Active; 'I' for Inactive)
REMARK    1  A    between atoms: C_6  and  N_1 
REMARK    2  A    between atoms: C_11  and  C_6 
REMARK    3  A    between atoms: C_9  and  C_11 
ROOT
ATOM      1  N   UNL d   1      58.901  -9.818  32.598  0.00  0.00    -0.240 N 
ATOM      2  C   UNL d   1      58.100  -9.817  32.422  0.00  0.00     0.267 A 
ATOM      3  C   UNL d   1      59.313  -9.818  31.885  0.00  0.00     0.267 A 
ATOM      4  C   UNL d   1      58.014  -9.817  31.605  0.00  0.00     0.061 A 
ATOM      5  C   UNL d   1      58.768  -9.818  31.271  0.00  0.00     0.061 A 
ATOM      6  O   UNL d   1      57.483  -9.817  33.009  0.00  0.00    -0.267 OA
ATOM      7  O   UNL d   1      60.145  -9.818  31.830  0.00  0.00    -0.267 OA
ATOM      8  C   UNL d   1      58.848  -9.818  30.474  0.00  0.00     0.005 A 
ATOM      9  C   UNL d   1      57.351  -9.817  31.137  0.00  0.00     0.005 A 
ATOM     10  C   UNL d   1      57.438  -9.817  30.307  0.00  0.00     0.000 A 
ATOM     11  C   UNL d   1      58.193  -9.817  29.972  0.00  0.00     0.000 A 
ENDROOT
BRANCH   1  12
ATOM     12  C   UNL d   1      59.236  -9.818  33.353  0.00  0.00     0.086 C 
BRANCH  12  13
ATOM     13  C   UNL d   1      59.578  -9.128  33.662  0.00  0.00     0.019 C 
BRANCH  13  14
ATOM     14  C   UNL d   1      59.835  -9.124  34.445  0.00  0.00     0.002 A 
ATOM     15  C   UNL d   1      60.379  -9.662  34.703  0.00  0.00     0.000 A 
ATOM     16  C   UNL d   1      60.639  -9.656  35.499  0.00  0.00     0.000 A 
ATOM     17  C   UNL d   1      60.335  -9.092  36.029  0.00  0.00     0.000 A 
ATOM     18  C   UNL d   1      59.791  -8.557  35.766  0.00  0.00     0.000 A 
ATOM     19  C   UNL d   1      59.529  -8.559  34.973  0.00  0.00     0.000 A 
ENDBRANCH  13  14
ENDBRANCH  12  13
ENDBRANCH   1  12
TORSDOF 3
ENDMDL
