MODEL 1
REMARK VINA RESULT:      -0.3      0.000      0.000
REMARK  5 active torsions:
REMARK  status: ('A' for Active; 'I' for Inactive)
REMARK    1  A    between atoms: C_14  and  N_3 
REMARK    2  A    between atoms: C_15  and  C_9 
REMARK    3  A    between atoms: O_22  and  C_12 
REMARK    4  A    between atoms: O_23  and  C_13 
REMARK    5  A    between atoms: C_16  and  C_14 
ROOT
ATOM      1  C   UNL d   1      33.076  21.020 -21.611  0.00  0.00     0.056 A 
ATOM      2  C   UNL d   1      33.050  20.964 -20.783  0.00  0.00     0.107 A 
ATOM      3  N   UNL d   1      33.177  22.445 -21.498  0.00  0.00    -0.304 N 
ATOM      4  C   UNL d   1      33.088  21.643 -20.320  0.00  0.00     0.038 A 
ATOM      5  N   UNL d   1      32.987  20.165 -20.591  0.00  0.00    -0.148 NA
ATOM      6  C   UNL d   1      33.140  21.761 -21.969  0.00  0.00     0.083 A 
ATOM      7  N   UNL d   1      32.974  19.734 -21.295  0.00  0.00    -0.148 NA
ATOM      8  C   UNL d   1      33.151  22.384 -20.678  0.00  0.00     0.068 A 
ATOM      9  C   UNL d   1      33.029  20.255 -21.926  0.00  0.00     0.106 A 
ATOM     10  C   UNL d   1      33.189  23.064 -20.215  0.00  0.00     0.044 A 
ATOM     11  C   UNL d   1      33.061  21.583 -19.499  0.00  0.00     0.029 A 
ATOM     12  C   UNL d   1      33.162  23.003 -19.395  0.00  0.00     0.118 A 
ATOM     13  C   UNL d   1      33.099  22.262 -19.037  0.00  0.00     0.116 A 
ENDROOT
BRANCH   3  14
ATOM     14  C   UNL d   1      33.241  23.186 -21.856  0.00  0.00     0.080 C 
BRANCH  14  15
ATOM     15  C   UNL d   1      32.806  23.354 -22.535  0.00  0.00     0.020 A 
ATOM     16  C   UNL d   1      33.192  23.431 -23.269  0.00  0.00     0.031 A 
ATOM     17  C   UNL d   1      32.758  23.600 -23.948  0.00  0.00     0.140 A 
ATOM     18  F   UNL d   1      33.143  23.675 -24.673  0.00  0.00    -0.204 F 
ATOM     19  C   UNL d   1      31.930  23.694 -23.904  0.00  0.00     0.030 A 
ATOM     20  C   UNL d   1      31.544  23.617 -23.170  0.00  0.00     0.002 A 
ATOM     21  C   UNL d   1      31.983  23.448 -22.490  0.00  0.00     0.002 A 
ENDBRANCH  14  15
ENDBRANCH   3  14
BRANCH   9  22
ATOM     22  C   UNL d   1      33.028  19.969 -22.700  0.00  0.00     0.020 A 
ATOM     23  C   UNL d   1      32.816  19.183 -22.849  0.00  0.00     0.004 A 
ATOM     24  C   UNL d   1      32.816  18.900 -23.628  0.00  0.00     0.030 A 
ATOM     25  C   UNL d   1      33.025  19.391 -24.243  0.00  0.00     0.140 A 
ATOM     26  C   UNL d   1      33.238  20.176 -24.098  0.00  0.00     0.030 A 
ATOM     27  F   UNL d   1      33.022  19.097 -25.017  0.00  0.00    -0.204 F 
ATOM     28  C   UNL d   1      33.240  20.466 -23.322  0.00  0.00     0.004 A 
ENDBRANCH   9  22
BRANCH  12  29
ATOM     29  O   UNL d   1      33.201  23.699 -18.926  0.00  0.00    -0.326 OA
ATOM     30  C   UNL d   1      32.873  23.701 -18.167  0.00  0.00     0.181 C 
ENDBRANCH  12  29
BRANCH  13  31
ATOM     31  O   UNL d   1      33.073  22.207 -18.205  0.00  0.00    -0.326 OA
ATOM     32  C   UNL d   1      33.178  21.474 -17.837  0.00  0.00     0.181 C 
ENDBRANCH  13  31
TORSDOF 5
ENDMDL
