MODEL 1
REMARK VINA RESULT:      74.3      0.000      0.000
REMARK  3 active torsions:
REMARK  status: ('A' for Active; 'I' for Inactive)
REMARK    1  A    between atoms: C_11  and  N_3 
REMARK    2  A    between atoms: C_10  and  N_6 
REMARK    3  A    between atoms: C_9  and  C_7 
ROOT
ATOM      1  C   UNL d   1     -54.773-101.096 -41.803  0.00  0.00     0.106 A 
ATOM      2  C   UNL d   1     -54.782-101.935 -41.739  0.00  0.00     0.186 A 
ATOM      3  N   UNL d   1     -54.753-101.418 -40.487  0.00  0.00    -0.240 N 
ATOM      4  C   UNL d   1     -54.769-102.102 -40.921  0.00  0.00     0.292 A 
ATOM      5  C   UNL d   1     -54.756-100.783 -41.048  0.00  0.00     0.271 A 
ATOM      6  N   UNL d   1     -54.802-101.643 -43.032  0.00  0.00    -0.211 N 
ATOM      7  C   UNL d   1     -54.786-100.927 -42.607  0.00  0.00     0.117 A 
ATOM      8  O   UNL d   1     -54.799-102.252 -42.477  0.00  0.00    -0.223 OA
ATOM      9  O   UNL d   1     -54.743 -99.985 -40.839  0.00  0.00    -0.266 OA
ATOM     10  O   UNL d   1     -54.772-102.879 -40.595  0.00  0.00    -0.264 OA
ENDROOT
BRANCH   6  11
ATOM     11  C   UNL d   1     -54.817-101.727 -43.853  0.00  0.00     0.088 A 
ATOM     12  C   UNL d   1     -54.945-102.484 -44.180  0.00  0.00     0.021 A 
ATOM     13  C   UNL d   1     -54.964-102.589 -45.000  0.00  0.00     0.013 A 
ATOM     14  C   UNL d   1     -54.854-101.925 -45.510  0.00  0.00     0.058 A 
ATOM     15  C   UNL d   1     -54.727-101.168 -45.173  0.00  0.00     0.013 A 
ATOM     16 CL   UNL d   1     -54.870-102.008 -46.314  0.00  0.00    -0.082 Cl
ATOM     17  C   UNL d   1     -54.711-101.083 -44.353  0.00  0.00     0.021 A 
ENDBRANCH   6  11
BRANCH   7  18
ATOM     18  C   UNL d   1     -54.783-100.174 -42.937  0.00  0.00     0.118 A 
ATOM     19  O   UNL d   1     -54.842 -99.961 -43.734  0.00  0.00    -0.304 OA
ATOM     20  C   UNL d   1     -54.813 -99.137 -43.792  0.00  0.00     0.123 A 
ATOM     21  C   UNL d   1     -54.734 -98.853 -43.005  0.00  0.00     0.029 A 
ATOM     22  C   UNL d   1     -54.718 -99.485 -42.509  0.00  0.00     0.028 A 
ENDBRANCH   7  18
BRANCH   3  23
ATOM     23  C   UNL d   1     -54.739-101.487 -39.669  0.00  0.00     0.070 A 
ATOM     24  C   UNL d   1     -54.726-100.817 -39.179  0.00  0.00     0.018 A 
ATOM     25  C   UNL d   1     -54.712-100.903 -38.360  0.00  0.00     0.002 A 
ATOM     26  C   UNL d   1     -54.711-101.628 -38.014  0.00  0.00     0.000 A 
ATOM     27  C   UNL d   1     -54.725-102.316 -38.507  0.00  0.00     0.002 A 
ATOM     28  C   UNL d   1     -54.739-102.250 -39.319  0.00  0.00     0.018 A 
ENDBRANCH   3  23
TORSDOF 3
ENDMDL
