MODEL 1
REMARK VINA RESULT:      77.6      0.000      0.000
REMARK  5 active torsions:
REMARK  status: ('A' for Active; 'I' for Inactive)
REMARK    1  A    between atoms: C_6  and  C_1 
REMARK       I    between atoms: C_7  and  N_8 
REMARK    2  A    between atoms: C_16  and  C_7 
REMARK    3  A    between atoms: N_8  and  C_14 
REMARK    4  A    between atoms: O_15  and  C_16 
REMARK    5  A    between atoms: C_21  and  O_15 
ROOT
ATOM      1  C   UNL d   1     -55.235-101.779 -39.322  0.00  0.00     0.024 A 
ATOM      2  C   UNL d   1     -55.285-100.981 -39.517  0.00  0.00     0.004 A 
ATOM      3  C   UNL d   1     -55.065-102.353 -39.860  0.00  0.00     0.004 A 
ATOM      4  C   UNL d   1     -54.977-101.337 -40.883  0.00  0.00     0.085 A 
ATOM      5  C   UNL d   1     -54.929-102.143 -40.667  0.00  0.00     0.019 A 
ATOM      6  C   UNL d   1     -55.150-100.772 -40.323  0.00  0.00     0.019 A 
ENDROOT
BRANCH   4   7
ATOM      7  N   UNL d   1     -54.835-101.119 -41.724  0.00  0.00    -0.206 NA
ATOM      8  C   UNL d   1     -54.846-100.295 -41.924  0.00  0.00     0.304 C 
ATOM      9  O   UNL d   1     -54.979 -99.701 -41.380  0.00  0.00    -0.263 OA
BRANCH   8  10
ATOM     10  C   UNL d   1     -54.711-100.087 -42.724  0.00  0.00     0.185 C 
BRANCH  10  11
ATOM     11  O   UNL d   1     -55.132-100.471 -43.312  0.00  0.00    -0.300 OA
BRANCH  11  12
ATOM     12  C   UNL d   1     -55.320-100.057 -44.019  0.00  0.00     0.100 A 
ATOM     13  C   UNL d   1     -54.732 -99.857 -44.561  0.00  0.00     0.025 A 
ATOM     14  C   UNL d   1     -54.914 -99.456 -45.244  0.00  0.00     0.002 A 
ATOM     15  C   UNL d   1     -55.688 -99.245 -45.403  0.00  0.00     0.000 A 
ATOM     16  C   UNL d   1     -56.286 -99.438 -44.869  0.00  0.00     0.002 A 
ATOM     17  C   UNL d   1     -56.104 -99.839 -44.185  0.00  0.00     0.025 A 
ENDBRANCH  11  12
ENDBRANCH  10  11
ENDBRANCH   8  10
ENDBRANCH   4   7
BRANCH   1  18
ATOM     18  C   UNL d   1     -55.369-101.986 -38.523  0.00  0.00     0.111 A 
ATOM     19  N   UNL d   1     -54.799-102.056 -37.958  0.00  0.00    -0.239 NA
ATOM     20  C   UNL d   1     -55.153-102.264 -37.261  0.00  0.00     0.088 A 
ATOM     21  C   UNL d   1     -54.873-102.414 -36.503  0.00  0.00     0.020 A 
ATOM     22  C   UNL d   1     -55.982-102.322 -37.415  0.00  0.00     0.049 A 
ATOM     23  C   UNL d   1     -55.380-102.615 -35.909  0.00  0.00     0.002 A 
ATOM     24  C   UNL d   1     -56.209-102.673 -36.063  0.00  0.00     0.001 A 
ATOM     25  C   UNL d   1     -56.511-102.529 -36.808  0.00  0.00     0.008 A 
ATOM     26  C   UNL d   1     -56.738-102.880 -35.456  0.00  0.00     0.000 C 
ATOM     27  S   UNL d   1     -56.107-102.148 -38.201  0.00  0.00    -0.066 SA
ENDBRANCH   1  18
TORSDOF 5
ENDMDL
