MODEL 1
REMARK VINA RESULT:      27.3      0.000      0.000
REMARK  2 active torsions:
REMARK  status: ('A' for Active; 'I' for Inactive)
REMARK    1  A    between atoms: C_6  and  C_1 
REMARK    2  A    between atoms: C_8  and  N_3 
REMARK       I    between atoms: N_7  and  C_6 
ROOT
ATOM      1  C   UNL d   1      45.463 -14.736  44.538  0.00  0.00     0.124 A 
ATOM      2  C   UNL d   1      45.924 -15.357  44.213  0.00  0.00     0.181 A 
ATOM      3  N   UNL d   1      45.503 -16.073  44.337  0.00  0.00    -0.276 N 
ATOM      4  C   UNL d   1      44.799 -15.899  44.729  0.00  0.00     0.152 A 
ATOM      5  S   UNL d   1      44.760 -15.072  44.861  0.00  0.00    -0.051 SA
ATOM      6  S   UNL d   1      44.229 -16.440  44.955  0.00  0.00    -0.052 SA
ATOM      7  N   UNL d   1      46.646 -15.188  43.857  0.00  0.00    -0.128 N 
ENDROOT
BRANCH   1   8
ATOM      8  C   UNL d   1      45.718 -13.956  44.509  0.00  0.00     0.274 C 
ATOM      9  N   UNL d   1      45.324 -13.418  44.028  0.00  0.00    -0.267 N 
ATOM     10  C   UNL d   1      44.665 -13.655  43.566  0.00  0.00     0.110 A 
ATOM     11  C   UNL d   1      45.578 -12.620  43.992  0.00  0.00     0.110 A 
ATOM     12  C   UNL d   1      44.272 -13.100  43.082  0.00  0.00     0.142 A 
ATOM     13  O   UNL d   1      44.534 -12.319  43.058  0.00  0.00    -0.300 OA
ATOM     14  C   UNL d   1      45.184 -12.081  43.511  0.00  0.00     0.142 A 
ATOM     15  O   UNL d   1      46.360 -13.715  44.955  0.00  0.00    -0.266 OA
ENDBRANCH   1   8
BRANCH   3  16
ATOM     16  C   UNL d   1      45.766 -16.829  44.097  0.00  0.00     0.067 A 
ATOM     17  C   UNL d   1      45.794 -17.023  43.303  0.00  0.00     0.018 A 
ATOM     18  C   UNL d   1      46.059 -17.785  43.072  0.00  0.00     0.002 A 
ATOM     19  C   UNL d   1      46.287 -18.326  43.638  0.00  0.00     0.000 A 
ATOM     20  C   UNL d   1      46.258 -18.124  44.444  0.00  0.00     0.002 A 
ATOM     21  C   UNL d   1      46.548 -19.074  43.408  0.00  0.00     0.000 C 
ATOM     22  C   UNL d   1      45.998 -17.378  44.676  0.00  0.00     0.018 A 
ENDBRANCH   3  16
TORSDOF 2
ENDMDL
