MODEL 1
REMARK VINA RESULT:      -7.9      0.000      0.000
REMARK  3 active torsions:
REMARK  status: ('A' for Active; 'I' for Inactive)
REMARK    1  A    between atoms: C_14  and  C_1 
REMARK    2  A    between atoms: C_3  and  C_8 
REMARK       I    between atoms: C_8  and  N_13 
REMARK    3  A    between atoms: N_13  and  C_15 
ROOT
ATOM      1  C   UNL d   1     -48.464  11.902  23.029  0.00  0.00     0.025 A 
ATOM      2  C   UNL d   1     -49.669  12.057  22.266  0.00  0.00     0.085 A 
ATOM      3  C   UNL d   1     -48.846  12.020  22.303  0.00  0.00     0.021 A 
ATOM      4  C   UNL d   1     -48.863  11.822  23.698  0.00  0.00     0.002 A 
ATOM      5  C   UNL d   1     -49.669  11.854  23.685  0.00  0.00     0.002 A 
ATOM      6  C   UNL d   1     -50.110  11.971  22.978  0.00  0.00     0.019 A 
ENDROOT
BRANCH   2   7
ATOM      7  N   UNL d   1     -50.063  12.172  21.559  0.00  0.00    -0.206 NA
ATOM      8  C   UNL d   1     -50.305  12.946  21.355  0.00  0.00     0.302 C 
ATOM      9  O   UNL d   1     -50.714  13.055  20.616  0.00  0.00    -0.263 OA
BRANCH   8  10
ATOM     10  C   UNL d   1     -50.152  13.555  21.842  0.00  0.00     0.161 A 
ATOM     11  C   UNL d   1     -50.690  13.674  22.439  0.00  0.00     0.072 A 
ATOM     12  C   UNL d   1     -50.544  14.300  22.950  0.00  0.00     0.200 A 
ATOM     13  O   UNL d   1     -51.064  14.436  23.549  0.00  0.00    -0.286 OA
ATOM     14  C   UNL d   1     -49.883  14.786  22.863  0.00  0.00     0.062 A 
ATOM     15  C   UNL d   1     -49.345  14.652  22.252  0.00  0.00     0.103 A 
ATOM     16  C   UNL d   1     -49.732  15.414  23.373  0.00  0.00     0.005 A 
ATOM     17  O   UNL d   1     -49.468  14.030  21.724  0.00  0.00    -0.302 OA
ATOM     18  C   UNL d   1     -48.672  15.154  22.172  0.00  0.00     0.025 A 
ATOM     19  C   UNL d   1     -48.527  15.766  22.669  0.00  0.00     0.002 A 
ATOM     20  C   UNL d   1     -49.059  15.886  23.261  0.00  0.00     0.000 A 
ENDBRANCH   8  10
ENDBRANCH   2   7
BRANCH   1  21
ATOM     21  C   UNL d   1     -47.622  11.871  23.024  0.00  0.00     0.111 A 
ATOM     22  N   UNL d   1     -47.056  12.369  22.691  0.00  0.00    -0.239 NA
ATOM     23  C   UNL d   1     -46.307  12.065  22.863  0.00  0.00     0.088 A 
ATOM     24  C   UNL d   1     -45.529  12.298  22.692  0.00  0.00     0.020 A 
ATOM     25  C   UNL d   1     -46.426  11.379  23.302  0.00  0.00     0.049 A 
ATOM     26  C   UNL d   1     -44.850  11.865  22.948  0.00  0.00     0.002 A 
ATOM     27  C   UNL d   1     -44.976  11.159  23.400  0.00  0.00     0.001 A 
ATOM     28  C   UNL d   1     -45.772  10.931  23.568  0.00  0.00     0.008 A 
ATOM     29  S   UNL d   1     -47.254  11.268  23.397  0.00  0.00    -0.066 SA
ENDBRANCH   1  21
TORSDOF 3
ENDMDL
MODEL 2
REMARK VINA RESULT:      -6.1      8.248     10.298
REMARK  3 active torsions:
REMARK  status: ('A' for Active; 'I' for Inactive)
REMARK    1  A    between atoms: C_14  and  C_1 
REMARK    2  A    between atoms: C_3  and  C_8 
REMARK       I    between atoms: C_8  and  N_13 
REMARK    3  A    between atoms: N_13  and  C_15 
ROOT
ATOM      1  C   UNL d   1     -39.914  14.836  18.703  0.00  0.00     0.025 A 
ATOM      2  C   UNL d   1     -40.845  14.640  19.776  0.00  0.00     0.085 A 
ATOM      3  C   UNL d   1     -40.397  14.336  19.153  0.00  0.00     0.021 A 
ATOM      4  C   UNL d   1     -39.865  15.605  18.847  0.00  0.00     0.002 A 
ATOM      5  C   UNL d   1     -40.295  15.922  19.451  0.00  0.00     0.002 A 
ATOM      6  C   UNL d   1     -40.801  15.464  19.941  0.00  0.00     0.019 A 
ENDROOT
BRANCH   2   7
ATOM      7  N   UNL d   1     -41.327  14.162  20.231  0.00  0.00    -0.206 NA
ATOM      8  C   UNL d   1     -41.048  13.898  20.974  0.00  0.00     0.302 C 
ATOM      9  O   UNL d   1     -41.558  13.401  21.440  0.00  0.00    -0.263 OA
BRANCH   8  10
ATOM     10  C   UNL d   1     -40.325  14.112  21.228  0.00  0.00     0.161 A 
ATOM     11  C   UNL d   1     -39.720  13.603  21.041  0.00  0.00     0.072 A 
ATOM     12  C   UNL d   1     -38.968  13.811  21.297  0.00  0.00     0.200 A 
ATOM     13  O   UNL d   1     -38.354  13.321  21.123  0.00  0.00    -0.286 OA
ATOM     14  C   UNL d   1     -38.832  14.503  21.724  0.00  0.00     0.062 A 
ATOM     15  C   UNL d   1     -39.457  15.010  21.907  0.00  0.00     0.103 A 
ATOM     16  C   UNL d   1     -38.080  14.716  21.983  0.00  0.00     0.005 A 
ATOM     17  O   UNL d   1     -40.223  14.825  21.661  0.00  0.00    -0.302 OA
ATOM     18  C   UNL d   1     -39.307  15.716  22.344  0.00  0.00     0.025 A 
ATOM     19  C   UNL d   1     -38.574  15.922  22.595  0.00  0.00     0.002 A 
ATOM     20  C   UNL d   1     -37.973  15.419  22.411  0.00  0.00     0.000 A 
ENDBRANCH   8  10
ENDBRANCH   2   7
BRANCH   1  21
ATOM     21  C   UNL d   1     -39.472  14.487  18.076  0.00  0.00     0.111 A 
ATOM     22  N   UNL d   1     -39.191  13.721  17.963  0.00  0.00    -0.239 NA
ATOM     23  C   UNL d   1     -38.789  13.694  17.241  0.00  0.00     0.088 A 
ATOM     24  C   UNL d   1     -38.388  13.104  16.817  0.00  0.00     0.020 A 
ATOM     25  C   UNL d   1     -38.830  14.451  16.920  0.00  0.00     0.049 A 
ATOM     26  C   UNL d   1     -38.019  13.240  16.070  0.00  0.00     0.002 A 
ATOM     27  C   UNL d   1     -38.064  14.021  15.741  0.00  0.00     0.001 A 
ATOM     28  C   UNL d   1     -38.474  14.615  16.181  0.00  0.00     0.008 A 
ATOM     29  S   UNL d   1     -39.261  14.939  17.452  0.00  0.00    -0.066 SA
ENDBRANCH   1  21
TORSDOF 3
ENDMDL
MODEL 3
REMARK VINA RESULT:      -6.0      1.556      2.602
REMARK  3 active torsions:
REMARK  status: ('A' for Active; 'I' for Inactive)
REMARK    1  A    between atoms: C_14  and  C_1 
REMARK    2  A    between atoms: C_3  and  C_8 
REMARK       I    between atoms: C_8  and  N_13 
REMARK    3  A    between atoms: N_13  and  C_15 
ROOT
ATOM      1  C   UNL d   1     -46.498  12.872  23.057  0.00  0.00     0.025 A 
ATOM      2  C   UNL d   1     -47.718  12.285  23.531  0.00  0.00     0.085 A 
ATOM      3  C   UNL d   1     -46.962  12.204  23.211  0.00  0.00     0.021 A 
ATOM      4  C   UNL d   1     -46.755  13.597  23.207  0.00  0.00     0.002 A 
ATOM      5  C   UNL d   1     -47.491  13.700  23.520  0.00  0.00     0.002 A 
ATOM      6  C   UNL d   1     -48.005  13.058  23.696  0.00  0.00     0.019 A 
ENDROOT
BRANCH   2   7
ATOM      7  N   UNL d   1     -48.190  11.637  23.689  0.00  0.00    -0.206 NA
ATOM      8  C   UNL d   1     -48.916  11.557  23.282  0.00  0.00     0.302 C 
ATOM      9  O   UNL d   1     -49.399  10.878  23.456  0.00  0.00    -0.263 OA
BRANCH   8  10
ATOM     10  C   UNL d   1     -49.139  12.105  22.752  0.00  0.00     0.161 A 
ATOM     11  C   UNL d   1     -48.862  11.999  21.995  0.00  0.00     0.072 A 
ATOM     12  C   UNL d   1     -49.084  12.558  21.436  0.00  0.00     0.200 A 
ATOM     13  O   UNL d   1     -48.822  12.472  20.681  0.00  0.00    -0.286 OA
ATOM     14  C   UNL d   1     -49.566  13.198  21.632  0.00  0.00     0.062 A 
ATOM     15  C   UNL d   1     -49.840  13.293  22.405  0.00  0.00     0.103 A 
ATOM     16  C   UNL d   1     -49.792  13.761  21.076  0.00  0.00     0.005 A 
ATOM     17  O   UNL d   1     -49.631  12.746  22.986  0.00  0.00    -0.302 OA
ATOM     18  C   UNL d   1     -50.332  13.951  22.595  0.00  0.00     0.025 A 
ATOM     19  C   UNL d   1     -50.551  14.499  22.052  0.00  0.00     0.002 A 
ATOM     20  C   UNL d   1     -50.278  14.395  21.302  0.00  0.00     0.000 A 
ENDBRANCH   8  10
ENDBRANCH   2   7
BRANCH   1  21
ATOM     21  C   UNL d   1     -45.732  12.747  22.730  0.00  0.00     0.111 A 
ATOM     22  N   UNL d   1     -45.168  12.161  22.863  0.00  0.00    -0.239 NA
ATOM     23  C   UNL d   1     -44.512  12.317  22.384  0.00  0.00     0.088 A 
ATOM     24  C   UNL d   1     -43.779  11.948  22.259  0.00  0.00     0.020 A 
ATOM     25  C   UNL d   1     -44.686  13.002  21.961  0.00  0.00     0.049 A 
ATOM     26  C   UNL d   1     -43.200  12.241  21.719  0.00  0.00     0.002 A 
ATOM     27  C   UNL d   1     -43.382  12.947  21.285  0.00  0.00     0.001 A 
ATOM     28  C   UNL d   1     -44.130  13.314  21.419  0.00  0.00     0.008 A 
ATOM     29  S   UNL d   1     -45.453  13.262  22.187  0.00  0.00    -0.066 SA
ENDBRANCH   1  21
TORSDOF 3
ENDMDL
MODEL 4
REMARK VINA RESULT:      -5.9      1.201      2.490
REMARK  3 active torsions:
REMARK  status: ('A' for Active; 'I' for Inactive)
REMARK    1  A    between atoms: C_14  and  C_1 
REMARK    2  A    between atoms: C_3  and  C_8 
REMARK       I    between atoms: C_8  and  N_13 
REMARK    3  A    between atoms: N_13  and  C_15 
ROOT
ATOM      1  C   UNL d   1     -47.523  14.169  22.659  0.00  0.00     0.025 A 
ATOM      2  C   UNL d   1     -48.686  14.664  21.982  0.00  0.00     0.085 A 
ATOM      3  C   UNL d   1     -48.006  14.197  21.987  0.00  0.00     0.021 A 
ATOM      4  C   UNL d   1     -47.690  14.579  23.306  0.00  0.00     0.002 A 
ATOM      5  C   UNL d   1     -48.350  15.041  23.323  0.00  0.00     0.002 A 
ATOM      6  C   UNL d   1     -48.877  15.109  22.671  0.00  0.00     0.019 A 
ENDROOT
BRANCH   2   7
ATOM      7  N   UNL d   1     -49.175  14.705  21.328  0.00  0.00    -0.206 NA
ATOM      8  C   UNL d   1     -49.832  14.189  21.283  0.00  0.00     0.302 C 
ATOM      9  O   UNL d   1     -50.334  14.239  20.597  0.00  0.00    -0.263 OA
BRANCH   8  10
ATOM     10  C   UNL d   1     -49.973  13.670  21.869  0.00  0.00     0.161 A 
ATOM     11  C   UNL d   1     -50.445  13.939  22.473  0.00  0.00     0.072 A 
ATOM     12  C   UNL d   1     -50.599  13.414  23.085  0.00  0.00     0.200 A 
ATOM     13  O   UNL d   1     -51.064  13.659  23.694  0.00  0.00    -0.286 OA
ATOM     14  C   UNL d   1     -50.292  12.648  23.087  0.00  0.00     0.062 A 
ATOM     15  C   UNL d   1     -49.814  12.389  22.466  0.00  0.00     0.103 A 
ATOM     16  C   UNL d   1     -50.444  12.118  23.698  0.00  0.00     0.005 A 
ATOM     17  O   UNL d   1     -49.643  12.897  21.838  0.00  0.00    -0.302 OA
ATOM     18  C   UNL d   1     -49.505  11.605  22.477  0.00  0.00     0.025 A 
ATOM     19  C   UNL d   1     -49.654  11.089  23.073  0.00  0.00     0.002 A 
ATOM     20  C   UNL d   1     -50.121  11.354  23.673  0.00  0.00     0.000 A 
ENDBRANCH   8  10
ENDBRANCH   2   7
BRANCH   1  21
ATOM     21  C   UNL d   1     -46.838  13.681  22.624  0.00  0.00     0.111 A 
ATOM     22  N   UNL d   1     -46.634  12.992  23.028  0.00  0.00    -0.239 NA
ATOM     23  C   UNL d   1     -45.887  12.749  22.769  0.00  0.00     0.088 A 
ATOM     24  C   UNL d   1     -45.383  12.116  22.953  0.00  0.00     0.020 A 
ATOM     25  C   UNL d   1     -45.642  13.298  22.206  0.00  0.00     0.049 A 
ATOM     26  C   UNL d   1     -44.628  12.005  22.589  0.00  0.00     0.002 A 
ATOM     27  C   UNL d   1     -44.379  12.572  22.010  0.00  0.00     0.001 A 
ATOM     28  C   UNL d   1     -44.900  13.213  21.831  0.00  0.00     0.008 A 
ATOM     29  S   UNL d   1     -46.247  13.877  22.124  0.00  0.00    -0.066 SA
ENDBRANCH   1  21
TORSDOF 3
ENDMDL
