MODEL 1
REMARK VINA RESULT:      36.7      0.000      0.000
REMARK  6 active torsions:
REMARK  status: ('A' for Active; 'I' for Inactive)
REMARK    1  A    between atoms: N_4  and  C_1 
REMARK    2  A    between atoms: N_8  and  C_1 
REMARK       I    between atoms: C_2  and  N_3 
REMARK    3  A    between atoms: C_6  and  C_2 
REMARK    4  A    between atoms: N_3  and  N_4 
REMARK    5  A    between atoms: C_17  and  N_8 
REMARK    6  A    between atoms: C_11  and  C_17 
ROOT
ATOM      1  C   UNL d   1      60.880  49.292  51.332  0.00  0.00     0.297 C 
ATOM      2  N   UNL d   1      60.161  49.705  51.200  0.00  0.00    -0.103 NA
ATOM      3  O   UNL d   1      61.467  49.644  51.781  0.00  0.00    -0.264 OA
ENDROOT
BRANCH   1   4
ATOM      4  C   UNL d   1      60.991  48.527  51.006  0.00  0.00     0.059 A 
ATOM      5  C   UNL d   1      61.256  48.459  50.237  0.00  0.00     0.005 A 
ATOM      6  C   UNL d   1      61.369  47.711  49.907  0.00  0.00     0.007 A 
ATOM      7  C   UNL d   1      61.215  47.041  50.352  0.00  0.00     0.035 A 
ATOM      8  C   UNL d   1      60.944  47.102  51.137  0.00  0.00     0.007 A 
ATOM      9 BR   UNL d   1      61.330  46.270  50.015  0.00  0.00    -0.049 Br
ATOM     10  C   UNL d   1      60.837  47.857  51.451  0.00  0.00     0.005 A 
ENDBRANCH   1   4
BRANCH   2  11
ATOM     11  N   UNL d   1      59.561  49.345  50.741  0.00  0.00    -0.114 NA
BRANCH  11  12
ATOM     12  C   UNL d   1      58.781  49.517  50.880  0.00  0.00     0.241 C 
ATOM     13  S   UNL d   1      58.525  49.695  51.648  0.00  0.00    -0.035 SA
BRANCH  12  14
ATOM     14  N   UNL d   1      58.230  49.516  50.250  0.00  0.00    -0.215 NA
BRANCH  14  15
ATOM     15  C   UNL d   1      57.435  49.701  50.401  0.00  0.00     0.102 C 
BRANCH  15  16
ATOM     16  C   UNL d   1      56.875  49.607  49.804  0.00  0.00     0.021 C 
ATOM     17  C   UNL d   1      56.348  48.983  49.827  0.00  0.00     0.002 C 
ENDBRANCH  15  16
ENDBRANCH  14  15
ENDBRANCH  12  14
ENDBRANCH  11  12
ENDBRANCH   2  11
TORSDOF 6
ENDMDL
MODEL 2
REMARK VINA RESULT:      39.5      2.314      4.074
REMARK  6 active torsions:
REMARK  status: ('A' for Active; 'I' for Inactive)
REMARK    1  A    between atoms: N_4  and  C_1 
REMARK    2  A    between atoms: N_8  and  C_1 
REMARK       I    between atoms: C_2  and  N_3 
REMARK    3  A    between atoms: C_6  and  C_2 
REMARK    4  A    between atoms: N_3  and  N_4 
REMARK    5  A    between atoms: C_17  and  N_8 
REMARK    6  A    between atoms: C_11  and  C_17 
ROOT
ATOM      1  C   UNL d   1      58.853  49.491  49.788  0.00  0.00     0.297 C 
ATOM      2  N   UNL d   1      59.643  49.576  50.059  0.00  0.00    -0.103 NA
ATOM      3  O   UNL d   1      58.715  49.362  48.992  0.00  0.00    -0.264 OA
ENDROOT
BRANCH   1   4
ATOM      4  C   UNL d   1      58.215  49.539  50.331  0.00  0.00     0.059 A 
ATOM      5  C   UNL d   1      57.450  49.513  50.046  0.00  0.00     0.005 A 
ATOM      6  C   UNL d   1      56.816  49.559  50.573  0.00  0.00     0.007 A 
ATOM      7  C   UNL d   1      56.956  49.630  51.376  0.00  0.00     0.035 A 
ATOM      8  C   UNL d   1      57.733  49.657  51.674  0.00  0.00     0.007 A 
ATOM      9 BR   UNL d   1      56.306  49.678  51.920  0.00  0.00    -0.049 Br
ATOM     10  C   UNL d   1      58.355  49.609  51.135  0.00  0.00     0.005 A 
ENDBRANCH   1   4
BRANCH   2  11
ATOM     11  N   UNL d   1      59.785  49.708  50.873  0.00  0.00    -0.114 NA
BRANCH  11  12
ATOM     12  C   UNL d   1      60.411  49.350  51.243  0.00  0.00     0.241 C 
ATOM     13  S   UNL d   1      60.856  48.775  50.845  0.00  0.00    -0.035 SA
BRANCH  12  14
ATOM     14  N   UNL d   1      60.612  49.557  52.028  0.00  0.00    -0.215 NA
BRANCH  14  15
ATOM     15  C   UNL d   1      61.093  49.051  52.476  0.00  0.00     0.102 C 
BRANCH  15  16
ATOM     16  C   UNL d   1      61.558  49.360  53.082  0.00  0.00     0.021 C 
ATOM     17  C   UNL d   1      62.373  49.322  53.038  0.00  0.00     0.002 C 
ENDBRANCH  15  16
ENDBRANCH  14  15
ENDBRANCH  12  14
ENDBRANCH  11  12
ENDBRANCH   2  11
TORSDOF 6
ENDMDL
