MODEL 1
REMARK VINA RESULT:      -3.0      0.000      0.000
REMARK  3 active torsions:
REMARK  status: ('A' for Active; 'I' for Inactive)
REMARK    1  A    between atoms: C_4  and  C_1 
REMARK    2  A    between atoms: C_5  and  C_6 
REMARK       I    between atoms: C_6  and  N_7 
REMARK    3  A    between atoms: N_7  and  C_8 
ROOT
ATOM      1  C   UNL d   1      31.626  16.867 -24.616  0.00  0.00     0.042 A 
ATOM      2  C   UNL d   1      30.846  16.874 -24.876  0.00  0.00     0.087 A 
ATOM      3  C   UNL d   1      32.048  16.154 -24.576  0.00  0.00     0.004 A 
ATOM      4  C   UNL d   1      30.481  16.172 -25.097  0.00  0.00     0.019 A 
ATOM      5  C   UNL d   1      31.674  15.453 -24.800  0.00  0.00     0.000 A 
ATOM      6  C   UNL d   1      30.891  15.465 -25.060  0.00  0.00     0.002 A 
ENDROOT
BRANCH   1   7
ATOM      7  C   UNL d   1      31.999  17.568 -24.392  0.00  0.00     0.112 A 
ATOM      8  N   UNL d   1      32.201  18.226 -24.830  0.00  0.00    -0.238 NA
ATOM      9  C   UNL d   1      32.566  18.764 -24.320  0.00  0.00     0.088 A 
ATOM     10  C   UNL d   1      32.885  19.521 -24.446  0.00  0.00     0.020 A 
ATOM     11  C   UNL d   1      32.584  18.430 -23.570  0.00  0.00     0.049 A 
ATOM     12  C   UNL d   1      33.219  19.935 -23.821  0.00  0.00     0.002 A 
ATOM     13  C   UNL d   1      33.239  19.602 -23.065  0.00  0.00     0.001 A 
ATOM     14  C   UNL d   1      32.920  18.845 -22.938  0.00  0.00     0.008 A 
ATOM     15  S   UNL d   1      32.233  17.690 -23.618  0.00  0.00    -0.066 SA
ENDBRANCH   1   7
BRANCH   2  16
ATOM     16  N   UNL d   1      30.433  17.591 -24.912  0.00  0.00    -0.206 NA
ATOM     17  C   UNL d   1      29.627  17.617 -24.695  0.00  0.00     0.304 C 
ATOM     18  O   UNL d   1      29.217  18.329 -24.731  0.00  0.00    -0.263 OA
BRANCH  17  19
ATOM     19  C   UNL d   1      29.240  16.933 -24.444  0.00  0.00     0.182 A 
ATOM     20  O   UNL d   1      29.205  16.747 -23.640  0.00  0.00    -0.296 OA
ATOM     21  C   UNL d   1      28.817  16.063 -23.389  0.00  0.00     0.150 A 
ATOM     22  C   UNL d   1      28.465  15.565 -23.942  0.00  0.00     0.149 A 
ATOM     23  O   UNL d   1      28.501  15.751 -24.746  0.00  0.00    -0.299 OA
ATOM     24  C   UNL d   1      28.889  16.435 -24.996  0.00  0.00     0.152 A 
ENDBRANCH  17  19
ENDBRANCH   2  16
TORSDOF 3
ENDMDL
MODEL 2
REMARK VINA RESULT:      -0.8      1.963      3.236
REMARK  3 active torsions:
REMARK  status: ('A' for Active; 'I' for Inactive)
REMARK    1  A    between atoms: C_4  and  C_1 
REMARK    2  A    between atoms: C_5  and  C_6 
REMARK       I    between atoms: C_6  and  N_7 
REMARK    3  A    between atoms: N_7  and  C_8 
ROOT
ATOM      1  C   UNL d   1      32.992  19.000 -23.669  0.00  0.00     0.042 A 
ATOM      2  C   UNL d   1      33.118  18.188 -23.679  0.00  0.00     0.087 A 
ATOM      3  C   UNL d   1      32.872  19.415 -24.378  0.00  0.00     0.004 A 
ATOM      4  C   UNL d   1      33.124  17.783 -24.394  0.00  0.00     0.019 A 
ATOM      5  C   UNL d   1      32.879  19.001 -25.092  0.00  0.00     0.000 A 
ATOM      6  C   UNL d   1      33.005  18.185 -25.097  0.00  0.00     0.002 A 
ENDROOT
BRANCH   1   7
ATOM      7  C   UNL d   1      32.985  19.414 -22.955  0.00  0.00     0.112 A 
ATOM      8  N   UNL d   1      33.241  19.197 -22.212  0.00  0.00    -0.238 NA
ATOM      9  C   UNL d   1      33.098  19.831 -21.703  0.00  0.00     0.088 A 
ATOM     10  C   UNL d   1      33.239  19.933 -20.890  0.00  0.00     0.020 A 
ATOM     11  C   UNL d   1      32.754  20.435 -22.139  0.00  0.00     0.049 A 
ATOM     12  C   UNL d   1      33.035  20.639 -20.523  0.00  0.00     0.002 A 
ATOM     13  C   UNL d   1      32.688  21.250 -20.961  0.00  0.00     0.001 A 
ATOM     14  C   UNL d   1      32.547  21.147 -21.773  0.00  0.00     0.008 A 
ATOM     15  S   UNL d   1      32.685  20.175 -22.914  0.00  0.00    -0.066 SA
ENDBRANCH   1   7
BRANCH   2  16
ATOM     16  N   UNL d   1      33.237  17.783 -22.967  0.00  0.00    -0.206 NA
ATOM     17  C   UNL d   1      32.883  17.036 -22.851  0.00  0.00     0.304 C 
ATOM     18  O   UNL d   1      33.002  16.634 -22.143  0.00  0.00    -0.263 OA
BRANCH  17  19
ATOM     19  C   UNL d   1      32.414  16.700 -23.440  0.00  0.00     0.182 A 
ATOM     20  O   UNL d   1      31.607  16.867 -23.475  0.00  0.00    -0.296 OA
ATOM     21  C   UNL d   1      31.138  16.530 -24.065  0.00  0.00     0.150 A 
ATOM     22  C   UNL d   1      31.477  16.025 -24.620  0.00  0.00     0.149 A 
ATOM     23  O   UNL d   1      32.286  15.858 -24.584  0.00  0.00    -0.299 OA
ATOM     24  C   UNL d   1      32.753  16.195 -23.994  0.00  0.00     0.152 A 
ENDBRANCH  17  19
ENDBRANCH   2  16
TORSDOF 3
ENDMDL
MODEL 3
REMARK VINA RESULT:      -0.8      2.272      3.885
REMARK  3 active torsions:
REMARK  status: ('A' for Active; 'I' for Inactive)
REMARK    1  A    between atoms: C_4  and  C_1 
REMARK    2  A    between atoms: C_5  and  C_6 
REMARK       I    between atoms: C_6  and  N_7 
REMARK    3  A    between atoms: N_7  and  C_8 
ROOT
ATOM      1  C   UNL d   1      33.160  20.146 -23.557  0.00  0.00     0.042 A 
ATOM      2  C   UNL d   1      33.194  19.328 -23.632  0.00  0.00     0.087 A 
ATOM      3  C   UNL d   1      33.166  20.629 -24.232  0.00  0.00     0.004 A 
ATOM      4  C   UNL d   1      33.235  18.986 -24.378  0.00  0.00     0.019 A 
ATOM      5  C   UNL d   1      33.206  20.278 -24.978  0.00  0.00     0.000 A 
ATOM      6  C   UNL d   1      33.241  19.457 -25.048  0.00  0.00     0.002 A 
ENDROOT
BRANCH   1   7
ATOM      7  C   UNL d   1      33.119  20.497 -22.811  0.00  0.00     0.112 A 
ATOM      8  N   UNL d   1      33.241  20.182 -22.069  0.00  0.00    -0.238 NA
ATOM      9  C   UNL d   1      33.126  20.788 -21.519  0.00  0.00     0.088 A 
ATOM     10  C   UNL d   1      33.173  20.801 -20.689  0.00  0.00     0.020 A 
ATOM     11  C   UNL d   1      32.934  21.472 -21.931  0.00  0.00     0.049 A 
ATOM     12  C   UNL d   1      33.027  21.498 -20.281  0.00  0.00     0.002 A 
ATOM     13  C   UNL d   1      32.833  22.189 -20.692  0.00  0.00     0.001 A 
ATOM     14  C   UNL d   1      32.786  22.176 -21.522  0.00  0.00     0.008 A 
ATOM     15  S   UNL d   1      32.930  21.289 -22.730  0.00  0.00    -0.066 SA
ENDBRANCH   1   7
BRANCH   2  16
ATOM     16  N   UNL d   1      33.188  18.854 -22.954  0.00  0.00    -0.206 NA
ATOM     17  C   UNL d   1      32.856  18.089 -22.986  0.00  0.00     0.304 C 
ATOM     18  O   UNL d   1      32.849  17.617 -22.312  0.00  0.00    -0.263 OA
BRANCH  17  19
ATOM     19  C   UNL d   1      32.533  17.802 -23.689  0.00  0.00     0.182 A 
ATOM     20  O   UNL d   1      31.744  17.954 -23.877  0.00  0.00    -0.296 OA
ATOM     21  C   UNL d   1      31.422  17.667 -24.581  0.00  0.00     0.150 A 
ATOM     22  C   UNL d   1      31.889  17.229 -25.097  0.00  0.00     0.149 A 
ATOM     23  O   UNL d   1      32.680  17.077 -24.909  0.00  0.00    -0.299 OA
ATOM     24  C   UNL d   1      33.001  17.364 -24.205  0.00  0.00     0.152 A 
ENDBRANCH  17  19
ENDBRANCH   2  16
TORSDOF 3
ENDMDL
MODEL 4
REMARK VINA RESULT:      -0.7      3.764      5.910
REMARK  3 active torsions:
REMARK  status: ('A' for Active; 'I' for Inactive)
REMARK    1  A    between atoms: C_4  and  C_1 
REMARK    2  A    between atoms: C_5  and  C_6 
REMARK       I    between atoms: C_6  and  N_7 
REMARK    3  A    between atoms: N_7  and  C_8 
ROOT
ATOM      1  C   UNL d   1      33.214  21.252 -23.005  0.00  0.00     0.042 A 
ATOM      2  C   UNL d   1      33.232  21.617 -22.269  0.00  0.00     0.087 A 
ATOM      3  C   UNL d   1      33.205  21.709 -23.698  0.00  0.00     0.004 A 
ATOM      4  C   UNL d   1      33.241  22.437 -22.217  0.00  0.00     0.019 A 
ATOM      5  C   UNL d   1      33.214  22.532 -23.638  0.00  0.00     0.000 A 
ATOM      6  C   UNL d   1      33.232  22.893 -22.896  0.00  0.00     0.002 A 
ENDROOT
BRANCH   1   7
ATOM      7  C   UNL d   1      33.204  20.429 -23.065  0.00  0.00     0.112 A 
ATOM      8  N   UNL d   1      33.176  19.854 -22.487  0.00  0.00    -0.238 NA
ATOM      9  C   UNL d   1      33.179  19.120 -22.865  0.00  0.00     0.088 A 
ATOM     10  C   UNL d   1      33.157  18.344 -22.569  0.00  0.00     0.020 A 
ATOM     11  C   UNL d   1      33.210  19.251 -23.675  0.00  0.00     0.049 A 
ATOM     12  C   UNL d   1      33.167  17.706 -23.088  0.00  0.00     0.002 A 
ATOM     13  C   UNL d   1      33.198  17.835 -23.904  0.00  0.00     0.001 A 
ATOM     14  C   UNL d   1      33.220  18.611 -24.199  0.00  0.00     0.008 A 
ATOM     15  S   UNL d   1      33.226  20.062 -23.796  0.00  0.00    -0.066 SA
ENDBRANCH   1   7
BRANCH   2  16
ATOM     16  N   UNL d   1      33.241  21.153 -21.582  0.00  0.00    -0.206 NA
ATOM     17  C   UNL d   1      32.901  21.449 -20.879  0.00  0.00     0.304 C 
ATOM     18  O   UNL d   1      32.910  20.988 -20.197  0.00  0.00    -0.263 OA
BRANCH  17  19
ATOM     19  C   UNL d   1      32.557  22.198 -20.863  0.00  0.00     0.182 A 
ATOM     20  O   UNL d   1      32.985  22.846 -20.583  0.00  0.00    -0.296 OA
ATOM     21  C   UNL d   1      32.640  23.596 -20.567  0.00  0.00     0.150 A 
ATOM     22  C   UNL d   1      31.868  23.697 -20.832  0.00  0.00     0.149 A 
ATOM     23  O   UNL d   1      31.440  23.049 -21.112  0.00  0.00    -0.299 OA
ATOM     24  C   UNL d   1      31.785  22.299 -21.128  0.00  0.00     0.152 A 
ENDBRANCH  17  19
ENDBRANCH   2  16
TORSDOF 3
ENDMDL
MODEL 5
REMARK VINA RESULT:      -0.7      1.446      3.888
REMARK  3 active torsions:
REMARK  status: ('A' for Active; 'I' for Inactive)
REMARK    1  A    between atoms: C_4  and  C_1 
REMARK    2  A    between atoms: C_5  and  C_6 
REMARK       I    between atoms: C_6  and  N_7 
REMARK    3  A    between atoms: N_7  and  C_8 
ROOT
ATOM      1  C   UNL d   1      31.233  16.048 -24.137  0.00  0.00     0.042 A 
ATOM      2  C   UNL d   1      31.515  16.708 -24.539  0.00  0.00     0.087 A 
ATOM      3  C   UNL d   1      31.762  15.489 -23.826  0.00  0.00     0.004 A 
ATOM      4  C   UNL d   1      32.324  16.816 -24.633  0.00  0.00     0.019 A 
ATOM      5  C   UNL d   1      32.573  15.605 -23.925  0.00  0.00     0.000 A 
ATOM      6  C   UNL d   1      32.851  16.269 -24.329  0.00  0.00     0.002 A 
ENDROOT
BRANCH   1   7
ATOM      7  C   UNL d   1      30.422  15.932 -24.039  0.00  0.00     0.112 A 
ATOM      8  N   UNL d   1      29.815  15.931 -24.583  0.00  0.00    -0.238 NA
ATOM      9  C   UNL d   1      29.112  15.786 -24.175  0.00  0.00     0.088 A 
ATOM     10  C   UNL d   1      28.324  15.722 -24.430  0.00  0.00     0.020 A 
ATOM     11  C   UNL d   1      29.295  15.700 -23.379  0.00  0.00     0.049 A 
ATOM     12  C   UNL d   1      27.727  15.572 -23.887  0.00  0.00     0.002 A 
ATOM     13  C   UNL d   1      27.907  15.485 -23.084  0.00  0.00     0.001 A 
ATOM     14  C   UNL d   1      28.696  15.549 -22.828  0.00  0.00     0.008 A 
ATOM     15  S   UNL d   1      30.106  15.791 -23.297  0.00  0.00    -0.066 SA
ENDBRANCH   1   7
BRANCH   2  16
ATOM     16  N   UNL d   1      30.980  17.260 -24.846  0.00  0.00    -0.206 NA
ATOM     17  C   UNL d   1      31.149  18.075 -24.791  0.00  0.00     0.304 C 
ATOM     18  O   UNL d   1      30.617  18.624 -25.097  0.00  0.00    -0.263 OA
BRANCH  17  19
ATOM     19  C   UNL d   1      31.846  18.335 -24.434  0.00  0.00     0.182 A 
ATOM     20  O   UNL d   1      31.874  18.458 -23.619  0.00  0.00    -0.296 OA
ATOM     21  C   UNL d   1      32.572  18.718 -23.262  0.00  0.00     0.150 A 
ATOM     22  C   UNL d   1      33.241  18.854 -23.720  0.00  0.00     0.149 A 
ATOM     23  O   UNL d   1      33.213  18.730 -24.537  0.00  0.00    -0.299 OA
ATOM     24  C   UNL d   1      32.515  18.470 -24.893  0.00  0.00     0.152 A 
ENDBRANCH  17  19
ENDBRANCH   2  16
TORSDOF 3
ENDMDL
