MODEL 1
REMARK VINA RESULT:      79.9      0.000      0.000
REMARK  7 active torsions:
REMARK  status: ('A' for Active; 'I' for Inactive)
REMARK    1  A    between atoms: N_3  and  C_1 
REMARK       I    between atoms: C_7  and  N_3 
REMARK    2  A    between atoms: C_11  and  N_3 
REMARK    3  A    between atoms: S_5  and  C_10 
REMARK    4  A    between atoms: C_14  and  S_5 
REMARK    5  A    between atoms: C_9  and  C_7 
REMARK    6  A    between atoms: C_10  and  C_9 
REMARK    7  A    between atoms: C_18  and  C_11 
ROOT
ATOM      1  N   UNL d   1     -48.490  29.805  34.229  0.00  0.00    -0.253 N 
ATOM      2  C   UNL d   1     -49.186  29.462  33.914  0.00  0.00     0.267 C 
ATOM      3  O   UNL d   1     -49.736  29.940  33.534  0.00  0.00    -0.267 OA
ENDROOT
BRANCH   1   4
ATOM      4  C   UNL d   1     -48.365  30.616  34.154  0.00  0.00     0.182 A 
ATOM      5  N   UNL d   1     -47.632  31.006  34.189  0.00  0.00    -0.219 NA
ATOM      6  C   UNL d   1     -47.766  31.819  34.086  0.00  0.00     0.117 A 
ATOM      7  C   UNL d   1     -47.246  32.449  34.072  0.00  0.00     0.158 A 
ATOM      8  C   UNL d   1     -48.572  31.932  33.989  0.00  0.00     0.052 A 
ATOM      9  F   UNL d   1     -46.442  32.339  34.168  0.00  0.00    -0.203 F 
ATOM     10  C   UNL d   1     -47.540  33.203  33.959  0.00  0.00     0.031 A 
ATOM     11  C   UNL d   1     -48.350  33.327  33.861  0.00  0.00     0.003 A 
ATOM     12  C   UNL d   1     -48.865  32.686  33.877  0.00  0.00     0.008 A 
ATOM     13  S   UNL d   1     -48.947  31.195  34.030  0.00  0.00    -0.048 SA
ENDBRANCH   1   4
BRANCH   1  14
ATOM     14  C   UNL d   1     -47.934  29.333  34.612  0.00  0.00     0.086 C 
BRANCH  14  15
ATOM     15  C   UNL d   1     -47.749  29.471  35.404  0.00  0.00     0.037 A 
ATOM     16  C   UNL d   1     -48.347  29.498  35.969  0.00  0.00     0.100 A 
ATOM     17  N   UNL d   1     -48.162  29.637  36.761  0.00  0.00    -0.242 NA
ATOM     18  C   UNL d   1     -47.380  29.749  36.987  0.00  0.00     0.099 A 
ATOM     19  C   UNL d   1     -46.777  29.723  36.422  0.00  0.00     0.021 A 
ATOM     20  C   UNL d   1     -46.961  29.584  35.630  0.00  0.00     0.005 A 
ENDBRANCH  14  15
ENDBRANCH   1  14
BRANCH   2  21
ATOM     21  C   UNL d   1     -49.309  28.655  33.990  0.00  0.00     0.073 C 
BRANCH  21  22
ATOM     22  C   UNL d   1     -49.413  28.192  33.310  0.00  0.00     0.104 C 
BRANCH  22  23
ATOM     23  S   UNL d   1     -49.968  27.578  33.309  0.00  0.00     0.211 S 
ATOM     24  O   UNL d   1     -50.591  28.139  33.306  0.00  0.00    -0.217 OA
ATOM     25  O   UNL d   1     -49.349  27.020  33.313  0.00  0.00    -0.217 OA
BRANCH  23  26
ATOM     26  C   UNL d   1     -50.527  26.964  33.308  0.00  0.00     0.088 A 
ATOM     27  C   UNL d   1     -51.332  27.144  33.308  0.00  0.00     0.011 A 
ATOM     28  C   UNL d   1     -51.891  26.540  33.307  0.00  0.00     0.001 A 
ATOM     29  C   UNL d   1     -51.643  25.754  33.306  0.00  0.00     0.000 A 
ATOM     30  C   UNL d   1     -50.848  25.572  33.307  0.00  0.00     0.001 A 
ATOM     31  C   UNL d   1     -50.281  26.176  33.308  0.00  0.00     0.011 A 
ENDBRANCH  23  26
ENDBRANCH  22  23
ENDBRANCH  21  22
ENDBRANCH   2  21
TORSDOF 7
ENDMDL
