MODEL 1
REMARK VINA RESULT:      28.3      0.000      0.000
REMARK  5 active torsions:
REMARK  status: ('A' for Active; 'I' for Inactive)
REMARK    1  A    between atoms: C_12  and  N_1 
REMARK    2  A    between atoms: N_7  and  C_5 
REMARK    3  A    between atoms: C_10  and  N_7 
REMARK    4  A    between atoms: O_14  and  C_13 
REMARK    5  A    between atoms: C_19  and  O_14 
ROOT
ATOM      1  N   UNL d   1      46.256 -17.685  43.378  0.00  0.00    -0.212 N 
ATOM      2  C   UNL d   1      45.946 -17.086  43.855  0.00  0.00     0.170 A 
ATOM      3  C   UNL d   1      46.005 -16.374  43.441  0.00  0.00     0.093 A 
ATOM      4  N   UNL d   1      46.508 -17.341  42.666  0.00  0.00    -0.162 NA
ATOM      5  C   UNL d   1      45.735 -15.669  43.784  0.00  0.00     0.169 A 
ATOM      6  C   UNL d   1      46.351 -16.530  42.710  0.00  0.00     0.127 A 
ATOM      7  N   UNL d   1      45.616 -17.103  44.616  0.00  0.00    -0.205 NA
ATOM      8  N   UNL d   1      45.406 -15.686  44.545  0.00  0.00    -0.205 NA
ATOM      9  C   UNL d   1      45.350 -16.401  44.953  0.00  0.00     0.202 A 
ENDROOT
BRANCH   5  10
ATOM     10  N   UNL d   1      45.791 -14.961  43.380  0.00  0.00    -0.225 NA
BRANCH  10  11
ATOM     11  C   UNL d   1      45.900 -14.263  43.788  0.00  0.00     0.106 A 
ATOM     12  C   UNL d   1      45.669 -13.539  43.457  0.00  0.00     0.118 A 
ATOM     13  C   UNL d   1      45.777 -12.841  43.863  0.00  0.00     0.026 A 
ATOM     14  C   UNL d   1      46.125 -12.857  44.623  0.00  0.00     0.002 A 
ATOM     15  C   UNL d   1      46.353 -13.560  44.954  0.00  0.00     0.002 A 
ATOM     16  C   UNL d   1      46.242 -14.271  44.539  0.00  0.00     0.021 A 
BRANCH  12  17
ATOM     17  O   UNL d   1      45.326 -13.531  42.706  0.00  0.00    -0.304 OA
BRANCH  17  18
ATOM     18  C   UNL d   1      45.023 -12.823  42.397  0.00  0.00     0.123 C 
ATOM     19  C   UNL d   1      44.674 -12.818  41.653  0.00  0.00     0.029 C 
ENDBRANCH  17  18
ENDBRANCH  12  17
ENDBRANCH  10  11
ENDBRANCH   5  10
BRANCH   1  20
ATOM     20  C   UNL d   1      46.307 -18.486  43.575  0.00  0.00     0.085 A 
ATOM     21  C   UNL d   1      46.296 -19.058  42.975  0.00  0.00     0.019 A 
ATOM     22  C   UNL d   1      46.347 -19.855  43.169  0.00  0.00     0.002 A 
ATOM     23  C   UNL d   1      46.409 -20.087  43.966  0.00  0.00     0.000 A 
ATOM     24  C   UNL d   1      46.420 -19.520  44.558  0.00  0.00     0.002 A 
ATOM     25  C   UNL d   1      46.370 -18.718  44.372  0.00  0.00     0.019 A 
ENDBRANCH   1  20
TORSDOF 5
ENDMDL
