MODEL 1
REMARK VINA RESULT:      94.7      0.000      0.000
REMARK  6 active torsions:
REMARK  status: ('A' for Active; 'I' for Inactive)
REMARK    1  A    between atoms: N_2  and  C_1 
REMARK    2  A    between atoms: N_7  and  C_1 
REMARK    3  A    between atoms: C_5  and  C_3 
REMARK    4  A    between atoms: C_6  and  C_5 
REMARK       I    between atoms: N_8  and  C_6 
REMARK    5  A    between atoms: C_18  and  N_7 
REMARK    6  A    between atoms: C_9  and  N_8 
ROOT
ATOM      1  N   UNL d   1     -55.328-100.036 -42.685  0.00  0.00    -0.278 N 
ATOM      2  C   UNL d   1     -55.124-100.403 -41.981  0.00  0.00     0.127 A 
ATOM      3  C   UNL d   1     -54.939 -99.935 -41.308  0.00  0.00     0.274 A 
ATOM      4  N   UNL d   1     -54.960 -99.113 -41.346  0.00  0.00    -0.318 N 
ATOM      5  O   UNL d   1     -54.735-100.303 -40.602  0.00  0.00    -0.266 OA
ATOM      6  C   UNL d   1     -55.352 -99.213 -42.736  0.00  0.00     0.101 A 
ATOM      7  C   UNL d   1     -55.169 -98.757 -42.070  0.00  0.00     0.094 A 
ATOM      8  H   UNL d   1     -54.779 -98.648 -40.691  0.00  0.00     0.169 HD
ENDROOT
BRANCH   2   9
ATOM      9  C   UNL d   1     -55.102-101.216 -41.934  0.00  0.00     0.083 C 
BRANCH   9  10
ATOM     10  C   UNL d   1     -55.208-101.590 -41.211  0.00  0.00     0.259 C 
ATOM     11  N   UNL d   1     -54.831-101.294 -40.536  0.00  0.00    -0.321 N 
ATOM     12  H   UNL d   1     -54.348-100.623 -40.589  0.00  0.00     0.169 HD
ATOM     13  O   UNL d   1     -55.690-102.261 -41.159  0.00  0.00    -0.267 OA
BRANCH  11  14
ATOM     14  C   UNL d   1     -54.944-101.677 -39.816  0.00  0.00     0.059 A 
ATOM     15  C   UNL d   1     -55.173-101.220 -39.151  0.00  0.00     0.016 A 
ATOM     16  C   UNL d   1     -55.289-101.594 -38.429  0.00  0.00     0.001 A 
ATOM     17  C   UNL d   1     -55.283-100.402 -39.218  0.00  0.00     0.002 C 
ATOM     18  C   UNL d   1     -55.177-102.425 -38.361  0.00  0.00     0.000 A 
ATOM     19  C   UNL d   1     -54.950-102.879 -39.022  0.00  0.00     0.002 A 
ATOM     20  C   UNL d   1     -55.295-102.798 -37.630  0.00  0.00     0.000 C 
ATOM     21  C   UNL d   1     -54.834-102.493 -39.753  0.00  0.00     0.017 A 
ENDBRANCH  11  14
ENDBRANCH   9  10
ENDBRANCH   2   9
BRANCH   1  22
ATOM     22  C   UNL d   1     -55.510-100.492 -43.345  0.00  0.00     0.184 C 
ATOM     23  S   UNL d   1     -56.289-100.513 -43.607  0.00  0.00    -0.040 SA
BRANCH  22  24
ATOM     24  N   UNL d   1     -54.918-100.915 -43.727  0.00  0.00    -0.331 N 
ATOM     25  H   UNL d   1     -54.259-101.149 -43.297  0.00  0.00     0.168 HD
BRANCH  24  26
ATOM     26  C   UNL d   1     -54.979-101.104 -44.524  0.00  0.00     0.058 A 
ATOM     27  C   UNL d   1     -54.720-100.573 -45.094  0.00  0.00     0.017 A 
ATOM     28  C   UNL d   1     -54.780-100.761 -45.890  0.00  0.00     0.002 A 
ATOM     29  C   UNL d   1     -55.102-101.487 -46.112  0.00  0.00     0.000 A 
ATOM     30  C   UNL d   1     -55.363-102.021 -45.541  0.00  0.00     0.002 A 
ATOM     31  C   UNL d   1     -55.299-101.825 -44.744  0.00  0.00     0.017 A 
ENDBRANCH  24  26
ENDBRANCH  22  24
ENDBRANCH   1  22
TORSDOF 6
ENDMDL
MODEL 2
REMARK VINA RESULT:      95.6      3.603      4.381
REMARK  6 active torsions:
REMARK  status: ('A' for Active; 'I' for Inactive)
REMARK    1  A    between atoms: N_2  and  C_1 
REMARK    2  A    between atoms: N_7  and  C_1 
REMARK    3  A    between atoms: C_5  and  C_3 
REMARK    4  A    between atoms: C_6  and  C_5 
REMARK       I    between atoms: N_8  and  C_6 
REMARK    5  A    between atoms: C_18  and  N_7 
REMARK    6  A    between atoms: C_9  and  N_8 
ROOT
ATOM      1  N   UNL d   1     -58.291 -99.229 -44.857  0.00  0.00    -0.278 N 
ATOM      2  C   UNL d   1     -58.694 -99.268 -44.144  0.00  0.00     0.127 A 
ATOM      3  C   UNL d   1     -59.504 -99.048 -44.112  0.00  0.00     0.274 A 
ATOM      4  N   UNL d   1     -59.899 -98.794 -44.788  0.00  0.00    -0.318 N 
ATOM      5  O   UNL d   1     -59.907 -99.087 -43.398  0.00  0.00    -0.266 OA
ATOM      6  C   UNL d   1     -58.676 -98.976 -45.541  0.00  0.00     0.101 A 
ATOM      7  C   UNL d   1     -59.474 -98.760 -45.504  0.00  0.00     0.094 A 
ATOM      8  H   UNL d   1     -60.693 -98.576 -44.765  0.00  0.00     0.169 HD
ENDROOT
BRANCH   2   9
ATOM      9  C   UNL d   1     -58.311 -99.519 -43.469  0.00  0.00     0.083 C 
BRANCH   9  10
ATOM     10  C   UNL d   1     -58.639 -99.376 -42.732  0.00  0.00     0.259 C 
ATOM     11  N   UNL d   1     -58.310 -99.731 -42.059  0.00  0.00    -0.321 N 
ATOM     12  H   UNL d   1     -57.652-100.228 -42.131  0.00  0.00     0.169 HD
ATOM     13  O   UNL d   1     -59.297 -98.879 -42.661  0.00  0.00    -0.267 OA
BRANCH  11  14
ATOM     14  C   UNL d   1     -58.648 -99.581 -41.324  0.00  0.00     0.059 A 
ATOM     15  C   UNL d   1     -59.212-100.125 -41.023  0.00  0.00     0.016 A 
ATOM     16  C   UNL d   1     -59.554 -99.982 -40.290  0.00  0.00     0.001 A 
ATOM     17  C   UNL d   1     -59.423-100.797 -41.457  0.00  0.00     0.002 C 
ATOM     18  C   UNL d   1     -59.339 -99.299 -39.849  0.00  0.00     0.000 A 
ATOM     19  C   UNL d   1     -58.779 -98.758 -40.148  0.00  0.00     0.002 A 
ATOM     20  C   UNL d   1     -59.687 -99.160 -39.110  0.00  0.00     0.000 C 
ATOM     21  C   UNL d   1     -58.435 -98.908 -40.894  0.00  0.00     0.017 A 
ENDBRANCH  11  14
ENDBRANCH   9  10
ENDBRANCH   2   9
BRANCH   1  22
ATOM     22  C   UNL d   1     -57.498 -99.445 -44.890  0.00  0.00     0.184 C 
ATOM     23  S   UNL d   1     -57.297-100.154 -45.255  0.00  0.00    -0.040 SA
BRANCH  22  24
ATOM     24  N   UNL d   1     -56.926 -98.955 -44.561  0.00  0.00    -0.331 N 
ATOM     25  H   UNL d   1     -57.066 -98.146 -44.533  0.00  0.00     0.168 HD
BRANCH  24  26
ATOM     26  C   UNL d   1     -56.225 -99.262 -44.264  0.00  0.00     0.058 A 
ATOM     27  C   UNL d   1     -56.084-100.070 -44.290  0.00  0.00     0.017 A 
ATOM     28  C   UNL d   1     -55.384-100.377 -43.993  0.00  0.00     0.002 A 
ATOM     29  C   UNL d   1     -54.824 -99.867 -43.668  0.00  0.00     0.000 A 
ATOM     30  C   UNL d   1     -54.963 -99.055 -43.640  0.00  0.00     0.002 A 
ATOM     31  C   UNL d   1     -55.669 -98.755 -43.940  0.00  0.00     0.017 A 
ENDBRANCH  24  26
ENDBRANCH  22  24
ENDBRANCH   1  22
TORSDOF 6
ENDMDL
