MODEL 1
REMARK VINA RESULT:      66.1      0.000      0.000
REMARK  5 active torsions:
REMARK  status: ('A' for Active; 'I' for Inactive)
REMARK    1  A    between atoms: N_2  and  S_1 
REMARK    2  A    between atoms: C_11  and  S_1 
REMARK    3  A    between atoms: C_3  and  N_9 
REMARK    4  A    between atoms: N_9  and  N_16 
REMARK    5  A    between atoms: N_16  and  C_23 
ROOT
ATOM      1  C   UNL d   1     -48.905  28.804  34.386  0.00  0.00     0.104 A 
ATOM      2  C   UNL d   1     -49.239  28.892  33.629  0.00  0.00     0.015 A 
ATOM      3  C   UNL d   1     -49.065  28.114  34.811  0.00  0.00     0.015 A 
ATOM      4  C   UNL d   1     -49.868  27.630  33.737  0.00  0.00     0.103 A 
ATOM      5  C   UNL d   1     -49.537  27.537  34.495  0.00  0.00     0.022 A 
ATOM      6  C   UNL d   1     -49.714  28.313  33.309  0.00  0.00     0.022 A 
ENDROOT
BRANCH   1   7
ATOM      7  S   UNL d   1     -48.423  29.385  34.717  0.00  0.00     0.271 S 
ATOM      8  O   UNL d   1     -48.989  29.957  34.516  0.00  0.00    -0.200 OA
ATOM      9  O   UNL d   1     -47.869  28.829  34.915  0.00  0.00    -0.200 OA
BRANCH   7  10
ATOM     10  N   UNL d   1     -47.941  29.978  35.050  0.00  0.00    -0.231 N 
ATOM     11  C   UNL d   1     -47.879  30.780  34.822  0.00  0.00     0.075 A 
ATOM     12  C   UNL d   1     -47.331  31.151  35.313  0.00  0.00     0.018 A 
ATOM     13  C   UNL d   1     -48.267  31.199  34.222  0.00  0.00     0.018 A 
ATOM     14  C   UNL d   1     -47.151  31.946  35.224  0.00  0.00     0.002 A 
ATOM     15  C   UNL d   1     -47.045  30.575  35.855  0.00  0.00     0.021 A 
ATOM     16  C   UNL d   1     -47.528  32.379  34.631  0.00  0.00     0.000 A 
ATOM     17  C   UNL d   1     -48.086  31.999  34.132  0.00  0.00     0.002 A 
ATOM     18  C   UNL d   1     -47.413  29.879  35.692  0.00  0.00     0.092 A 
ENDBRANCH   7  10
ENDBRANCH   1   7
BRANCH   4  19
ATOM     19  N   UNL d   1     -50.353  27.046  33.404  0.00  0.00    -0.148 NA
BRANCH  19  20
ATOM     20  N   UNL d   1     -50.086  26.288  33.340  0.00  0.00    -0.138 NA
BRANCH  20  21
ATOM     21  C   UNL d   1     -50.621  25.655  33.332  0.00  0.00     0.218 A 
ATOM     22  C   UNL d   1     -50.350  24.905  33.315  0.00  0.00     0.305 A 
ATOM     23  N   UNL d   1     -50.887  24.263  33.306  0.00  0.00    -0.177 NA
ATOM     24  O   UNL d   1     -49.530  24.768  33.306  0.00  0.00    -0.263 OA
ATOM     25  C   UNL d   1     -51.675  24.389  33.315  0.00  0.00     0.226 A 
ATOM     26  N   UNL d   1     -51.986  25.151  33.333  0.00  0.00    -0.177 NA
ATOM     27  S   UNL d   1     -52.208  23.719  33.306  0.00  0.00    -0.037 SA
ATOM     28  C   UNL d   1     -51.447  25.796  33.341  0.00  0.00     0.305 A 
ATOM     29  O   UNL d   1     -51.737  26.571  33.359  0.00  0.00    -0.263 OA
ENDBRANCH  20  21
ENDBRANCH  19  20
ENDBRANCH   4  19
TORSDOF 5
ENDMDL
MODEL 2
REMARK VINA RESULT:      67.4      0.744      1.332
REMARK  5 active torsions:
REMARK  status: ('A' for Active; 'I' for Inactive)
REMARK    1  A    between atoms: N_2  and  S_1 
REMARK    2  A    between atoms: C_11  and  S_1 
REMARK    3  A    between atoms: C_3  and  N_9 
REMARK    4  A    between atoms: N_9  and  N_16 
REMARK    5  A    between atoms: N_16  and  C_23 
ROOT
ATOM      1  C   UNL d   1     -48.630  28.004  34.701  0.00  0.00     0.104 A 
ATOM      2  C   UNL d   1     -48.248  27.308  34.453  0.00  0.00     0.015 A 
ATOM      3  C   UNL d   1     -49.450  28.055  34.621  0.00  0.00     0.015 A 
ATOM      4  C   UNL d   1     -49.484  26.744  34.062  0.00  0.00     0.103 A 
ATOM      5  C   UNL d   1     -49.872  27.438  34.308  0.00  0.00     0.022 A 
ATOM      6  C   UNL d   1     -48.669  26.687  34.138  0.00  0.00     0.022 A 
ENDROOT
BRANCH   1   7
ATOM      7  S   UNL d   1     -48.211  28.638  35.021  0.00  0.00     0.271 S 
ATOM      8  O   UNL d   1     -47.552  28.420  34.568  0.00  0.00    -0.200 OA
ATOM      9  O   UNL d   1     -48.853  28.853  35.466  0.00  0.00    -0.200 OA
BRANCH   7  10
ATOM     10  N   UNL d   1     -47.781  29.276  35.341  0.00  0.00    -0.231 N 
ATOM     11  C   UNL d   1     -47.782  30.074  35.091  0.00  0.00     0.075 A 
ATOM     12  C   UNL d   1     -47.270  30.502  35.576  0.00  0.00     0.018 A 
ATOM     13  C   UNL d   1     -48.196  30.444  34.477  0.00  0.00     0.018 A 
ATOM     14  C   UNL d   1     -47.153  31.305  35.467  0.00  0.00     0.002 A 
ATOM     15  C   UNL d   1     -46.944  29.966  36.136  0.00  0.00     0.021 A 
ATOM     16  C   UNL d   1     -47.558  31.690  34.858  0.00  0.00     0.000 A 
ATOM     17  C   UNL d   1     -48.079  31.253  34.366  0.00  0.00     0.002 A 
ATOM     18  C   UNL d   1     -47.253  29.238  35.990  0.00  0.00     0.092 A 
ENDBRANCH   7  10
ENDBRANCH   1   7
BRANCH   4  19
ATOM     19  N   UNL d   1     -49.906  26.107  33.740  0.00  0.00    -0.148 NA
BRANCH  19  20
ATOM     20  N   UNL d   1     -50.585  26.239  33.327  0.00  0.00    -0.138 NA
BRANCH  20  21
ATOM     21  C   UNL d   1     -51.190  25.672  33.322  0.00  0.00     0.218 A 
ATOM     22  C   UNL d   1     -51.953  25.903  33.318  0.00  0.00     0.305 A 
ATOM     23  N   UNL d   1     -52.566  25.334  33.313  0.00  0.00    -0.177 NA
ATOM     24  O   UNL d   1     -52.133  26.714  33.320  0.00  0.00    -0.263 OA
ATOM     25  C   UNL d   1     -52.399  24.553  33.311  0.00  0.00     0.226 A 
ATOM     26  N   UNL d   1     -51.621  24.282  33.315  0.00  0.00    -0.177 NA
ATOM     27  S   UNL d   1     -53.039  23.985  33.306  0.00  0.00    -0.037 SA
ATOM     28  C   UNL d   1     -51.005  24.855  33.320  0.00  0.00     0.305 A 
ATOM     29  O   UNL d   1     -50.215  24.606  33.324  0.00  0.00    -0.263 OA
ENDBRANCH  20  21
ENDBRANCH  19  20
ENDBRANCH   4  19
TORSDOF 5
ENDMDL
