MODEL 1
REMARK VINA RESULT:      -4.8      0.000      0.000
REMARK  7 active torsions:
REMARK  status: ('A' for Active; 'I' for Inactive)
REMARK    1  A    between atoms: C_9  and  N_1 
REMARK    2  A    between atoms: O_18  and  C_6 
REMARK    3  A    between atoms: C_7  and  C_8 
REMARK    4  A    between atoms: C_8  and  O_12 
REMARK    5  A    between atoms: O_12  and  C_9 
REMARK    6  A    between atoms: O_20  and  C_10 
REMARK    7  A    between atoms: O_19  and  C_11 
ROOT
ATOM      1  C   UNL d   1      58.256   0.128  29.823  0.00  0.00     0.302 C 
ATOM      2  O   UNL d   1      57.732   0.533  29.328  0.00  0.00    -0.259 OA
ENDROOT
BRANCH   1   3
ATOM      3  C   UNL d   1      58.874  -0.315  29.499  0.00  0.00     0.068 A 
ATOM      4  C   UNL d   1      58.736  -1.113  29.267  0.00  0.00     0.032 A 
ATOM      5  C   UNL d   1      59.359  -1.535  28.948  0.00  0.00     0.118 A 
ATOM      6  C   UNL d   1      60.105  -1.200  28.853  0.00  0.00     0.138 A 
ATOM      7  C   UNL d   1      60.226  -0.418  29.084  0.00  0.00     0.118 A 
ATOM      8  C   UNL d   1      59.611   0.020  29.406  0.00  0.00     0.032 A 
BRANCH   5   9
ATOM      9  O   UNL d   1      59.234  -2.332  28.713  0.00  0.00    -0.326 OA
ATOM     10  C   UNL d   1      58.479  -2.662  28.779  0.00  0.00     0.181 C 
ENDBRANCH   5   9
BRANCH   6  11
ATOM     11  O   UNL d   1      60.724  -1.649  28.526  0.00  0.00    -0.324 OA
ATOM     12  C   UNL d   1      60.956  -2.364  28.857  0.00  0.00     0.182 C 
ENDBRANCH   6  11
BRANCH   7  13
ATOM     13  O   UNL d   1      60.982  -0.074  28.988  0.00  0.00    -0.326 OA
ATOM     14  C   UNL d   1      61.133   0.682  29.258  0.00  0.00     0.181 C 
ENDBRANCH   7  13
ENDBRANCH   1   3
BRANCH   1  15
ATOM     15  O   UNL d   1      58.162   0.163  30.642  0.00  0.00    -0.251 OA
BRANCH  15  16
ATOM     16  C   UNL d   1      57.643  -0.357  31.020  0.00  0.00     0.233 C 
BRANCH  16  17
ATOM     17  N   UNL d   1      57.294  -0.144  31.741  0.00  0.00    -0.150 N 
ATOM     18  N   UNL d   1      57.617   0.472  32.189  0.00  0.00    -0.055 NA
ATOM     19  N   UNL d   1      57.268   0.682  32.905  0.00  0.00    -0.130 NA
ATOM     20  C   UNL d   1      56.604   0.284  33.174  0.00  0.00     0.109 A 
ATOM     21  C   UNL d   1      56.282  -0.332  32.726  0.00  0.00     0.077 A 
ATOM     22  C   UNL d   1      56.256   0.494  33.890  0.00  0.00     0.021 A 
ATOM     23  C   UNL d   1      56.620  -0.555  32.004  0.00  0.00     0.285 A 
ATOM     24  C   UNL d   1      55.613  -0.734  32.994  0.00  0.00     0.006 A 
ATOM     25  O   UNL d   1      56.302  -1.165  31.559  0.00  0.00    -0.265 OA
ATOM     26  C   UNL d   1      55.266  -0.523  33.710  0.00  0.00     0.000 A 
ATOM     27  C   UNL d   1      55.589   0.095  34.161  0.00  0.00     0.002 A 
ENDBRANCH  16  17
ENDBRANCH  15  16
ENDBRANCH   1  15
TORSDOF 7
ENDMDL
MODEL 2
REMARK VINA RESULT:      -4.3      1.586      5.435
REMARK  7 active torsions:
REMARK  status: ('A' for Active; 'I' for Inactive)
REMARK    1  A    between atoms: C_9  and  N_1 
REMARK    2  A    between atoms: O_18  and  C_6 
REMARK    3  A    between atoms: C_7  and  C_8 
REMARK    4  A    between atoms: C_8  and  O_12 
REMARK    5  A    between atoms: O_12  and  C_9 
REMARK    6  A    between atoms: O_20  and  C_10 
REMARK    7  A    between atoms: O_19  and  C_11 
ROOT
ATOM      1  C   UNL d   1      56.308  -0.935  32.200  0.00  0.00     0.302 C 
ATOM      2  O   UNL d   1      56.107  -1.733  32.123  0.00  0.00    -0.259 OA
ENDROOT
BRANCH   1   3
ATOM      3  C   UNL d   1      56.139  -0.531  32.900  0.00  0.00     0.068 A 
ATOM      4  C   UNL d   1      55.347  -0.508  33.186  0.00  0.00     0.032 A 
ATOM      5  C   UNL d   1      55.198  -0.103  33.880  0.00  0.00     0.118 A 
ATOM      6  C   UNL d   1      55.798   0.276  34.297  0.00  0.00     0.138 A 
ATOM      7  C   UNL d   1      56.569   0.246  34.006  0.00  0.00     0.118 A 
ATOM      8  C   UNL d   1      56.736  -0.157  33.310  0.00  0.00     0.032 A 
BRANCH   5   9
ATOM      9  O   UNL d   1      54.412  -0.074  34.174  0.00  0.00    -0.326 OA
ATOM     10  C   UNL d   1      53.874   0.462  33.847  0.00  0.00     0.181 C 
ENDBRANCH   5   9
BRANCH   6  11
ATOM     11  O   UNL d   1      55.623   0.682  35.002  0.00  0.00    -0.324 OA
ATOM     12  C   UNL d   1      55.938   0.445  35.722  0.00  0.00     0.182 C 
ENDBRANCH   6  11
BRANCH   7  13
ATOM     13  O   UNL d   1      57.181   0.629  34.427  0.00  0.00    -0.326 OA
ATOM     14  C   UNL d   1      57.934   0.681  34.114  0.00  0.00     0.181 C 
ENDBRANCH   7  13
ENDBRANCH   1   3
BRANCH   1  15
ATOM     15  O   UNL d   1      56.679  -0.540  31.577  0.00  0.00    -0.251 OA
BRANCH  15  16
ATOM     16  C   UNL d   1      57.184  -0.953  31.071  0.00  0.00     0.233 C 
BRANCH  16  17
ATOM     17  N   UNL d   1      57.631  -0.543  30.506  0.00  0.00    -0.150 N 
ATOM     18  N   UNL d   1      57.430   0.234  30.305  0.00  0.00    -0.055 NA
ATOM     19  N   UNL d   1      57.876   0.639  29.744  0.00  0.00    -0.130 NA
ATOM     20  C   UNL d   1      58.516   0.276  29.383  0.00  0.00     0.109 A 
ATOM     21  C   UNL d   1      58.717  -0.500  29.584  0.00  0.00     0.077 A 
ATOM     22  C   UNL d   1      58.960   0.682  28.822  0.00  0.00     0.021 A 
ATOM     23  C   UNL d   1      58.279  -0.922  30.147  0.00  0.00     0.285 A 
ATOM     24  C   UNL d   1      59.361  -0.868  29.222  0.00  0.00     0.006 A 
ATOM     25  O   UNL d   1      58.478  -1.691  30.345  0.00  0.00    -0.265 OA
ATOM     26  C   UNL d   1      59.806  -0.461  28.661  0.00  0.00     0.000 A 
ATOM     27  C   UNL d   1      59.604   0.319  28.459  0.00  0.00     0.002 A 
ENDBRANCH  16  17
ENDBRANCH  15  16
ENDBRANCH   1  15
TORSDOF 7
ENDMDL
MODEL 3
REMARK VINA RESULT:      -3.7      1.604      5.643
REMARK  7 active torsions:
REMARK  status: ('A' for Active; 'I' for Inactive)
REMARK    1  A    between atoms: C_9  and  N_1 
REMARK    2  A    between atoms: O_18  and  C_6 
REMARK    3  A    between atoms: C_7  and  C_8 
REMARK    4  A    between atoms: C_8  and  O_12 
REMARK    5  A    between atoms: O_12  and  C_9 
REMARK    6  A    between atoms: O_20  and  C_10 
REMARK    7  A    between atoms: O_19  and  C_11 
ROOT
ATOM      1  C   UNL d   1      56.268  -1.080  32.381  0.00  0.00     0.302 C 
ATOM      2  O   UNL d   1      56.234  -1.906  32.401  0.00  0.00    -0.259 OA
ENDROOT
BRANCH   1   3
ATOM      3  C   UNL d   1      56.036  -0.641  33.041  0.00  0.00     0.068 A 
ATOM      4  C   UNL d   1      56.616  -0.221  33.486  0.00  0.00     0.032 A 
ATOM      5  C   UNL d   1      56.369   0.208  34.136  0.00  0.00     0.118 A 
ATOM      6  C   UNL d   1      55.577   0.237  34.358  0.00  0.00     0.138 A 
ATOM      7  C   UNL d   1      55.019  -0.177  33.915  0.00  0.00     0.118 A 
ATOM      8  C   UNL d   1      55.251  -0.614  33.259  0.00  0.00     0.032 A 
BRANCH   5   9
ATOM      9  O   UNL d   1      56.938   0.630  34.587  0.00  0.00    -0.326 OA
ATOM     10  C   UNL d   1      57.743   0.504  34.447  0.00  0.00     0.181 C 
ENDBRANCH   5   9
BRANCH   6  11
ATOM     11  O   UNL d   1      55.348   0.682  35.024  0.00  0.00    -0.324 OA
ATOM     12  C   UNL d   1      55.556   0.452  35.784  0.00  0.00     0.182 C 
ENDBRANCH   6  11
BRANCH   7  13
ATOM     13  O   UNL d   1      54.214  -0.149  34.138  0.00  0.00    -0.326 OA
ATOM     14  C   UNL d   1      53.730   0.456  33.880  0.00  0.00     0.181 C 
ENDBRANCH   7  13
ENDBRANCH   1   3
BRANCH   1  15
ATOM     15  O   UNL d   1      56.534  -0.693  31.703  0.00  0.00    -0.251 OA
BRANCH  15  16
ATOM     16  C   UNL d   1      57.031  -1.087  31.173  0.00  0.00     0.233 C 
BRANCH  16  17
ATOM     17  N   UNL d   1      57.470  -0.655  30.618  0.00  0.00    -0.150 N 
ATOM     18  N   UNL d   1      57.362   0.162  30.552  0.00  0.00    -0.055 NA
ATOM     19  N   UNL d   1      57.800   0.589  30.000  0.00  0.00    -0.130 NA
ATOM     20  C   UNL d   1      58.340   0.207  29.516  0.00  0.00     0.109 A 
ATOM     21  C   UNL d   1      58.448  -0.610  29.583  0.00  0.00     0.077 A 
ATOM     22  C   UNL d   1      58.777   0.634  28.965  0.00  0.00     0.021 A 
ATOM     23  C   UNL d   1      58.016  -1.054  30.133  0.00  0.00     0.285 A 
ATOM     24  C   UNL d   1      58.992  -0.997  29.097  0.00  0.00     0.006 A 
ATOM     25  O   UNL d   1      58.123  -1.863  30.198  0.00  0.00    -0.265 OA
ATOM     26  C   UNL d   1      59.429  -0.569  28.545  0.00  0.00     0.000 A 
ATOM     27  C   UNL d   1      59.320   0.252  28.479  0.00  0.00     0.002 A 
ENDBRANCH  16  17
ENDBRANCH  15  16
ENDBRANCH   1  15
TORSDOF 7
ENDMDL
