MODEL 1
REMARK VINA RESULT:      29.1      0.000      0.000
REMARK  6 active torsions:
REMARK  status: ('A' for Active; 'I' for Inactive)
REMARK    1  A    between atoms: C_7  and  S_1 
REMARK    2  A    between atoms: N_11  and  S_1 
REMARK    3  A    between atoms: C_5  and  C_21 
REMARK    4  A    between atoms: C_22  and  N_11 
REMARK    5  A    between atoms: C_20  and  C_13 
REMARK    6  A    between atoms: C_21  and  C_22 
ROOT
ATOM      1  S   UNL d   1      45.897 -15.201  44.622  0.00  0.00     0.285 S 
ATOM      2  O   UNL d   1      45.854 -14.445  44.954  0.00  0.00    -0.198 OA
ATOM      3  O   UNL d   1      46.646 -15.302  44.952  0.00  0.00    -0.198 OA
ENDROOT
BRANCH   1   4
ATOM      4  C   UNL d   1      45.941 -15.951  44.294  0.00  0.00     0.105 A 
ATOM      5  C   UNL d   1      46.484 -16.098  43.685  0.00  0.00     0.013 A 
ATOM      6  C   UNL d   1      46.525 -16.860  43.356  0.00  0.00     0.001 A 
ATOM      7  C   UNL d   1      46.039 -17.457  43.628  0.00  0.00     0.000 A 
ATOM      8  C   UNL d   1      45.497 -17.307  44.237  0.00  0.00     0.001 A 
ATOM      9  C   UNL d   1      45.448 -16.554  44.570  0.00  0.00     0.013 A 
BRANCH   7  10
ATOM     10  C   UNL d   1      46.079 -18.209  43.303  0.00  0.00     0.000 A 
ATOM     11  C   UNL d   1      45.828 -18.345  42.533  0.00  0.00     0.000 A 
ATOM     12  C   UNL d   1      45.873 -19.105  42.217  0.00  0.00     0.000 A 
ATOM     13  C   UNL d   1      46.167 -19.726  42.670  0.00  0.00     0.000 A 
ATOM     14  C   UNL d   1      46.421 -19.592  43.446  0.00  0.00     0.000 A 
ATOM     15  C   UNL d   1      46.373 -18.830  43.757  0.00  0.00     0.000 A 
ENDBRANCH   7  10
ENDBRANCH   1   4
BRANCH   1  16
ATOM     16  N   UNL d   1      45.147 -15.097  44.294  0.00  0.00    -0.157 NA
BRANCH  16  17
ATOM     17  C   UNL d   1      44.770 -14.378  44.353  0.00  0.00     0.114 C 
BRANCH  17  18
ATOM     18  C   UNL d   1      45.181 -13.674  44.190  0.00  0.00     0.042 C 
BRANCH  18  19
ATOM     19  C   UNL d   1      45.080 -13.306  43.446  0.00  0.00     0.102 A 
ATOM     20  N   UNL d   1      45.680 -13.039  42.952  0.00  0.00    -0.227 NA
ATOM     21  C   UNL d   1      45.344 -12.713  42.274  0.00  0.00     0.148 A 
ATOM     22  C   UNL d   1      45.666 -12.367  41.605  0.00  0.00     0.037 A 
ATOM     23  N   UNL d   1      44.519 -12.775  42.343  0.00  0.00    -0.288 N 
ATOM     24  C   UNL d   1      45.176 -12.082  41.000  0.00  0.00     0.005 A 
ATOM     25  C   UNL d   1      44.363 -12.144  41.068  0.00  0.00     0.019 A 
ATOM     26  C   UNL d   1      44.028 -12.490  41.738  0.00  0.00     0.082 A 
ATOM     27  C   UNL d   1      44.346 -13.142  43.066  0.00  0.00     0.101 A 
ENDBRANCH  18  19
ENDBRANCH  17  18
ENDBRANCH  16  17
ENDBRANCH   1  16
TORSDOF 6
ENDMDL
