MODEL 1
REMARK VINA RESULT:      -2.5      0.000      0.000
REMARK  1 active torsions:
REMARK  status: ('A' for Active; 'I' for Inactive)
REMARK    1  A    between atoms: C_7  and  C_1 
ROOT
ATOM      1  C   UNL d   1      32.776  19.212 -23.291  0.00  0.00     0.062 A 
ATOM      2  C   UNL d   1      32.754  19.597 -22.566  0.00  0.00     0.202 A 
ATOM      3  C   UNL d   1      32.872  20.401 -22.501  0.00  0.00     0.101 A 
ATOM      4  C   UNL d   1      32.923  19.659 -23.982  0.00  0.00     0.103 A 
ATOM      5  C   UNL d   1      33.019  20.848 -23.192  0.00  0.00     0.109 A 
ATOM      6  O   UNL d   1      33.045  20.480 -23.930  0.00  0.00    -0.307 OA
ATOM      7  C   UNL d   1      32.849  20.766 -21.789  0.00  0.00     0.204 A 
ATOM      8  C   UNL d   1      33.140  21.649 -23.153  0.00  0.00     0.067 A 
ATOM      9  C   UNL d   1      32.968  21.572 -21.722  0.00  0.00     0.084 A 
ATOM     10  O   UNL d   1      32.608  19.152 -21.879  0.00  0.00    -0.286 OA
ATOM     11  C   UNL d   1      33.115  22.020 -22.413  0.00  0.00     0.201 A 
ATOM     12  O   UNL d   1      32.703  20.321 -21.102  0.00  0.00    -0.286 OA
ATOM     13  C   UNL d   1      32.948  19.288 -24.723  0.00  0.00     0.027 C 
ATOM     14  O   UNL d   1      33.236  22.835 -22.365  0.00  0.00    -0.286 OA
ENDROOT
BRANCH   1  15
ATOM     15  C   UNL d   1      32.654  18.394 -23.342  0.00  0.00     0.007 A 
ATOM     16  C   UNL d   1      31.953  18.121 -23.645  0.00  0.00     0.027 A 
ATOM     17  C   UNL d   1      31.835  17.307 -23.694  0.00  0.00     0.123 A 
ATOM     18  O   UNL d   1      31.099  17.146 -24.013  0.00  0.00    -0.303 OA
ATOM     19  C   UNL d   1      32.409  16.792 -23.444  0.00  0.00     0.123 A 
ATOM     20  C   UNL d   1      30.760  16.421 -24.158  0.00  0.00     0.125 A 
ATOM     21  C   UNL d   1      31.075  15.674 -24.020  0.00  0.00     0.053 A 
ATOM     22  C   UNL d   1      31.815  15.477 -23.699  0.00  0.00     0.125 A 
ATOM     23  O   UNL d   1      32.407  15.975 -23.443  0.00  0.00    -0.303 OA
ATOM     24  C   UNL d   1      33.120  17.077 -23.137  0.00  0.00     0.027 A 
ATOM     25  C   UNL d   1      33.241  17.896 -23.086  0.00  0.00     0.002 A 
ENDBRANCH   1  15
TORSDOF 1
ENDMDL
MODEL 2
REMARK VINA RESULT:      -0.8      1.013      4.703
REMARK  1 active torsions:
REMARK  status: ('A' for Active; 'I' for Inactive)
REMARK    1  A    between atoms: C_7  and  C_1 
ROOT
ATOM      1  C   UNL d   1      32.879  19.666 -22.723  0.00  0.00     0.062 A 
ATOM      2  C   UNL d   1      32.707  19.407 -23.483  0.00  0.00     0.202 A 
ATOM      3  C   UNL d   1      32.713  18.616 -23.681  0.00  0.00     0.101 A 
ATOM      4  C   UNL d   1      33.065  19.100 -22.136  0.00  0.00     0.103 A 
ATOM      5  C   UNL d   1      32.899  18.051 -23.094  0.00  0.00     0.109 A 
ATOM      6  O   UNL d   1      33.074  18.290 -22.324  0.00  0.00    -0.307 OA
ATOM      7  C   UNL d   1      32.544  18.375 -24.425  0.00  0.00     0.204 A 
ATOM      8  C   UNL d   1      32.911  17.258 -23.266  0.00  0.00     0.067 A 
ATOM      9  C   UNL d   1      32.549  17.582 -24.626  0.00  0.00     0.084 A 
ATOM     10  O   UNL d   1      32.523  19.969 -24.067  0.00  0.00    -0.286 OA
ATOM     11  C   UNL d   1      32.735  17.016 -24.038  0.00  0.00     0.201 A 
ATOM     12  O   UNL d   1      32.359  18.937 -25.009  0.00  0.00    -0.286 OA
ATOM     13  C   UNL d   1      33.241  19.343 -21.363  0.00  0.00     0.027 C 
ATOM     14  O   UNL d   1      32.745  16.211 -24.222  0.00  0.00    -0.286 OA
ENDROOT
BRANCH   1  15
ATOM     15  C   UNL d   1      32.870  20.473 -22.536  0.00  0.00     0.007 A 
ATOM     16  C   UNL d   1      32.490  20.713 -21.862  0.00  0.00     0.027 A 
ATOM     17  C   UNL d   1      32.482  21.517 -21.678  0.00  0.00     0.123 A 
ATOM     18  O   UNL d   1      32.074  21.645 -20.982  0.00  0.00    -0.303 OA
ATOM     19  C   UNL d   1      32.847  22.053 -22.165  0.00  0.00     0.123 A 
ATOM     20  C   UNL d   1      31.933  22.350 -20.602  0.00  0.00     0.125 A 
ATOM     21  C   UNL d   1      32.168  23.106 -20.826  0.00  0.00     0.053 A 
ATOM     22  C   UNL d   1      32.605  23.334 -21.495  0.00  0.00     0.125 A 
ATOM     23  O   UNL d   1      32.906  22.864 -22.089  0.00  0.00    -0.303 OA
ATOM     24  C   UNL d   1      33.232  21.801 -22.850  0.00  0.00     0.027 A 
ATOM     25  C   UNL d   1      33.241  20.993 -23.036  0.00  0.00     0.002 A 
ENDBRANCH   1  15
TORSDOF 1
ENDMDL
MODEL 3
REMARK VINA RESULT:      -0.7      1.299      2.700
REMARK  1 active torsions:
REMARK  status: ('A' for Active; 'I' for Inactive)
REMARK    1  A    between atoms: C_7  and  C_1 
ROOT
ATOM      1  C   UNL d   1      32.866  20.807 -21.849  0.00  0.00     0.062 A 
ATOM      2  C   UNL d   1      32.678  21.603 -21.916  0.00  0.00     0.202 A 
ATOM      3  C   UNL d   1      32.664  22.099 -21.269  0.00  0.00     0.101 A 
ATOM      4  C   UNL d   1      33.049  20.496 -21.095  0.00  0.00     0.103 A 
ATOM      5  C   UNL d   1      32.847  21.789 -20.514  0.00  0.00     0.109 A 
ATOM      6  O   UNL d   1      33.039  20.991 -20.426  0.00  0.00    -0.307 OA
ATOM      7  C   UNL d   1      32.480  22.874 -21.345  0.00  0.00     0.204 A 
ATOM      8  C   UNL d   1      32.841  22.261 -19.855  0.00  0.00     0.067 A 
ATOM      9  C   UNL d   1      32.466  23.372 -20.697  0.00  0.00     0.084 A 
ATOM     10  O   UNL d   1      32.496  21.912 -22.666  0.00  0.00    -0.286 OA
ATOM     11  C   UNL d   1      32.649  23.062 -19.942  0.00  0.00     0.201 A 
ATOM     12  O   UNL d   1      32.298  23.183 -22.095  0.00  0.00    -0.286 OA
ATOM     13  C   UNL d   1      33.241  19.694 -21.008  0.00  0.00     0.027 C 
ATOM     14  O   UNL d   1      32.640  23.550 -19.276  0.00  0.00    -0.286 OA
ENDROOT
BRANCH   1  15
ATOM     15  C   UNL d   1      32.875  20.315 -22.516  0.00  0.00     0.007 A 
ATOM     16  C   UNL d   1      32.529  19.584 -22.467  0.00  0.00     0.027 A 
ATOM     17  C   UNL d   1      32.540  19.096 -23.131  0.00  0.00     0.123 A 
ATOM     18  O   UNL d   1      32.165  18.388 -22.971  0.00  0.00    -0.303 OA
ATOM     19  C   UNL d   1      32.890  19.346 -23.818  0.00  0.00     0.123 A 
ATOM     20  C   UNL d   1      32.051  17.753 -23.466  0.00  0.00     0.125 A 
ATOM     21  C   UNL d   1      32.285  17.670 -24.250  0.00  0.00     0.053 A 
ATOM     22  C   UNL d   1      32.695  18.213 -24.727  0.00  0.00     0.125 A 
ATOM     23  O   UNL d   1      32.963  18.957 -24.534  0.00  0.00    -0.303 OA
ATOM     24  C   UNL d   1      33.241  20.092 -23.861  0.00  0.00     0.027 A 
ATOM     25  C   UNL d   1      33.231  20.583 -23.194  0.00  0.00     0.002 A 
ENDBRANCH   1  15
TORSDOF 1
ENDMDL
MODEL 4
REMARK VINA RESULT:      -0.3      2.196      5.156
REMARK  1 active torsions:
REMARK  status: ('A' for Active; 'I' for Inactive)
REMARK    1  A    between atoms: C_7  and  C_1 
ROOT
ATOM      1  C   UNL d   1      29.969  16.799 -23.928  0.00  0.00     0.062 A 
ATOM      2  C   UNL d   1      29.235  17.166 -23.881  0.00  0.00     0.202 A 
ATOM      3  C   UNL d   1      28.559  16.753 -23.690  0.00  0.00     0.101 A 
ATOM      4  C   UNL d   1      30.021  15.979 -23.775  0.00  0.00     0.103 A 
ATOM      5  C   UNL d   1      28.611  15.933 -23.536  0.00  0.00     0.109 A 
ATOM      6  O   UNL d   1      29.339  15.546 -23.578  0.00  0.00    -0.307 OA
ATOM      7  C   UNL d   1      27.849  17.121 -23.647  0.00  0.00     0.204 A 
ATOM      8  C   UNL d   1      27.952  15.501 -23.344  0.00  0.00     0.067 A 
ATOM      9  C   UNL d   1      27.169  16.709 -23.455  0.00  0.00     0.084 A 
ATOM     10  O   UNL d   1      29.183  17.981 -24.034  0.00  0.00    -0.286 OA
ATOM     11  C   UNL d   1      27.221  15.888 -23.301  0.00  0.00     0.201 A 
ATOM     12  O   UNL d   1      27.797  17.936 -23.799  0.00  0.00    -0.286 OA
ATOM     13  C   UNL d   1      30.753  15.592 -23.817  0.00  0.00     0.027 C 
ATOM     14  O   UNL d   1      26.546  15.456 -23.106  0.00  0.00    -0.286 OA
ENDROOT
BRANCH   1  15
ATOM     15  C   UNL d   1      30.648  17.231 -24.124  0.00  0.00     0.007 A 
ATOM     16  C   UNL d   1      31.056  17.608 -23.533  0.00  0.00     0.027 A 
ATOM     17  C   UNL d   1      31.731  18.037 -23.730  0.00  0.00     0.123 A 
ATOM     18  O   UNL d   1      32.060  18.373 -23.061  0.00  0.00    -0.303 OA
ATOM     19  C   UNL d   1      31.980  18.079 -24.501  0.00  0.00     0.123 A 
ATOM     20  C   UNL d   1      32.725  18.837 -23.004  0.00  0.00     0.125 A 
ATOM     21  C   UNL d   1      33.229  19.081 -23.607  0.00  0.00     0.053 A 
ATOM     22  C   UNL d   1      33.182  18.914 -24.419  0.00  0.00     0.125 A 
ATOM     23  O   UNL d   1      32.626  18.468 -24.815  0.00  0.00    -0.303 OA
ATOM     24  C   UNL d   1      31.561  17.693 -25.097  0.00  0.00     0.027 A 
ATOM     25  C   UNL d   1      30.881  17.261 -24.900  0.00  0.00     0.002 A 
ENDBRANCH   1  15
TORSDOF 1
ENDMDL
