MODEL 1
REMARK VINA RESULT:      -5.3      0.000      0.000
REMARK  9 active torsions:
REMARK  status: ('A' for Active; 'I' for Inactive)
REMARK    1  A    between atoms: C_6  and  N_1 
REMARK    2  A    between atoms: C_2  and  O_5 
REMARK    3  A    between atoms: C_8  and  C_3 
REMARK    4  A    between atoms: C_4  and  C_9 
REMARK    5  A    between atoms: O_5  and  C_4 
REMARK    6  A    between atoms: C_7  and  C_8 
REMARK    7  A    between atoms: C_13  and  C_7 
REMARK    8  A    between atoms: C_10  and  C_13 
REMARK    9  A    between atoms: O_25  and  C_23 
ROOT
ATOM      1  C   UNL d   1     -39.835  15.000  18.187  0.00  0.00     0.108 A 
ATOM      2  C   UNL d   1     -39.421  14.715  17.532  0.00  0.00     0.062 A 
ATOM      3  C   UNL d   1     -40.562  15.393  18.078  0.00  0.00     0.049 A 
ATOM      4  C   UNL d   1     -39.733  14.821  16.766  0.00  0.00     0.007 A 
ATOM      5  C   UNL d   1     -40.867  15.496  17.319  0.00  0.00     0.096 A 
ATOM      6  C   UNL d   1     -40.453  15.210  16.663  0.00  0.00     0.024 A 
ENDROOT
BRANCH   1   7
ATOM      7  O   UNL d   1     -39.532  14.899  18.950  0.00  0.00    -0.273 OA
BRANCH   7   8
ATOM      8  C   UNL d   1     -40.047  14.750  19.580  0.00  0.00     0.300 C 
ATOM      9  O   UNL d   1     -40.787  14.418  19.443  0.00  0.00    -0.259 OA
BRANCH   8  10
ATOM     10  C   UNL d   1     -39.813  14.939  20.348  0.00  0.00     0.065 A 
ATOM     11  C   UNL d   1     -39.585  14.334  20.858  0.00  0.00     0.029 A 
ATOM     12  C   UNL d   1     -39.351  14.519  21.622  0.00  0.00     0.127 A 
ATOM     13  C   UNL d   1     -39.346  15.306  21.876  0.00  0.00     0.024 A 
ATOM     14  C   UNL d   1     -39.575  15.900  21.360  0.00  0.00     0.002 A 
ATOM     15  C   UNL d   1     -39.808  15.717  20.598  0.00  0.00     0.005 A 
BRANCH  12  16
ATOM     16  N   UNL d   1     -39.122  13.914  22.138  0.00  0.00    -0.114 N 
ATOM     17  O   UNL d   1     -39.047  14.068  22.943  0.00  0.00    -0.532 OA
ATOM     18  O   UNL d   1     -38.965  13.148  21.843  0.00  0.00    -0.532 OA
ENDBRANCH  12  16
ENDBRANCH   8  10
ENDBRANCH   7   8
ENDBRANCH   1   7
BRANCH   2  19
ATOM     19  C   UNL d   1     -38.697  14.324  17.637  0.00  0.00     0.198 C 
ATOM     20  O   UNL d   1     -38.024  14.753  17.848  0.00  0.00    -0.286 OA
BRANCH  19  21
ATOM     21  C   UNL d   1     -38.651  13.507  17.531  0.00  0.00     0.043 C 
BRANCH  21  22
ATOM     22  C   UNL d   1     -37.975  13.100  17.772  0.00  0.00     0.010 C 
BRANCH  22  23
ATOM     23  C   UNL d   1     -37.976  12.275  17.784  0.00  0.00     0.030 A 
ATOM     24  S   UNL d   1     -37.940  11.791  18.454  0.00  0.00    -0.086 SA
ATOM     25  C   UNL d   1     -37.955  11.003  18.212  0.00  0.00     0.035 A 
ATOM     26  C   UNL d   1     -38.002  10.990  17.388  0.00  0.00     0.007 A 
ATOM     27  C   UNL d   1     -38.015  11.775  17.122  0.00  0.00     0.007 A 
ENDBRANCH  22  23
ENDBRANCH  21  22
ENDBRANCH  19  21
ENDBRANCH   2  19
BRANCH   5  28
ATOM     28  O   UNL d   1     -41.588  15.885  17.216  0.00  0.00    -0.328 OA
ATOM     29  C   UNL d   1     -41.965  15.867  16.478  0.00  0.00     0.181 C 
ENDBRANCH   5  28
TORSDOF 9
ENDMDL
MODEL 2
REMARK VINA RESULT:      -4.5      8.444      9.536
REMARK  9 active torsions:
REMARK  status: ('A' for Active; 'I' for Inactive)
REMARK    1  A    between atoms: C_6  and  N_1 
REMARK    2  A    between atoms: C_2  and  O_5 
REMARK    3  A    between atoms: C_8  and  C_3 
REMARK    4  A    between atoms: C_4  and  C_9 
REMARK    5  A    between atoms: O_5  and  C_4 
REMARK    6  A    between atoms: C_7  and  C_8 
REMARK    7  A    between atoms: C_13  and  C_7 
REMARK    8  A    between atoms: C_10  and  C_13 
REMARK    9  A    between atoms: O_25  and  C_23 
ROOT
ATOM      1  C   UNL d   1     -47.520  12.693  23.044  0.00  0.00     0.108 A 
ATOM      2  C   UNL d   1     -46.749  12.451  23.214  0.00  0.00     0.062 A 
ATOM      3  C   UNL d   1     -48.159  12.181  23.201  0.00  0.00     0.049 A 
ATOM      4  C   UNL d   1     -46.615  11.696  23.541  0.00  0.00     0.007 A 
ATOM      5  C   UNL d   1     -48.021  11.435  23.525  0.00  0.00     0.096 A 
ATOM      6  C   UNL d   1     -47.250  11.193  23.695  0.00  0.00     0.024 A 
ENDROOT
BRANCH   1   7
ATOM      7  O   UNL d   1     -47.662  13.440  22.719  0.00  0.00    -0.273 OA
BRANCH   7   8
ATOM      8  C   UNL d   1     -48.385  13.597  22.351  0.00  0.00     0.300 C 
ATOM      9  O   UNL d   1     -48.736  13.035  21.864  0.00  0.00    -0.259 OA
BRANCH   8  10
ATOM     10  C   UNL d   1     -48.755  14.324  22.477  0.00  0.00     0.065 A 
ATOM     11  C   UNL d   1     -49.499  14.341  22.827  0.00  0.00     0.029 A 
ATOM     12  C   UNL d   1     -49.869  15.063  22.953  0.00  0.00     0.127 A 
ATOM     13  C   UNL d   1     -49.494  15.766  22.729  0.00  0.00     0.024 A 
ATOM     14  C   UNL d   1     -48.753  15.737  22.382  0.00  0.00     0.002 A 
ATOM     15  C   UNL d   1     -48.384  15.018  22.256  0.00  0.00     0.005 A 
BRANCH  12  16
ATOM     16  N   UNL d   1     -50.617  15.084  23.304  0.00  0.00    -0.114 N 
ATOM     17  O   UNL d   1     -50.945  14.395  23.612  0.00  0.00    -0.532 OA
ATOM     18  O   UNL d   1     -51.040  15.803  23.348  0.00  0.00    -0.532 OA
ENDBRANCH  12  16
ENDBRANCH   8  10
ENDBRANCH   7   8
ENDBRANCH   1   7
BRANCH   2  19
ATOM     19  C   UNL d   1     -46.112  12.958  23.059  0.00  0.00     0.198 C 
ATOM     20  O   UNL d   1     -46.048  13.675  23.463  0.00  0.00    -0.286 OA
BRANCH  19  21
ATOM     21  C   UNL d   1     -45.543  12.745  22.501  0.00  0.00     0.043 C 
BRANCH  21  22
ATOM     22  C   UNL d   1     -44.909  13.251  22.347  0.00  0.00     0.010 C 
BRANCH  22  23
ATOM     23  C   UNL d   1     -44.252  12.971  21.934  0.00  0.00     0.030 A 
ATOM     24  S   UNL d   1     -43.727  12.381  22.181  0.00  0.00    -0.086 SA
ATOM     25  C   UNL d   1     -43.152  12.278  21.598  0.00  0.00     0.035 A 
ATOM     26  C   UNL d   1     -43.315  12.804  20.984  0.00  0.00     0.007 A 
ATOM     27  C   UNL d   1     -43.994  13.233  21.189  0.00  0.00     0.007 A 
ENDBRANCH  22  23
ENDBRANCH  21  22
ENDBRANCH  19  21
ENDBRANCH   2  19
BRANCH   5  28
ATOM     28  O   UNL d   1     -48.657  10.931  23.679  0.00  0.00    -0.328 OA
ATOM     29  C   UNL d   1     -49.433  11.197  23.561  0.00  0.00     0.181 C 
ENDBRANCH   5  28
TORSDOF 9
ENDMDL
MODEL 3
REMARK VINA RESULT:      -4.1      9.111     10.564
REMARK  9 active torsions:
REMARK  status: ('A' for Active; 'I' for Inactive)
REMARK    1  A    between atoms: C_6  and  N_1 
REMARK    2  A    between atoms: C_2  and  O_5 
REMARK    3  A    between atoms: C_8  and  C_3 
REMARK    4  A    between atoms: C_4  and  C_9 
REMARK    5  A    between atoms: O_5  and  C_4 
REMARK    6  A    between atoms: C_7  and  C_8 
REMARK    7  A    between atoms: C_13  and  C_7 
REMARK    8  A    between atoms: C_10  and  C_13 
REMARK    9  A    between atoms: O_25  and  C_23 
ROOT
ATOM      1  C   UNL d   1     -46.963  12.426  22.981  0.00  0.00     0.108 A 
ATOM      2  C   UNL d   1     -46.512  13.037  22.657  0.00  0.00     0.062 A 
ATOM      3  C   UNL d   1     -46.584  11.771  23.329  0.00  0.00     0.049 A 
ATOM      4  C   UNL d   1     -45.681  12.996  22.681  0.00  0.00     0.007 A 
ATOM      5  C   UNL d   1     -45.760  11.734  23.351  0.00  0.00     0.096 A 
ATOM      6  C   UNL d   1     -45.309  12.346  23.027  0.00  0.00     0.024 A 
ENDROOT
BRANCH   1   7
ATOM      7  O   UNL d   1     -47.790  12.460  22.960  0.00  0.00    -0.273 OA
BRANCH   7   8
ATOM      8  C   UNL d   1     -48.231  11.764  23.025  0.00  0.00     0.300 C 
ATOM      9  O   UNL d   1     -47.853  11.035  23.084  0.00  0.00    -0.259 OA
BRANCH   8  10
ATOM     10  C   UNL d   1     -49.055  11.804  23.029  0.00  0.00     0.065 A 
ATOM     11  C   UNL d   1     -49.448  12.061  22.352  0.00  0.00     0.029 A 
ATOM     12  C   UNL d   1     -50.267  12.102  22.354  0.00  0.00     0.127 A 
ATOM     13  C   UNL d   1     -50.692  11.888  23.031  0.00  0.00     0.024 A 
ATOM     14  C   UNL d   1     -50.291  11.634  23.698  0.00  0.00     0.002 A 
ATOM     15  C   UNL d   1     -49.474  11.592  23.698  0.00  0.00     0.005 A 
BRANCH  12  16
ATOM     16  N   UNL d   1     -50.665  12.359  21.676  0.00  0.00    -0.114 N 
ATOM     17  O   UNL d   1     -51.022  13.101  21.667  0.00  0.00    -0.532 OA
ATOM     18  O   UNL d   1     -50.707  11.868  21.002  0.00  0.00    -0.532 OA
ENDBRANCH  12  16
ENDBRANCH   8  10
ENDBRANCH   7   8
ENDBRANCH   1   7
BRANCH   2  19
ATOM     19  C   UNL d   1     -46.888  13.690  22.309  0.00  0.00     0.198 C 
ATOM     20  O   UNL d   1     -46.877  13.783  21.489  0.00  0.00    -0.286 OA
BRANCH  19  21
ATOM     21  C   UNL d   1     -47.272  14.245  22.784  0.00  0.00     0.043 C 
BRANCH  21  22
ATOM     22  C   UNL d   1     -47.523  14.960  22.457  0.00  0.00     0.010 C 
BRANCH  22  23
ATOM     23  C   UNL d   1     -48.259  15.269  22.666  0.00  0.00     0.030 A 
ATOM     24  S   UNL d   1     -48.824  15.590  22.153  0.00  0.00    -0.086 SA
ATOM     25  C   UNL d   1     -49.476  15.832  22.596  0.00  0.00     0.035 A 
ATOM     26  C   UNL d   1     -49.322  15.664  23.389  0.00  0.00     0.007 A 
ATOM     27  C   UNL d   1     -48.571  15.316  23.434  0.00  0.00     0.007 A 
ENDBRANCH  22  23
ENDBRANCH  21  22
ENDBRANCH  19  21
ENDBRANCH   2  19
BRANCH   5  28
ATOM     28  O   UNL d   1     -45.388  11.084  23.698  0.00  0.00    -0.328 OA
ATOM     29  C   UNL d   1     -44.681  10.793  23.378  0.00  0.00     0.181 C 
ENDBRANCH   5  28
TORSDOF 9
ENDMDL
MODEL 4
REMARK VINA RESULT:      -3.4      6.014      7.379
REMARK  9 active torsions:
REMARK  status: ('A' for Active; 'I' for Inactive)
REMARK    1  A    between atoms: C_6  and  N_1 
REMARK    2  A    between atoms: C_2  and  O_5 
REMARK    3  A    between atoms: C_8  and  C_3 
REMARK    4  A    between atoms: C_4  and  C_9 
REMARK    5  A    between atoms: O_5  and  C_4 
REMARK    6  A    between atoms: C_7  and  C_8 
REMARK    7  A    between atoms: C_13  and  C_7 
REMARK    8  A    between atoms: C_10  and  C_13 
REMARK    9  A    between atoms: O_25  and  C_23 
ROOT
ATOM      1  C   UNL d   1     -44.515  12.200  22.465  0.00  0.00     0.108 A 
ATOM      2  C   UNL d   1     -43.804  12.179  22.045  0.00  0.00     0.062 A 
ATOM      3  C   UNL d   1     -44.687  11.602  23.019  0.00  0.00     0.049 A 
ATOM      4  C   UNL d   1     -43.263  11.560  22.178  0.00  0.00     0.007 A 
ATOM      5  C   UNL d   1     -44.148  10.990  23.148  0.00  0.00     0.096 A 
ATOM      6  C   UNL d   1     -43.437  10.969  22.728  0.00  0.00     0.024 A 
ENDROOT
BRANCH   1   7
ATOM      7  O   UNL d   1     -45.058  12.811  22.338  0.00  0.00    -0.273 OA
BRANCH   7   8
ATOM      8  C   UNL d   1     -45.715  12.886  22.834  0.00  0.00     0.300 C 
ATOM      9  O   UNL d   1     -45.784  12.419  23.508  0.00  0.00    -0.259 OA
BRANCH   8  10
ATOM     10  C   UNL d   1     -46.303  13.435  22.649  0.00  0.00     0.065 A 
ATOM     11  C   UNL d   1     -47.023  13.167  22.354  0.00  0.00     0.029 A 
ATOM     12  C   UNL d   1     -47.609  13.711  22.169  0.00  0.00     0.127 A 
ATOM     13  C   UNL d   1     -47.475  14.519  22.278  0.00  0.00     0.024 A 
ATOM     14  C   UNL d   1     -46.755  14.774  22.572  0.00  0.00     0.002 A 
ATOM     15  C   UNL d   1     -46.169  14.234  22.757  0.00  0.00     0.005 A 
BRANCH  12  16
ATOM     16  N   UNL d   1     -48.334  13.446  21.872  0.00  0.00    -0.114 N 
ATOM     17  O   UNL d   1     -48.351  12.887  21.267  0.00  0.00    -0.532 OA
ATOM     18  O   UNL d   1     -49.050  13.743  22.184  0.00  0.00    -0.532 OA
ENDBRANCH  12  16
ENDBRANCH   8  10
ENDBRANCH   7   8
ENDBRANCH   1   7
BRANCH   2  19
ATOM     19  C   UNL d   1     -43.632  12.773  21.493  0.00  0.00     0.198 C 
ATOM     20  O   UNL d   1     -44.149  12.915  20.865  0.00  0.00    -0.286 OA
BRANCH  19  21
ATOM     21  C   UNL d   1     -42.943  13.220  21.572  0.00  0.00     0.043 C 
BRANCH  21  22
ATOM     22  C   UNL d   1     -42.630  13.610  20.915  0.00  0.00     0.010 C 
BRANCH  22  23
ATOM     23  C   UNL d   1     -41.917  14.021  20.983  0.00  0.00     0.030 A 
ATOM     24  S   UNL d   1     -41.813  14.840  20.939  0.00  0.00    -0.086 SA
ATOM     25  C   UNL d   1     -41.011  15.010  21.036  0.00  0.00     0.035 A 
ATOM     26  C   UNL d   1     -40.611  14.296  21.143  0.00  0.00     0.007 A 
ATOM     27  C   UNL d   1     -41.169  13.684  21.110  0.00  0.00     0.007 A 
ENDBRANCH  22  23
ENDBRANCH  21  22
ENDBRANCH  19  21
ENDBRANCH   2  19
BRANCH   5  28
ATOM     28  O   UNL d   1     -44.321  10.400  23.698  0.00  0.00    -0.328 OA
ATOM     29  C   UNL d   1     -43.921   9.675  23.667  0.00  0.00     0.181 C 
ENDBRANCH   5  28
TORSDOF 9
ENDMDL
MODEL 5
REMARK VINA RESULT:      -3.2      2.086      3.442
REMARK  9 active torsions:
REMARK  status: ('A' for Active; 'I' for Inactive)
REMARK    1  A    between atoms: C_6  and  N_1 
REMARK    2  A    between atoms: C_2  and  O_5 
REMARK    3  A    between atoms: C_8  and  C_3 
REMARK    4  A    between atoms: C_4  and  C_9 
REMARK    5  A    between atoms: O_5  and  C_4 
REMARK    6  A    between atoms: C_7  and  C_8 
REMARK    7  A    between atoms: C_13  and  C_7 
REMARK    8  A    between atoms: C_10  and  C_13 
REMARK    9  A    between atoms: O_25  and  C_23 
ROOT
ATOM      1  C   UNL d   1     -39.567  14.618  19.522  0.00  0.00     0.108 A 
ATOM      2  C   UNL d   1     -40.359  14.628  19.288  0.00  0.00     0.062 A 
ATOM      3  C   UNL d   1     -38.969  14.492  18.956  0.00  0.00     0.049 A 
ATOM      4  C   UNL d   1     -40.555  14.513  18.486  0.00  0.00     0.007 A 
ATOM      5  C   UNL d   1     -39.167  14.378  18.163  0.00  0.00     0.096 A 
ATOM      6  C   UNL d   1     -39.959  14.389  17.928  0.00  0.00     0.024 A 
ENDROOT
BRANCH   1   7
ATOM      7  O   UNL d   1     -39.365  14.731  20.317  0.00  0.00    -0.273 OA
BRANCH   7   8
ATOM      8  C   UNL d   1     -38.568  14.758  20.537  0.00  0.00     0.300 C 
ATOM      9  O   UNL d   1     -37.985  14.898  19.975  0.00  0.00    -0.259 OA
BRANCH   8  10
ATOM     10  C   UNL d   1     -38.363  14.643  21.328  0.00  0.00     0.065 A 
ATOM     11  C   UNL d   1     -38.296  13.876  21.618  0.00  0.00     0.029 A 
ATOM     12  C   UNL d   1     -38.092  13.759  22.404  0.00  0.00     0.127 A 
ATOM     13  C   UNL d   1     -37.954  14.408  22.898  0.00  0.00     0.024 A 
ATOM     14  C   UNL d   1     -38.023  15.167  22.599  0.00  0.00     0.002 A 
ATOM     15  C   UNL d   1     -38.227  15.285  21.815  0.00  0.00     0.005 A 
BRANCH  12  16
ATOM     16  N   UNL d   1     -38.024  12.990  22.700  0.00  0.00    -0.114 N 
ATOM     17  O   UNL d   1     -38.041  12.860  23.513  0.00  0.00    -0.532 OA
ATOM     18  O   UNL d   1     -37.940  12.345  22.176  0.00  0.00    -0.532 OA
ENDBRANCH  12  16
ENDBRANCH   8  10
ENDBRANCH   7   8
ENDBRANCH   1   7
BRANCH   2  19
ATOM     19  C   UNL d   1     -40.956  14.753  19.849  0.00  0.00     0.198 C 
ATOM     20  O   UNL d   1     -41.139  15.521  20.093  0.00  0.00    -0.286 OA
BRANCH  19  21
ATOM     21  C   UNL d   1     -41.366  14.110  20.164  0.00  0.00     0.043 C 
BRANCH  21  22
ATOM     22  C   UNL d   1     -41.978  14.238  20.702  0.00  0.00     0.010 C 
BRANCH  22  23
ATOM     23  C   UNL d   1     -42.384  13.594  21.022  0.00  0.00     0.030 A 
ATOM     24  S   UNL d   1     -43.203  13.480  21.026  0.00  0.00    -0.086 SA
ATOM     25  C   UNL d   1     -43.368  12.764  21.402  0.00  0.00     0.035 A 
ATOM     26  C   UNL d   1     -42.651  12.428  21.635  0.00  0.00     0.007 A 
ATOM     27  C   UNL d   1     -42.042  12.939  21.401  0.00  0.00     0.007 A 
ENDBRANCH  22  23
ENDBRANCH  21  22
ENDBRANCH  19  21
ENDBRANCH   2  19
BRANCH   5  28
ATOM     28  O   UNL d   1     -38.572  14.254  17.605  0.00  0.00    -0.328 OA
ATOM     29  C   UNL d   1     -38.757  13.919  16.870  0.00  0.00     0.181 C 
ENDBRANCH   5  28
TORSDOF 9
ENDMDL
