MODEL 1
REMARK VINA RESULT:      10.1      0.000      0.000
REMARK  1 active torsions:
REMARK  status: ('A' for Active; 'I' for Inactive)
REMARK    1  A    between atoms: C_6  and  C_1 
ROOT
ATOM      1  C   UNL d   1     -54.791-102.165 -38.109  0.00  0.00     0.162 A 
ATOM      2  N   UNL d   1     -54.724-101.469 -37.664  0.00  0.00    -0.225 NA
ATOM      3  N   UNL d   1     -54.869-102.793 -37.600  0.00  0.00    -0.225 NA
ATOM      4  C   UNL d   1     -54.762-101.667 -36.861  0.00  0.00     0.101 A 
ATOM      5  C   UNL d   1     -54.851-102.481 -36.827  0.00  0.00     0.101 A 
ATOM      6  C   UNL d   1     -54.728-101.218 -36.172  0.00  0.00     0.021 A 
ATOM      7  C   UNL d   1     -54.908-102.863 -36.092  0.00  0.00     0.021 A 
ATOM      8  C   UNL d   1     -54.782-101.580 -35.424  0.00  0.00     0.002 A 
ATOM      9  C   UNL d   1     -54.873-102.406 -35.370  0.00  0.00     0.002 A 
ENDROOT
BRANCH   1  10
ATOM     10  C   UNL d   1     -54.774-102.164 -38.903  0.00  0.00     0.036 A 
ATOM     11  C   UNL d   1     -54.730-101.446 -39.315  0.00  0.00     0.005 A 
ATOM     12  C   UNL d   1     -54.712-101.434 -40.139  0.00  0.00     0.030 A 
ATOM     13  C   UNL d   1     -54.739-102.141 -40.561  0.00  0.00     0.140 A 
ATOM     14  C   UNL d   1     -54.784-102.860 -40.155  0.00  0.00     0.030 A 
ATOM     15  F   UNL d   1     -54.721-102.117 -41.399  0.00  0.00    -0.204 F 
ATOM     16  C   UNL d   1     -54.802-102.879 -39.339  0.00  0.00     0.005 A 
ENDBRANCH   1  10
TORSDOF 1
ENDMDL
