MODEL 1
REMARK VINA RESULT:      -9.8      0.000      0.000
REMARK  3 active torsions:
REMARK  status: ('A' for Active; 'I' for Inactive)
REMARK    1  A    between atoms: N_5  and  C_1 
REMARK    2  A    between atoms: C_9  and  C_2 
REMARK       I    between atoms: C_8  and  N_5 
REMARK    3  A    between atoms: C_13  and  C_8 
ROOT
ATOM      1  C   UNL d   1      52.479  32.687  53.645  0.00  0.00     0.156 A 
ATOM      2  C   UNL d   1      52.904  33.384  53.776  0.00  0.00     0.091 A 
ATOM      3  N   UNL d   1      51.724  32.722  53.304  0.00  0.00    -0.289 N 
ATOM      4  C   UNL d   1      52.574  34.115  53.566  0.00  0.00     0.201 A 
ATOM      5  C   UNL d   1      51.823  34.147  53.227  0.00  0.00     0.055 A 
ATOM      6  C   UNL d   1      51.398  33.450  53.096  0.00  0.00     0.069 A 
ATOM      7  O   UNL d   1      53.000  34.812  53.698  0.00  0.00    -0.286 OA
ATOM      8  C   UNL d   1      51.299  32.025  53.172  0.00  0.00     0.101 C 
ATOM      9  C   UNL d   1      51.497  34.875  53.019  0.00  0.00     0.005 A 
ATOM     10  C   UNL d   1      50.647  33.482  52.757  0.00  0.00     0.018 A 
ATOM     11  C   UNL d   1      50.735  34.905  52.676  0.00  0.00     0.000 A 
ATOM     12  C   UNL d   1      50.314  34.215  52.546  0.00  0.00     0.002 A 
ENDROOT
BRANCH   1  13
ATOM     13  N   UNL d   1      52.805  31.943  53.854  0.00  0.00    -0.190 NA
ATOM     14  C   UNL d   1      52.822  31.305  53.328  0.00  0.00     0.280 C 
ATOM     15  O   UNL d   1      52.505  31.411  52.573  0.00  0.00    -0.265 OA
BRANCH  14  16
ATOM     16  C   UNL d   1      53.144  30.576  53.540  0.00  0.00     0.058 A 
ATOM     17  C   UNL d   1      52.859  30.184  54.210  0.00  0.00     0.005 A 
ATOM     18  C   UNL d   1      53.180  29.456  54.422  0.00  0.00     0.000 A 
ATOM     19  C   UNL d   1      53.782  29.123  53.966  0.00  0.00     0.000 A 
ATOM     20  C   UNL d   1      54.062  29.521  53.297  0.00  0.00     0.000 A 
ATOM     21  C   UNL d   1      53.740  30.250  53.085  0.00  0.00     0.005 A 
ENDBRANCH  14  16
ENDBRANCH   1  13
BRANCH   2  22
ATOM     22  C   UNL d   1      53.656  33.351  54.115  0.00  0.00     0.087 A 
ATOM     23  N   UNL d   1      54.324  33.340  53.633  0.00  0.00    -0.244 NA
ATOM     24  C   UNL d   1      55.084  33.308  53.975  0.00  0.00     0.099 A 
ATOM     25  C   UNL d   1      55.158  33.287  54.807  0.00  0.00     0.021 A 
ATOM     26  C   UNL d   1      54.489  33.298  55.281  0.00  0.00     0.003 A 
ATOM     27  C   UNL d   1      53.738  33.330  54.938  0.00  0.00     0.019 A 
ENDBRANCH   2  22
TORSDOF 3
ENDMDL
MODEL 2
REMARK VINA RESULT:      -9.2      1.237      3.809
REMARK  3 active torsions:
REMARK  status: ('A' for Active; 'I' for Inactive)
REMARK    1  A    between atoms: N_5  and  C_1 
REMARK    2  A    between atoms: C_9  and  C_2 
REMARK       I    between atoms: C_8  and  N_5 
REMARK    3  A    between atoms: C_13  and  C_8 
ROOT
ATOM      1  C   UNL d   1      52.357  33.052  53.242  0.00  0.00     0.156 A 
ATOM      2  C   UNL d   1      52.996  33.284  53.712  0.00  0.00     0.091 A 
ATOM      3  N   UNL d   1      52.283  32.260  53.008  0.00  0.00    -0.289 N 
ATOM      4  C   UNL d   1      53.560  32.725  53.949  0.00  0.00     0.201 A 
ATOM      5  C   UNL d   1      53.484  31.937  53.715  0.00  0.00     0.055 A 
ATOM      6  C   UNL d   1      52.845  31.705  53.244  0.00  0.00     0.069 A 
ATOM      7  O   UNL d   1      54.199  32.957  54.420  0.00  0.00    -0.286 OA
ATOM      8  C   UNL d   1      51.644  32.027  52.537  0.00  0.00     0.101 C 
ATOM      9  C   UNL d   1      54.047  31.382  53.952  0.00  0.00     0.005 A 
ATOM     10  C   UNL d   1      52.770  30.917  53.010  0.00  0.00     0.018 A 
ATOM     11  C   UNL d   1      53.967  30.585  53.713  0.00  0.00     0.000 A 
ATOM     12  C   UNL d   1      53.335  30.355  53.247  0.00  0.00     0.002 A 
ENDROOT
BRANCH   1  13
ATOM     13  N   UNL d   1      51.782  33.611  52.998  0.00  0.00    -0.190 NA
ATOM     14  C   UNL d   1      50.970  33.482  53.098  0.00  0.00     0.280 C 
ATOM     15  O   UNL d   1      50.727  32.778  53.451  0.00  0.00    -0.265 OA
BRANCH  14  16
ATOM     16  C   UNL d   1      50.410  34.037  52.856  0.00  0.00     0.058 A 
ATOM     17  C   UNL d   1      49.981  34.458  53.424  0.00  0.00     0.005 A 
ATOM     18  C   UNL d   1      49.421  35.012  53.183  0.00  0.00     0.000 A 
ATOM     19  C   UNL d   1      49.292  35.141  52.379  0.00  0.00     0.000 A 
ATOM     20  C   UNL d   1      49.724  34.716  51.816  0.00  0.00     0.000 A 
ATOM     21  C   UNL d   1      50.285  34.162  52.058  0.00  0.00     0.005 A 
ENDBRANCH  14  16
ENDBRANCH   1  13
BRANCH   2  22
ATOM     22  C   UNL d   1      53.071  34.072  53.946  0.00  0.00     0.087 A 
ATOM     23  N   UNL d   1      52.860  34.295  54.711  0.00  0.00    -0.244 NA
ATOM     24  C   UNL d   1      52.936  35.091  54.948  0.00  0.00     0.099 A 
ATOM     25  C   UNL d   1      53.227  35.655  54.405  0.00  0.00     0.021 A 
ATOM     26  C   UNL d   1      53.435  35.425  53.645  0.00  0.00     0.003 A 
ATOM     27  C   UNL d   1      53.358  34.636  53.414  0.00  0.00     0.019 A 
ENDBRANCH   2  22
TORSDOF 3
ENDMDL
MODEL 3
REMARK VINA RESULT:      -9.1      1.252      3.943
REMARK  3 active torsions:
REMARK  status: ('A' for Active; 'I' for Inactive)
REMARK    1  A    between atoms: N_5  and  C_1 
REMARK    2  A    between atoms: C_9  and  C_2 
REMARK       I    between atoms: C_8  and  N_5 
REMARK    3  A    between atoms: C_13  and  C_8 
ROOT
ATOM      1  C   UNL d   1      52.863  33.418  53.857  0.00  0.00     0.156 A 
ATOM      2  C   UNL d   1      53.276  32.702  53.849  0.00  0.00     0.091 A 
ATOM      3  N   UNL d   1      53.180  34.074  54.253  0.00  0.00    -0.289 N 
ATOM      4  C   UNL d   1      54.007  32.643  54.237  0.00  0.00     0.201 A 
ATOM      5  C   UNL d   1      54.321  33.297  54.630  0.00  0.00     0.055 A 
ATOM      6  C   UNL d   1      53.907  34.013  54.638  0.00  0.00     0.069 A 
ATOM      7  O   UNL d   1      54.421  31.927  54.229  0.00  0.00    -0.286 OA
ATOM      8  C   UNL d   1      52.766  34.790  54.261  0.00  0.00     0.101 C 
ATOM      9  C   UNL d   1      55.047  33.236  55.015  0.00  0.00     0.005 A 
ATOM     10  C   UNL d   1      54.220  34.667  55.031  0.00  0.00     0.018 A 
ATOM     11  C   UNL d   1      55.363  33.901  55.412  0.00  0.00     0.000 A 
ATOM     12  C   UNL d   1      54.953  34.610  55.420  0.00  0.00     0.002 A 
ENDROOT
BRANCH   1  13
ATOM     13  N   UNL d   1      52.123  33.487  53.468  0.00  0.00    -0.190 NA
ATOM     14  C   UNL d   1      51.946  34.120  52.965  0.00  0.00     0.280 C 
ATOM     15  O   UNL d   1      52.522  34.699  52.847  0.00  0.00    -0.265 OA
BRANCH  14  16
ATOM     16  C   UNL d   1      51.217  34.182  52.585  0.00  0.00     0.058 A 
ATOM     17  C   UNL d   1      50.526  34.237  53.036  0.00  0.00     0.005 A 
ATOM     18  C   UNL d   1      49.797  34.299  52.657  0.00  0.00     0.000 A 
ATOM     19  C   UNL d   1      49.762  34.305  51.833  0.00  0.00     0.000 A 
ATOM     20  C   UNL d   1      50.457  34.249  51.388  0.00  0.00     0.000 A 
ATOM     21  C   UNL d   1      51.186  34.188  51.768  0.00  0.00     0.005 A 
ENDBRANCH  14  16
ENDBRANCH   1  13
BRANCH   2  22
ATOM     22  C   UNL d   1      52.963  32.048  53.457  0.00  0.00     0.087 A 
ATOM     23  N   UNL d   1      53.210  31.872  52.691  0.00  0.00    -0.244 NA
ATOM     24  C   UNL d   1      52.893  31.211  52.292  0.00  0.00     0.099 A 
ATOM     25  C   UNL d   1      52.327  30.733  52.678  0.00  0.00     0.021 A 
ATOM     26  C   UNL d   1      52.085  30.915  53.441  0.00  0.00     0.003 A 
ATOM     27  C   UNL d   1      52.401  31.570  53.831  0.00  0.00     0.019 A 
ENDBRANCH   2  22
TORSDOF 3
ENDMDL
MODEL 4
REMARK VINA RESULT:      -7.7      1.274      4.270
REMARK  3 active torsions:
REMARK  status: ('A' for Active; 'I' for Inactive)
REMARK    1  A    between atoms: N_5  and  C_1 
REMARK    2  A    between atoms: C_9  and  C_2 
REMARK       I    between atoms: C_8  and  N_5 
REMARK    3  A    between atoms: C_13  and  C_8 
ROOT
ATOM      1  C   UNL d   1      52.882  32.907  53.432  0.00  0.00     0.156 A 
ATOM      2  C   UNL d   1      52.187  32.617  53.091  0.00  0.00     0.091 A 
ATOM      3  N   UNL d   1      53.492  32.383  53.634  0.00  0.00    -0.289 N 
ATOM      4  C   UNL d   1      52.102  31.804  52.952  0.00  0.00     0.201 A 
ATOM      5  C   UNL d   1      52.710  31.285  53.153  0.00  0.00     0.055 A 
ATOM      6  C   UNL d   1      53.406  31.574  53.494  0.00  0.00     0.069 A 
ATOM      7  O   UNL d   1      51.406  31.515  52.610  0.00  0.00    -0.286 OA
ATOM      8  C   UNL d   1      54.188  32.672  53.975  0.00  0.00     0.101 C 
ATOM      9  C   UNL d   1      52.624  30.477  53.014  0.00  0.00     0.005 A 
ATOM     10  C   UNL d   1      54.014  31.055  53.696  0.00  0.00     0.018 A 
ATOM     11  C   UNL d   1      53.242  29.952  53.219  0.00  0.00     0.000 A 
ATOM     12  C   UNL d   1      53.931  30.239  53.557  0.00  0.00     0.002 A 
ENDROOT
BRANCH   1  13
ATOM     13  N   UNL d   1      52.977  33.727  53.576  0.00  0.00    -0.190 NA
ATOM     14  C   UNL d   1      53.156  34.026  54.327  0.00  0.00     0.280 C 
ATOM     15  O   UNL d   1      53.243  33.492  54.950  0.00  0.00    -0.265 OA
BRANCH  14  16
ATOM     16  C   UNL d   1      53.248  34.834  54.462  0.00  0.00     0.058 A 
ATOM     17  C   UNL d   1      52.909  35.176  55.134  0.00  0.00     0.005 A 
ATOM     18  C   UNL d   1      53.000  35.983  55.270  0.00  0.00     0.000 A 
ATOM     19  C   UNL d   1      53.428  36.444  54.736  0.00  0.00     0.000 A 
ATOM     20  C   UNL d   1      53.764  36.095  54.065  0.00  0.00     0.000 A 
ATOM     21  C   UNL d   1      53.672  35.287  53.930  0.00  0.00     0.005 A 
ENDBRANCH  14  16
ENDBRANCH   1  13
BRANCH   2  22
ATOM     22  C   UNL d   1      51.579  33.137  52.889  0.00  0.00     0.087 A 
ATOM     23  N   UNL d   1      50.925  33.216  53.386  0.00  0.00    -0.244 NA
ATOM     24  C   UNL d   1      50.310  33.742  53.183  0.00  0.00     0.099 A 
ATOM     25  C   UNL d   1      50.364  34.182  52.475  0.00  0.00     0.021 A 
ATOM     26  C   UNL d   1      51.017  34.098  51.986  0.00  0.00     0.003 A 
ATOM     27  C   UNL d   1      51.624  33.577  52.191  0.00  0.00     0.019 A 
ENDBRANCH   2  22
TORSDOF 3
ENDMDL
MODEL 5
REMARK VINA RESULT:      -7.6      1.009      2.892
REMARK  3 active torsions:
REMARK  status: ('A' for Active; 'I' for Inactive)
REMARK    1  A    between atoms: N_5  and  C_1 
REMARK    2  A    between atoms: C_9  and  C_2 
REMARK       I    between atoms: C_8  and  N_5 
REMARK    3  A    between atoms: C_13  and  C_8 
ROOT
ATOM      1  C   UNL d   1      53.360  32.863  53.811  0.00  0.00     0.156 A 
ATOM      2  C   UNL d   1      52.879  33.535  53.799  0.00  0.00     0.091 A 
ATOM      3  N   UNL d   1      54.079  32.878  54.225  0.00  0.00    -0.289 N 
ATOM      4  C   UNL d   1      53.116  34.221  54.200  0.00  0.00     0.201 A 
ATOM      5  C   UNL d   1      53.831  34.233  54.610  0.00  0.00     0.055 A 
ATOM      6  C   UNL d   1      54.313  33.561  54.623  0.00  0.00     0.069 A 
ATOM      7  O   UNL d   1      52.634  34.893  54.187  0.00  0.00    -0.286 OA
ATOM      8  C   UNL d   1      54.561  32.206  54.237  0.00  0.00     0.101 C 
ATOM      9  C   UNL d   1      54.065  34.917  55.008  0.00  0.00     0.005 A 
ATOM     10  C   UNL d   1      55.028  33.573  55.034  0.00  0.00     0.018 A 
ATOM     11  C   UNL d   1      54.790  34.926  55.424  0.00  0.00     0.000 A 
ATOM     12  C   UNL d   1      55.267  34.261  55.436  0.00  0.00     0.002 A 
ENDROOT
BRANCH   1  13
ATOM     13  N   UNL d   1      53.129  32.165  53.409  0.00  0.00    -0.190 NA
ATOM     14  C   UNL d   1      53.212  31.413  53.744  0.00  0.00     0.280 C 
ATOM     15  O   UNL d   1      53.534  31.356  54.502  0.00  0.00    -0.265 OA
BRANCH  14  16
ATOM     16  C   UNL d   1      52.982  30.730  53.343  0.00  0.00     0.058 A 
ATOM     17  C   UNL d   1      52.478  30.190  53.714  0.00  0.00     0.005 A 
ATOM     18  C   UNL d   1      52.248  29.507  53.314  0.00  0.00     0.000 A 
ATOM     19  C   UNL d   1      52.521  29.369  52.547  0.00  0.00     0.000 A 
ATOM     20  C   UNL d   1      53.024  29.915  52.183  0.00  0.00     0.000 A 
ATOM     21  C   UNL d   1      53.254  30.598  52.584  0.00  0.00     0.005 A 
ENDBRANCH  14  16
ENDBRANCH   1  13
BRANCH   2  22
ATOM     22  C   UNL d   1      52.163  33.522  53.388  0.00  0.00     0.087 A 
ATOM     23  N   UNL d   1      51.468  33.318  53.780  0.00  0.00    -0.244 NA
ATOM     24  C   UNL d   1      50.744  33.305  53.365  0.00  0.00     0.099 A 
ATOM     25  C   UNL d   1      50.734  33.501  52.554  0.00  0.00     0.021 A 
ATOM     26  C   UNL d   1      51.430  33.704  52.169  0.00  0.00     0.003 A 
ATOM     27  C   UNL d   1      52.144  33.715  52.584  0.00  0.00     0.019 A 
ENDBRANCH   2  22
TORSDOF 3
ENDMDL
MODEL 6
REMARK VINA RESULT:      -7.0      0.911      2.917
REMARK  3 active torsions:
REMARK  status: ('A' for Active; 'I' for Inactive)
REMARK    1  A    between atoms: N_5  and  C_1 
REMARK    2  A    between atoms: C_9  and  C_2 
REMARK       I    between atoms: C_8  and  N_5 
REMARK    3  A    between atoms: C_13  and  C_8 
ROOT
ATOM      1  C   UNL d   1      52.495  33.418  53.418  0.00  0.00     0.156 A 
ATOM      2  C   UNL d   1      52.135  32.713  53.179  0.00  0.00     0.091 A 
ATOM      3  N   UNL d   1      52.076  34.132  53.371  0.00  0.00    -0.289 N 
ATOM      4  C   UNL d   1      51.358  32.723  52.891  0.00  0.00     0.201 A 
ATOM      5  C   UNL d   1      50.943  33.434  52.845  0.00  0.00     0.055 A 
ATOM      6  C   UNL d   1      51.302  34.139  53.085  0.00  0.00     0.069 A 
ATOM      7  O   UNL d   1      50.998  32.017  52.652  0.00  0.00    -0.286 OA
ATOM      8  C   UNL d   1      52.435  34.838  53.610  0.00  0.00     0.101 C 
ATOM      9  C   UNL d   1      50.169  33.441  52.559  0.00  0.00     0.005 A 
ATOM     10  C   UNL d   1      50.887  34.851  53.038  0.00  0.00     0.018 A 
ATOM     11  C   UNL d   1      49.751  34.163  52.513  0.00  0.00     0.000 A 
ATOM     12  C   UNL d   1      50.107  34.862  52.750  0.00  0.00     0.002 A 
ENDROOT
BRANCH   1  13
ATOM     13  N   UNL d   1      53.281  33.418  53.710  0.00  0.00    -0.190 NA
ATOM     14  C   UNL d   1      53.486  33.780  54.425  0.00  0.00     0.280 C 
ATOM     15  O   UNL d   1      52.892  34.152  54.861  0.00  0.00    -0.265 OA
BRANCH  14  16
ATOM     16  C   UNL d   1      54.262  33.777  54.707  0.00  0.00     0.058 A 
ATOM     17  C   UNL d   1      54.406  33.597  55.501  0.00  0.00     0.005 A 
ATOM     18  C   UNL d   1      55.180  33.593  55.782  0.00  0.00     0.000 A 
ATOM     19  C   UNL d   1      55.804  33.768  55.272  0.00  0.00     0.000 A 
ATOM     20  C   UNL d   1      55.652  33.946  54.478  0.00  0.00     0.000 A 
ATOM     21  C   UNL d   1      54.876  33.950  54.197  0.00  0.00     0.005 A 
ENDBRANCH  14  16
ENDBRANCH   1  13
BRANCH   2  22
ATOM     22  C   UNL d   1      52.550  32.002  53.225  0.00  0.00     0.087 A 
ATOM     23  N   UNL d   1      53.096  31.806  52.640  0.00  0.00    -0.244 NA
ATOM     24  C   UNL d   1      53.516  31.086  52.686  0.00  0.00     0.099 A 
ATOM     25  C   UNL d   1      53.377  30.571  53.329  0.00  0.00     0.021 A 
ATOM     26  C   UNL d   1      52.832  30.773  53.908  0.00  0.00     0.003 A 
ATOM     27  C   UNL d   1      52.419  31.486  53.858  0.00  0.00     0.019 A 
ENDBRANCH   2  22
TORSDOF 3
ENDMDL
