MODEL 1
REMARK VINA RESULT:       0.6      0.000      0.000
REMARK  4 active torsions:
REMARK  status: ('A' for Active; 'I' for Inactive)
REMARK    1  A    between atoms: S_4  and  C_1 
REMARK    2  A    between atoms: N_7  and  C_3 
REMARK    3  A    between atoms: C_11  and  S_4 
REMARK    4  A    between atoms: C_8  and  C_6 
ROOT
ATOM      1  C   UNL d   1      31.959  18.391 -23.449  0.00  0.00     0.210 A 
ATOM      2  N   UNL d   1      32.046  19.109 -23.061  0.00  0.00    -0.205 NA
ATOM      3  C   UNL d   1      32.692  18.011 -23.453  0.00  0.00     0.199 A 
ATOM      4  O   UNL d   1      33.228  18.500 -23.065  0.00  0.00    -0.268 OA
ATOM      5  C   UNL d   1      32.832  19.175 -22.824  0.00  0.00     0.208 A 
ENDROOT
BRANCH   1   6
ATOM      6  S   UNL d   1      31.227  18.165 -23.753  0.00  0.00     0.230 S 
ATOM      7  O   UNL d   1      31.049  18.286 -24.546  0.00  0.00    -0.215 OA
ATOM      8  O   UNL d   1      30.665  17.812 -23.255  0.00  0.00    -0.215 OA
BRANCH   6   9
ATOM      9  C   UNL d   1      30.494  17.937 -24.050  0.00  0.00     0.090 A 
ATOM     10  C   UNL d   1      30.241  18.225 -24.775  0.00  0.00     0.011 A 
ATOM     11  C   UNL d   1      29.504  18.001 -25.082  0.00  0.00     0.001 A 
ATOM     12  C   UNL d   1      29.024  17.483 -24.652  0.00  0.00     0.000 A 
ATOM     13  C   UNL d   1      29.279  17.192 -23.919  0.00  0.00     0.001 A 
ATOM     14  C   UNL d   1      30.015  17.419 -23.619  0.00  0.00     0.011 A 
ENDBRANCH   6   9
ENDBRANCH   1   6
BRANCH   3  15
ATOM     15  N   UNL d   1      32.858  17.274 -23.785  0.00  0.00    -0.283 N 
ATOM     16  C   UNL d   1      32.921  16.719 -23.335  0.00  0.00     0.082 A 
ATOM     17  C   UNL d   1      33.085  15.881 -23.428  0.00  0.00     0.019 A 
ATOM     18  C   UNL d   1      33.216  15.453 -24.010  0.00  0.00     0.002 A 
ATOM     19  C   UNL d   1      33.241  15.701 -24.813  0.00  0.00     0.002 A 
ATOM     20  C   UNL d   1      33.111  16.531 -25.093  0.00  0.00     0.019 A 
ATOM     21  C   UNL d   1      32.936  17.247 -24.617  0.00  0.00     0.082 A 
ENDBRANCH   3  15
BRANCH   5  22
ATOM     22  C   UNL d   1      32.919  19.890 -22.438  0.00  0.00     0.141 A 
ATOM     23  O   UNL d   1      32.865  20.704 -22.527  0.00  0.00    -0.302 OA
ATOM     24  C   UNL d   1      33.060  21.056 -21.808  0.00  0.00     0.123 A 
ATOM     25  C   UNL d   1      33.234  20.451 -21.274  0.00  0.00     0.029 A 
ATOM     26  C   UNL d   1      33.147  19.733 -21.662  0.00  0.00     0.030 A 
ENDBRANCH   5  22
TORSDOF 4
ENDMDL
MODEL 2
REMARK VINA RESULT:       3.2      3.282      5.347
REMARK  4 active torsions:
REMARK  status: ('A' for Active; 'I' for Inactive)
REMARK    1  A    between atoms: S_4  and  C_1 
REMARK    2  A    between atoms: N_7  and  C_3 
REMARK    3  A    between atoms: C_11  and  S_4 
REMARK    4  A    between atoms: C_8  and  C_6 
ROOT
ATOM      1  C   UNL d   1      32.872  22.055 -21.234  0.00  0.00     0.210 A 
ATOM      2  N   UNL d   1      32.978  22.063 -20.420  0.00  0.00    -0.205 NA
ATOM      3  C   UNL d   1      32.726  22.828 -21.482  0.00  0.00     0.199 A 
ATOM      4  O   UNL d   1      32.743  23.311 -20.816  0.00  0.00    -0.268 OA
ATOM      5  C   UNL d   1      32.898  22.841 -20.162  0.00  0.00     0.208 A 
ENDROOT
BRANCH   1   6
ATOM      6  S   UNL d   1      32.920  21.348 -21.656  0.00  0.00     0.230 S 
ATOM      7  O   UNL d   1      33.240  21.334 -22.412  0.00  0.00    -0.215 OA
ATOM      8  O   UNL d   1      32.643  20.644 -21.313  0.00  0.00    -0.215 OA
BRANCH   6   9
ATOM      9  C   UNL d   1      32.965  20.638 -22.070  0.00  0.00     0.090 A 
ATOM     10  C   UNL d   1      32.867  19.927 -21.671  0.00  0.00     0.011 A 
ATOM     11  C   UNL d   1      32.910  19.207 -22.079  0.00  0.00     0.001 A 
ATOM     12  C   UNL d   1      33.052  19.209 -22.894  0.00  0.00     0.000 A 
ATOM     13  C   UNL d   1      33.151  19.926 -23.297  0.00  0.00     0.001 A 
ATOM     14  C   UNL d   1      33.107  20.640 -22.884  0.00  0.00     0.011 A 
ENDBRANCH   6   9
ENDBRANCH   1   6
BRANCH   3  15
ATOM     15  N   UNL d   1      32.587  23.074 -22.257  0.00  0.00    -0.283 N 
ATOM     16  C   UNL d   1      31.920  23.282 -22.421  0.00  0.00     0.082 A 
ATOM     17  C   UNL d   1      31.533  23.571 -23.131  0.00  0.00     0.019 A 
ATOM     18  C   UNL d   1      31.766  23.702 -23.816  0.00  0.00     0.002 A 
ATOM     19  C   UNL d   1      32.547  23.590 -24.104  0.00  0.00     0.002 A 
ATOM     20  C   UNL d   1      33.229  23.292 -23.624  0.00  0.00     0.019 A 
ATOM     21  C   UNL d   1      33.241  23.057 -22.778  0.00  0.00     0.082 A 
ENDBRANCH   3  15
BRANCH   5  22
ATOM     22  C   UNL d   1      33.003  22.850 -19.352  0.00  0.00     0.141 A 
ATOM     23  O   UNL d   1      33.192  22.387 -18.702  0.00  0.00    -0.302 OA
ATOM     24  C   UNL d   1      33.176  22.863 -18.032  0.00  0.00     0.123 A 
ATOM     25  C   UNL d   1      32.975  23.627 -18.274  0.00  0.00     0.029 A 
ATOM     26  C   UNL d   1      32.869  23.618 -19.088  0.00  0.00     0.030 A 
ENDBRANCH   5  22
TORSDOF 4
ENDMDL
