MODEL 1
REMARK VINA RESULT:      75.8      0.000      0.000
REMARK  4 active torsions:
REMARK  status: ('A' for Active; 'I' for Inactive)
REMARK    1  A    between atoms: C_5  and  C_1 
REMARK    2  A    between atoms: C_11  and  C_2 
REMARK       I    between atoms: C_12  and  N_3 
REMARK    3  A    between atoms: C_15  and  N_7 
REMARK    4  A    between atoms: C_14  and  C_9 
ROOT
ATOM      1  C   UNL d   1      13.945  13.965  -3.210  0.00  0.00     0.057 A 
ATOM      2  C   UNL d   1      13.739  13.253  -3.601  0.00  0.00     0.110 A 
ATOM      3  N   UNL d   1      13.723  12.656  -3.023  0.00  0.00    -0.165 NA
ATOM      4  N   UNL d   1      13.919  13.016  -2.291  0.00  0.00    -0.228 N 
ATOM      5  C   UNL d   1      14.049  13.806  -2.426  0.00  0.00     0.103 A 
ENDROOT
BRANCH   1   6
ATOM      6  C   UNL d   1      14.101  14.764  -3.204  0.00  0.00     0.091 A 
ATOM      7  N   UNL d   1      13.926  15.295  -3.829  0.00  0.00    -0.195 N 
ATOM      8  N   UNL d   1      14.177  16.061  -3.595  0.00  0.00    -0.163 NA
ATOM      9  C   UNL d   1      13.576  15.129  -4.545  0.00  0.00     0.281 C 
ATOM     10  C   UNL d   1      14.497  15.994  -2.846  0.00  0.00     0.103 A 
ATOM     11  C   UNL d   1      14.457  15.209  -2.595  0.00  0.00     0.040 A 
ATOM     12  O   UNL d   1      13.360  14.339  -4.689  0.00  0.00    -0.265 OA
ATOM     13  C   UNL d   1      13.436  15.714  -5.115  0.00  0.00     0.068 C 
BRANCH  10  14
ATOM     14  C   UNL d   1      14.821  16.604  -2.380  0.00  0.00     0.019 A 
ATOM     15  C   UNL d   1      14.764  17.391  -2.642  0.00  0.00     0.002 A 
ATOM     16  C   UNL d   1      15.070  18.002  -2.209  0.00  0.00     0.000 A 
ATOM     17  C   UNL d   1      15.448  17.850  -1.494  0.00  0.00     0.000 A 
ATOM     18  C   UNL d   1      15.506  17.069  -1.232  0.00  0.00     0.000 A 
ATOM     19  C   UNL d   1      15.772  18.460  -1.028  0.00  0.00     0.000 C 
ATOM     20  C   UNL d   1      15.199  16.452  -1.665  0.00  0.00     0.002 A 
ENDBRANCH  10  14
ENDBRANCH   1   6
BRANCH   2  21
ATOM     21  C   UNL d   1      13.532  12.700  -4.180  0.00  0.00     0.049 A 
ATOM     22  S   UNL d   1      14.074  12.263  -4.624  0.00  0.00    -0.085 SA
ATOM     23  C   UNL d   1      13.610  11.779  -5.134  0.00  0.00     0.035 A 
ATOM     24  C   UNL d   1      12.814  11.929  -4.992  0.00  0.00     0.007 A 
ATOM     25  C   UNL d   1      12.771  12.508  -4.391  0.00  0.00     0.009 A 
ENDBRANCH   2  21
BRANCH   4  26
ATOM     26  C   UNL d   1      13.965  12.604  -1.562  0.00  0.00     0.083 A 
ATOM     27  C   UNL d   1      14.657  12.612  -1.123  0.00  0.00     0.019 A 
ATOM     28  C   UNL d   1      14.664  12.199  -0.416  0.00  0.00     0.002 A 
ATOM     29  C   UNL d   1      14.016  11.781  -0.130  0.00  0.00     0.000 A 
ATOM     30  C   UNL d   1      13.317  11.785  -0.591  0.00  0.00     0.002 A 
ATOM     31  C   UNL d   1      13.283  12.186  -1.295  0.00  0.00     0.019 A 
ENDBRANCH   4  26
TORSDOF 4
ENDMDL
