MODEL 1
REMARK VINA RESULT:      64.2      0.000      0.000
REMARK  3 active torsions:
REMARK  status: ('A' for Active; 'I' for Inactive)
REMARK    1  A    between atoms: N_6  and  C_1 
REMARK    2  A    between atoms: C_9  and  C_2 
REMARK       I    between atoms: C_8  and  N_6 
REMARK       I    between atoms: C_11  and  N_7 
REMARK    3  A    between atoms: C_17  and  C_8 
ROOT
ATOM      1  C   UNL d   1     -51.012  25.989  33.795  0.00  0.00     0.119 A 
ATOM      2  C   UNL d   1     -50.836  25.220  33.562  0.00  0.00     0.084 A 
ATOM      3  C   UNL d   1     -52.155  25.311  33.720  0.00  0.00     0.049 A 
ATOM      4  C   UNL d   1     -51.548  24.797  33.515  0.00  0.00     0.016 A 
ATOM      5  S   UNL d   1     -51.832  26.048  33.894  0.00  0.00    -0.066 SA
ATOM      6  N   UNL d   1     -53.106  24.252  33.518  0.00  0.00    -0.272 N 
ATOM      7  C   UNL d   1     -52.943  25.029  33.720  0.00  0.00     0.089 A 
ATOM      8  C   UNL d   1     -53.879  23.969  33.517  0.00  0.00     0.265 C 
ATOM      9  C   UNL d   1     -51.704  24.013  33.311  0.00  0.00     0.020 A 
ATOM     10  C   UNL d   1     -52.482  23.740  33.312  0.00  0.00     0.083 A 
ATOM     11  O   UNL d   1     -54.497  24.476  33.721  0.00  0.00    -0.267 OA
ATOM     12  C   UNL d   1     -54.043  23.191  33.315  0.00  0.00     0.066 C 
ENDROOT
BRANCH   1  13
ATOM     13  N   UNL d   1     -50.466  26.607  33.914  0.00  0.00    -0.201 NA
ATOM     14  C   UNL d   1     -50.348  26.900  34.677  0.00  0.00     0.280 C 
ATOM     15  O   UNL d   1     -50.758  26.594  35.322  0.00  0.00    -0.265 OA
BRANCH  14  16
ATOM     16  C   UNL d   1     -49.807  27.512  34.794  0.00  0.00     0.058 A 
ATOM     17  C   UNL d   1     -49.749  28.124  34.240  0.00  0.00     0.005 A 
ATOM     18  C   UNL d   1     -49.208  28.736  34.357  0.00  0.00     0.000 A 
ATOM     19  C   UNL d   1     -48.717  28.746  35.031  0.00  0.00     0.000 A 
ATOM     20  C   UNL d   1     -48.786  28.129  35.576  0.00  0.00     0.000 A 
ATOM     21  C   UNL d   1     -49.327  27.517  35.459  0.00  0.00     0.005 A 
ENDBRANCH  14  16
ENDBRANCH   1  13
BRANCH   2  22
ATOM     22  C   UNL d   1     -50.083  24.933  33.406  0.00  0.00     0.299 C 
ATOM     23  O   UNL d   1     -49.460  25.467  33.312  0.00  0.00    -0.264 OA
ATOM     24  N   UNL d   1     -49.948  24.123  33.343  0.00  0.00    -0.102 N 
ENDBRANCH   2  22
TORSDOF 3
ENDMDL
MODEL 2
REMARK VINA RESULT:      64.9      1.335      2.100
REMARK  3 active torsions:
REMARK  status: ('A' for Active; 'I' for Inactive)
REMARK    1  A    between atoms: N_6  and  C_1 
REMARK    2  A    between atoms: C_9  and  C_2 
REMARK       I    between atoms: C_8  and  N_6 
REMARK       I    between atoms: C_11  and  N_7 
REMARK    3  A    between atoms: C_17  and  C_8 
ROOT
ATOM      1  C   UNL d   1     -50.337  26.926  33.788  0.00  0.00     0.119 A 
ATOM      2  C   UNL d   1     -51.146  26.925  33.643  0.00  0.00     0.084 A 
ATOM      3  C   UNL d   1     -50.732  25.660  33.677  0.00  0.00     0.049 A 
ATOM      4  C   UNL d   1     -51.393  26.136  33.574  0.00  0.00     0.016 A 
ATOM      5  S   UNL d   1     -50.077  26.140  33.809  0.00  0.00    -0.066 SA
ATOM      6  N   UNL d   1     -51.554  24.496  33.493  0.00  0.00    -0.272 N 
ATOM      7  C   UNL d   1     -50.820  24.829  33.635  0.00  0.00     0.089 A 
ATOM      8  C   UNL d   1     -51.647  23.678  33.451  0.00  0.00     0.265 C 
ATOM      9  C   UNL d   1     -52.137  25.808  33.430  0.00  0.00     0.020 A 
ATOM     10  C   UNL d   1     -52.218  24.989  33.390  0.00  0.00     0.083 A 
ATOM     11  O   UNL d   1     -50.990  23.190  33.553  0.00  0.00    -0.267 OA
ATOM     12  C   UNL d   1     -52.382  23.344  33.309  0.00  0.00     0.066 C 
ENDROOT
BRANCH   1  13
ATOM     13  N   UNL d   1     -49.855  27.597  33.895  0.00  0.00    -0.201 NA
ATOM     14  C   UNL d   1     -49.402  27.663  34.583  0.00  0.00     0.280 C 
ATOM     15  O   UNL d   1     -49.419  27.081  35.164  0.00  0.00    -0.265 OA
BRANCH  14  16
ATOM     16  C   UNL d   1     -48.925  28.328  34.690  0.00  0.00     0.058 A 
ATOM     17  C   UNL d   1     -48.509  28.429  35.398  0.00  0.00     0.005 A 
ATOM     18  C   UNL d   1     -48.032  29.093  35.504  0.00  0.00     0.000 A 
ATOM     19  C   UNL d   1     -47.962  29.667  34.904  0.00  0.00     0.000 A 
ATOM     20  C   UNL d   1     -48.383  29.554  34.202  0.00  0.00     0.000 A 
ATOM     21  C   UNL d   1     -48.860  28.889  34.096  0.00  0.00     0.005 A 
ENDBRANCH  14  16
ENDBRANCH   1  13
BRANCH   2  22
ATOM     22  C   UNL d   1     -51.617  27.594  33.579  0.00  0.00     0.299 C 
ATOM     23  O   UNL d   1     -51.282  28.298  33.306  0.00  0.00    -0.264 OA
ATOM     24  N   UNL d   1     -52.414  27.567  33.785  0.00  0.00    -0.102 N 
ENDBRANCH   2  22
TORSDOF 3
ENDMDL
