MODEL 1
REMARK VINA RESULT:      74.3      0.000      0.000
REMARK  5 active torsions:
REMARK  status: ('A' for Active; 'I' for Inactive)
REMARK    1  A    between atoms: C_6  and  C_1 
REMARK    2  A    between atoms: C_14  and  N_3 
REMARK    3  A    between atoms: O_9  and  C_6 
REMARK    4  A    between atoms: C_15  and  O_9 
REMARK    5  A    between atoms: C_16  and  C_14 
ROOT
ATOM      1  C   UNL d   1     -56.189 -99.578 -44.095  0.00  0.00     0.120 A 
ATOM      2  C   UNL d   1     -55.865 -99.429 -43.351  0.00  0.00     0.177 A 
ATOM      3  N   UNL d   1     -55.361-100.055 -43.166  0.00  0.00    -0.273 N 
ATOM      4  C   UNL d   1     -55.372-100.591 -43.791  0.00  0.00     0.167 A 
ATOM      5  C   UNL d   1     -55.883-100.295 -44.362  0.00  0.00     0.124 A 
ATOM      6  N   UNL d   1     -54.982-101.303 -43.906  0.00  0.00    -0.225 NA
ATOM      7  N   UNL d   1     -56.004-100.719 -45.055  0.00  0.00    -0.241 NA
ATOM      8  C   UNL d   1     -55.104-101.726 -44.599  0.00  0.00     0.101 A 
ATOM      9  C   UNL d   1     -55.615-101.436 -45.176  0.00  0.00     0.099 A 
ATOM     10  N   UNL d   1     -56.012 -98.773 -42.870  0.00  0.00    -0.128 N 
ATOM     11  C   UNL d   1     -54.714-102.438 -44.713  0.00  0.00     0.021 A 
ATOM     12  C   UNL d   1     -55.733-101.861 -45.866  0.00  0.00     0.021 A 
ATOM     13  C   UNL d   1     -54.836-102.868 -45.415  0.00  0.00     0.002 A 
ATOM     14  C   UNL d   1     -55.344-102.573 -45.981  0.00  0.00     0.002 A 
ENDROOT
BRANCH   1  15
ATOM     15  C   UNL d   1     -56.725 -99.090 -44.492  0.00  0.00     0.300 C 
ATOM     16  O   UNL d   1     -56.516 -98.763 -45.217  0.00  0.00    -0.259 OA
BRANCH  15  17
ATOM     17  O   UNL d   1     -57.468 -98.928 -44.164  0.00  0.00    -0.303 OA
BRANCH  17  18
ATOM     18  C   UNL d   1     -58.141 -99.119 -44.581  0.00  0.00     0.102 C 
ATOM     19  C   UNL d   1     -57.689 -99.482 -45.170  0.00  0.00     0.030 C 
ATOM     20  C   UNL d   1     -58.604 -98.759 -43.997  0.00  0.00     0.030 C 
ATOM     21  C   UNL d   1     -58.840 -99.312 -45.004  0.00  0.00     0.030 C 
ENDBRANCH  17  18
ENDBRANCH  15  17
ENDBRANCH   1  15
BRANCH   3  22
ATOM     22  C   UNL d   1     -54.920-100.136 -42.476  0.00  0.00     0.083 C 
BRANCH  22  23
ATOM     23  C   UNL d   1     -55.237-100.556 -41.840  0.00  0.00     0.019 C 
ATOM     24  C   UNL d   1     -54.731-100.968 -41.330  0.00  0.00     0.002 C 
ENDBRANCH  22  23
ENDBRANCH   3  22
TORSDOF 5
ENDMDL
MODEL 2
REMARK VINA RESULT:      74.9      1.700      3.925
REMARK  5 active torsions:
REMARK  status: ('A' for Active; 'I' for Inactive)
REMARK    1  A    between atoms: C_6  and  C_1 
REMARK    2  A    between atoms: C_14  and  N_3 
REMARK    3  A    between atoms: O_9  and  C_6 
REMARK    4  A    between atoms: C_15  and  O_9 
REMARK    5  A    between atoms: C_16  and  C_14 
ROOT
ATOM      1  C   UNL d   1     -55.968-100.502 -43.979  0.00  0.00     0.120 A 
ATOM      2  C   UNL d   1     -55.501-100.069 -44.504  0.00  0.00     0.177 A 
ATOM      3  N   UNL d   1     -55.961 -99.451 -44.799  0.00  0.00    -0.273 N 
ATOM      4  C   UNL d   1     -56.709 -99.499 -44.459  0.00  0.00     0.167 A 
ATOM      5  C   UNL d   1     -56.712-100.147 -43.955  0.00  0.00     0.124 A 
ATOM      6  N   UNL d   1     -57.379 -99.035 -44.549  0.00  0.00    -0.225 NA
ATOM      7  N   UNL d   1     -57.393-100.331 -43.536  0.00  0.00    -0.241 NA
ATOM      8  C   UNL d   1     -58.060 -99.220 -44.130  0.00  0.00     0.101 A 
ATOM      9  C   UNL d   1     -58.071 -99.868 -43.622  0.00  0.00     0.099 A 
ATOM     10  N   UNL d   1     -54.713-100.220 -44.705  0.00  0.00    -0.128 N 
ATOM     11  C   UNL d   1     -58.730 -98.756 -44.220  0.00  0.00     0.021 A 
ATOM     12  C   UNL d   1     -58.753-100.049 -43.207  0.00  0.00     0.021 A 
ATOM     13  C   UNL d   1     -59.422 -98.942 -43.796  0.00  0.00     0.002 A 
ATOM     14  C   UNL d   1     -59.423 -99.586 -43.296  0.00  0.00     0.002 A 
ENDROOT
BRANCH   1  15
ATOM     15  C   UNL d   1     -55.724-101.170 -43.559  0.00  0.00     0.300 C 
ATOM     16  O   UNL d   1     -55.613-101.882 -43.956  0.00  0.00    -0.259 OA
BRANCH  15  17
ATOM     17  O   UNL d   1     -55.592-101.127 -42.743  0.00  0.00    -0.303 OA
BRANCH  17  18
ATOM     18  C   UNL d   1     -55.247-101.757 -42.358  0.00  0.00     0.102 C 
ATOM     19  C   UNL d   1     -55.777-102.282 -42.714  0.00  0.00     0.030 C 
ATOM     20  C   UNL d   1     -54.711-101.242 -41.995  0.00  0.00     0.030 C 
ATOM     21  C   UNL d   1     -54.886-102.401 -41.957  0.00  0.00     0.030 C 
ENDBRANCH  17  18
ENDBRANCH  15  17
ENDBRANCH   1  15
BRANCH   3  22
ATOM     22  C   UNL d   1     -55.717 -98.881 -45.339  0.00  0.00     0.083 C 
BRANCH  22  23
ATOM     23  C   UNL d   1     -55.151 -99.076 -45.908  0.00  0.00     0.019 C 
ATOM     24  C   UNL d   1     -55.213 -98.761 -46.671  0.00  0.00     0.002 C 
ENDBRANCH  22  23
ENDBRANCH   3  22
TORSDOF 5
ENDMDL
