MODEL 1
REMARK VINA RESULT:      -7.8      0.000      0.000
REMARK  5 active torsions:
REMARK  status: ('A' for Active; 'I' for Inactive)
REMARK    1  A    between atoms: C_2  and  S_1 
REMARK    2  A    between atoms: N_5  and  S_1 
REMARK    3  A    between atoms: O_14  and  C_4 
REMARK    4  A    between atoms: C_11  and  N_5 
REMARK    5  A    between atoms: C_15  and  C_11 
ROOT
ATOM      1  C   UNL d   1      52.911  33.470  53.652  0.00  0.00     0.128 A 
ATOM      2  C   UNL d   1      53.367  33.691  54.300  0.00  0.00     0.026 A 
ATOM      3  C   UNL d   1      52.481  34.039  53.239  0.00  0.00     0.106 A 
ATOM      4  C   UNL d   1      53.394  34.481  54.536  0.00  0.00     0.059 A 
ATOM      5  C   UNL d   1      52.508  34.829  53.476  0.00  0.00     0.026 A 
ATOM      6  C   UNL d   1      52.965  35.050  54.125  0.00  0.00     0.013 A 
ATOM      7 CL   UNL d   1      53.851  34.702  55.185  0.00  0.00    -0.082 Cl
ATOM      8  C   UNL d   1      52.992  35.840  54.362  0.00  0.00     0.001 C 
ENDROOT
BRANCH   1   9
ATOM      9  S   UNL d   1      52.884  32.680  53.415  0.00  0.00     0.287 S 
ATOM     10  O   UNL d   1      52.180  32.579  53.833  0.00  0.00    -0.198 OA
ATOM     11  O   UNL d   1      53.589  32.781  52.998  0.00  0.00    -0.198 OA
BRANCH   9  12
ATOM     12  N   UNL d   1      52.858  31.890  53.179  0.00  0.00    -0.155 NA
BRANCH  12  13
ATOM     13  C   UNL d   1      53.395  31.348  53.488  0.00  0.00     0.137 C 
BRANCH  13  14
ATOM     14  C   UNL d   1      53.238  30.539  53.446  0.00  0.00     0.120 A 
ATOM     15  O   UNL d   1      52.871  30.147  52.819  0.00  0.00    -0.304 OA
ATOM     16  C   UNL d   1      52.827  29.351  53.008  0.00  0.00     0.123 A 
ATOM     17  C   UNL d   1      53.164  29.237  53.753  0.00  0.00     0.029 A 
ATOM     18  C   UNL d   1      53.417  29.978  54.019  0.00  0.00     0.028 A 
ENDBRANCH  13  14
ENDBRANCH  12  13
ENDBRANCH   9  12
ENDBRANCH   1   9
BRANCH   3  19
ATOM     19  O   UNL d   1      52.022  33.819  52.588  0.00  0.00    -0.327 OA
ATOM     20  C   UNL d   1      51.538  34.373  52.219  0.00  0.00     0.181 C 
ENDBRANCH   3  19
TORSDOF 5
ENDMDL
MODEL 2
REMARK VINA RESULT:      -7.7      1.570      3.725
REMARK  5 active torsions:
REMARK  status: ('A' for Active; 'I' for Inactive)
REMARK    1  A    between atoms: C_2  and  S_1 
REMARK    2  A    between atoms: N_5  and  S_1 
REMARK    3  A    between atoms: O_14  and  C_4 
REMARK    4  A    between atoms: C_11  and  N_5 
REMARK    5  A    between atoms: C_15  and  C_11 
ROOT
ATOM      1  C   UNL d   1      52.426  33.424  53.547  0.00  0.00     0.128 A 
ATOM      2  C   UNL d   1      52.722  33.979  54.077  0.00  0.00     0.026 A 
ATOM      3  C   UNL d   1      52.806  32.700  53.455  0.00  0.00     0.106 A 
ATOM      4  C   UNL d   1      53.399  33.810  54.517  0.00  0.00     0.059 A 
ATOM      5  C   UNL d   1      53.484  32.531  53.895  0.00  0.00     0.026 A 
ATOM      6  C   UNL d   1      53.780  33.086  54.427  0.00  0.00     0.013 A 
ATOM      7 CL   UNL d   1      53.696  34.366  55.048  0.00  0.00    -0.082 Cl
ATOM      8  C   UNL d   1      54.457  32.917  54.867  0.00  0.00     0.001 C 
ENDROOT
BRANCH   1   9
ATOM      9  S   UNL d   1      51.749  33.593  53.107  0.00  0.00     0.287 S 
ATOM     10  O   UNL d   1      52.215  33.951  52.527  0.00  0.00    -0.198 OA
ATOM     11  O   UNL d   1      51.283  33.236  53.686  0.00  0.00    -0.198 OA
BRANCH   9  12
ATOM     12  N   UNL d   1      51.072  33.762  52.667  0.00  0.00    -0.155 NA
BRANCH  12  13
ATOM     13  C   UNL d   1      50.605  34.413  52.860  0.00  0.00     0.137 C 
BRANCH  13  14
ATOM     14  C   UNL d   1      49.918  34.571  52.432  0.00  0.00     0.120 A 
ATOM     15  O   UNL d   1      49.774  34.362  51.647  0.00  0.00    -0.304 OA
ATOM     16  C   UNL d   1      49.025  34.626  51.446  0.00  0.00     0.123 A 
ATOM     17  C   UNL d   1      48.693  35.003  52.101  0.00  0.00     0.029 A 
ATOM     18  C   UNL d   1      49.252  34.966  52.710  0.00  0.00     0.028 A 
ENDBRANCH  13  14
ENDBRANCH  12  13
ENDBRANCH   9  12
ENDBRANCH   1   9
BRANCH   3  19
ATOM     19  O   UNL d   1      52.511  32.140  52.923  0.00  0.00    -0.327 OA
ATOM     20  C   UNL d   1      52.829  31.382  52.903  0.00  0.00     0.181 C 
ENDBRANCH   3  19
TORSDOF 5
ENDMDL
