MODEL 1
REMARK VINA RESULT:      -8.0      0.000      0.000
REMARK  3 active torsions:
REMARK  status: ('A' for Active; 'I' for Inactive)
REMARK    1  A    between atoms: N_9  and  C_5 
REMARK    2  A    between atoms: C_12  and  N_9 
REMARK    3  A    between atoms: C_13  and  C_12 
ROOT
ATOM      1  C   UNL d   1     -47.212  13.167  23.113  0.00  0.00     0.153 A 
ATOM      2  O   UNL d   1     -47.591  12.487  23.378  0.00  0.00    -0.302 OA
ATOM      3  C   UNL d   1     -46.410  12.993  23.017  0.00  0.00     0.111 A 
ATOM      4  C   UNL d   1     -46.299  12.198  23.226  0.00  0.00     0.043 A 
ATOM      5  C   UNL d   1     -47.495  13.928  22.944  0.00  0.00     0.189 A 
ATOM      6  C   UNL d   1     -47.024  11.890  23.447  0.00  0.00     0.102 A 
ATOM      7  N   UNL d   1     -46.974  14.511  22.681  0.00  0.00    -0.203 NA
ATOM      8  N   UNL d   1     -45.898  13.582  22.754  0.00  0.00    -0.222 NA
ATOM      9  C   UNL d   1     -46.173  14.337  22.586  0.00  0.00     0.201 A 
ATOM     10  C   UNL d   1     -45.625  11.734  23.238  0.00  0.00     0.004 A 
ATOM     11  C   UNL d   1     -47.077  11.103  23.684  0.00  0.00     0.025 A 
ATOM     12  C   UNL d   1     -45.677  10.947  23.475  0.00  0.00     0.000 A 
ATOM     13  C   UNL d   1     -46.403  10.630  23.698  0.00  0.00     0.002 A 
ENDROOT
BRANCH   5  14
ATOM     14  N   UNL d   1     -48.301  14.101  23.040  0.00  0.00    -0.222 NA
BRANCH  14  15
ATOM     15  C   UNL d   1     -48.595  14.824  22.774  0.00  0.00     0.120 C 
BRANCH  15  16
ATOM     16  C   UNL d   1     -49.395  14.997  22.874  0.00  0.00     0.101 A 
ATOM     17  N   UNL d   1     -49.951  14.707  22.336  0.00  0.00    -0.242 NA
ATOM     18  C   UNL d   1     -50.757  14.876  22.429  0.00  0.00     0.099 A 
ATOM     19  C   UNL d   1     -51.005  15.341  23.070  0.00  0.00     0.021 A 
ATOM     20  C   UNL d   1     -50.450  15.630  23.607  0.00  0.00     0.003 A 
ATOM     21  C   UNL d   1     -49.644  15.457  23.508  0.00  0.00     0.021 A 
ENDBRANCH  15  16
ENDBRANCH  14  15
ENDBRANCH   5  14
TORSDOF 3
ENDMDL
MODEL 2
REMARK VINA RESULT:      -7.1      1.137      4.388
REMARK  3 active torsions:
REMARK  status: ('A' for Active; 'I' for Inactive)
REMARK    1  A    between atoms: N_9  and  C_5 
REMARK    2  A    between atoms: C_12  and  N_9 
REMARK    3  A    between atoms: C_13  and  C_12 
ROOT
ATOM      1  C   UNL d   1     -48.472  13.630  22.438  0.00  0.00     0.153 A 
ATOM      2  O   UNL d   1     -48.969  13.006  22.237  0.00  0.00    -0.302 OA
ATOM      3  C   UNL d   1     -48.899  14.332  22.359  0.00  0.00     0.111 A 
ATOM      4  C   UNL d   1     -49.663  14.136  22.106  0.00  0.00     0.043 A 
ATOM      5  C   UNL d   1     -47.681  13.649  22.686  0.00  0.00     0.189 A 
ATOM      6  C   UNL d   1     -49.703  13.321  22.032  0.00  0.00     0.102 A 
ATOM      7  N   UNL d   1     -47.320  14.373  22.853  0.00  0.00    -0.203 NA
ATOM      8  N   UNL d   1     -48.530  15.050  22.528  0.00  0.00    -0.222 NA
ATOM      9  C   UNL d   1     -47.747  15.075  22.774  0.00  0.00     0.201 A 
ATOM     10  C   UNL d   1     -50.313  14.605  21.940  0.00  0.00     0.004 A 
ATOM     11  C   UNL d   1     -50.407  12.970  21.787  0.00  0.00     0.025 A 
ATOM     12  C   UNL d   1     -51.016  14.254  21.695  0.00  0.00     0.000 A 
ATOM     13  C   UNL d   1     -51.064  13.436  21.618  0.00  0.00     0.002 A 
ENDROOT
BRANCH   5  14
ATOM     14  N   UNL d   1     -47.253  12.943  22.765  0.00  0.00    -0.222 NA
BRANCH  14  15
ATOM     15  C   UNL d   1     -46.583  12.925  23.244  0.00  0.00     0.120 C 
BRANCH  15  16
ATOM     16  C   UNL d   1     -46.140  12.231  23.296  0.00  0.00     0.101 A 
ATOM     17  N   UNL d   1     -45.367  12.212  23.008  0.00  0.00    -0.242 NA
ATOM     18  C   UNL d   1     -44.916  11.519  23.056  0.00  0.00     0.099 A 
ATOM     19  C   UNL d   1     -45.246  10.839  23.398  0.00  0.00     0.021 A 
ATOM     20  C   UNL d   1     -46.019  10.859  23.686  0.00  0.00     0.003 A 
ATOM     21  C   UNL d   1     -46.466  11.556  23.635  0.00  0.00     0.021 A 
ENDBRANCH  15  16
ENDBRANCH  14  15
ENDBRANCH   5  14
TORSDOF 3
ENDMDL
MODEL 3
REMARK VINA RESULT:      -6.9      1.687      4.135
REMARK  3 active torsions:
REMARK  status: ('A' for Active; 'I' for Inactive)
REMARK    1  A    between atoms: N_9  and  C_5 
REMARK    2  A    between atoms: C_12  and  N_9 
REMARK    3  A    between atoms: C_13  and  C_12 
ROOT
ATOM      1  C   UNL d   1     -48.507  13.284  22.907  0.00  0.00     0.153 A 
ATOM      2  O   UNL d   1     -48.676  12.488  23.028  0.00  0.00    -0.302 OA
ATOM      3  C   UNL d   1     -49.201  13.714  23.032  0.00  0.00     0.111 A 
ATOM      4  C   UNL d   1     -49.799  13.176  23.231  0.00  0.00     0.043 A 
ATOM      5  C   UNL d   1     -47.807  13.676  22.698  0.00  0.00     0.189 A 
ATOM      6  C   UNL d   1     -49.474  12.424  23.228  0.00  0.00     0.102 A 
ATOM      7  N   UNL d   1     -47.804  14.496  22.614  0.00  0.00    -0.203 NA
ATOM      8  N   UNL d   1     -49.188  14.534  22.946  0.00  0.00    -0.222 NA
ATOM      9  C   UNL d   1     -48.498  14.927  22.739  0.00  0.00     0.201 A 
ATOM     10  C   UNL d   1     -50.589  13.291  23.411  0.00  0.00     0.004 A 
ATOM     11  C   UNL d   1     -49.949  11.776  23.408  0.00  0.00     0.025 A 
ATOM     12  C   UNL d   1     -51.064  12.642  23.591  0.00  0.00     0.000 A 
ATOM     13  C   UNL d   1     -50.744  11.884  23.590  0.00  0.00     0.002 A 
ENDROOT
BRANCH   5  14
ATOM     14  N   UNL d   1     -47.111  13.242  22.572  0.00  0.00    -0.222 NA
BRANCH  14  15
ATOM     15  C   UNL d   1     -46.381  13.587  22.741  0.00  0.00     0.120 C 
BRANCH  15  16
ATOM     16  C   UNL d   1     -45.689  13.174  22.570  0.00  0.00     0.101 A 
ATOM     17  N   UNL d   1     -45.476  12.518  23.023  0.00  0.00    -0.242 NA
ATOM     18  C   UNL d   1     -44.781  12.097  22.858  0.00  0.00     0.099 A 
ATOM     19  C   UNL d   1     -44.297  12.340  22.229  0.00  0.00     0.021 A 
ATOM     20  C   UNL d   1     -44.510  12.996  21.776  0.00  0.00     0.003 A 
ATOM     21  C   UNL d   1     -45.206  13.412  21.948  0.00  0.00     0.021 A 
ENDBRANCH  15  16
ENDBRANCH  14  15
ENDBRANCH   5  14
TORSDOF 3
ENDMDL
MODEL 4
REMARK VINA RESULT:      -6.6      1.438      4.768
REMARK  3 active torsions:
REMARK  status: ('A' for Active; 'I' for Inactive)
REMARK    1  A    between atoms: N_9  and  C_5 
REMARK    2  A    between atoms: C_12  and  N_9 
REMARK    3  A    between atoms: C_13  and  C_12 
ROOT
ATOM      1  C   UNL d   1     -49.362  13.378  23.341  0.00  0.00     0.153 A 
ATOM      2  O   UNL d   1     -49.021  14.125  23.383  0.00  0.00    -0.302 OA
ATOM      3  C   UNL d   1     -50.182  13.470  23.340  0.00  0.00     0.111 A 
ATOM      4  C   UNL d   1     -50.344  14.282  23.382  0.00  0.00     0.043 A 
ATOM      5  C   UNL d   1     -49.029  12.619  23.304  0.00  0.00     0.189 A 
ATOM      6  C   UNL d   1     -49.630  14.682  23.408  0.00  0.00     0.102 A 
ATOM      7  N   UNL d   1     -49.519  11.957  23.265  0.00  0.00    -0.203 NA
ATOM      8  N   UNL d   1     -50.664  12.803  23.302  0.00  0.00    -0.222 NA
ATOM      9  C   UNL d   1     -50.340  12.049  23.264  0.00  0.00     0.201 A 
ATOM     10  C   UNL d   1     -51.054  14.690  23.398  0.00  0.00     0.004 A 
ATOM     11  C   UNL d   1     -49.626  15.504  23.451  0.00  0.00     0.025 A 
ATOM     12  C   UNL d   1     -51.050  15.512  23.441  0.00  0.00     0.000 A 
ATOM     13  C   UNL d   1     -50.336  15.921  23.468  0.00  0.00     0.002 A 
ENDROOT
BRANCH   5  14
ATOM     14  N   UNL d   1     -48.204  12.528  23.305  0.00  0.00    -0.222 NA
BRANCH  14  15
ATOM     15  C   UNL d   1     -47.880  11.771  23.267  0.00  0.00     0.120 C 
BRANCH  15  16
ATOM     16  C   UNL d   1     -47.060  11.680  23.285  0.00  0.00     0.101 A 
ATOM     17  N   UNL d   1     -46.576  12.229  22.905  0.00  0.00    -0.242 NA
ATOM     18  C   UNL d   1     -45.751  12.146  22.918  0.00  0.00     0.099 A 
ATOM     19  C   UNL d   1     -45.412  11.503  23.318  0.00  0.00     0.021 A 
ATOM     20  C   UNL d   1     -45.897  10.954  23.698  0.00  0.00     0.003 A 
ATOM     21  C   UNL d   1     -46.721  11.044  23.681  0.00  0.00     0.021 A 
ENDBRANCH  15  16
ENDBRANCH  14  15
ENDBRANCH   5  14
TORSDOF 3
ENDMDL
MODEL 5
REMARK VINA RESULT:      -5.9      1.613      2.378
REMARK  3 active torsions:
REMARK  status: ('A' for Active; 'I' for Inactive)
REMARK    1  A    between atoms: N_9  and  C_5 
REMARK    2  A    between atoms: C_12  and  N_9 
REMARK    3  A    between atoms: C_13  and  C_12 
ROOT
ATOM      1  C   UNL d   1     -45.899  12.810  22.646  0.00  0.00     0.153 A 
ATOM      2  O   UNL d   1     -45.537  13.320  22.112  0.00  0.00    -0.302 OA
ATOM      3  C   UNL d   1     -45.370  12.200  22.816  0.00  0.00     0.111 A 
ATOM      4  C   UNL d   1     -44.678  12.338  22.381  0.00  0.00     0.043 A 
ATOM      5  C   UNL d   1     -46.647  12.823  23.003  0.00  0.00     0.189 A 
ATOM      6  C   UNL d   1     -44.783  13.026  21.950  0.00  0.00     0.102 A 
ATOM      7  N   UNL d   1     -46.862  12.224  23.528  0.00  0.00    -0.203 NA
ATOM      8  N   UNL d   1     -45.593  11.606  23.342  0.00  0.00    -0.222 NA
ATOM      9  C   UNL d   1     -46.333  11.614  23.698  0.00  0.00     0.201 A 
ATOM     10  C   UNL d   1     -43.978  11.916  22.334  0.00  0.00     0.004 A 
ATOM     11  C   UNL d   1     -44.176  13.297  21.463  0.00  0.00     0.025 A 
ATOM     12  C   UNL d   1     -43.371  12.187  21.847  0.00  0.00     0.000 A 
ATOM     13  C   UNL d   1     -43.470  12.878  21.411  0.00  0.00     0.002 A 
ENDROOT
BRANCH   5  14
ATOM     14  N   UNL d   1     -47.178  13.437  22.831  0.00  0.00    -0.222 NA
BRANCH  14  15
ATOM     15  C   UNL d   1     -47.983  13.330  22.974  0.00  0.00     0.120 C 
BRANCH  15  16
ATOM     16  C   UNL d   1     -48.517  13.913  22.738  0.00  0.00     0.101 A 
ATOM     17  N   UNL d   1     -48.573  14.618  23.162  0.00  0.00    -0.242 NA
ATOM     18  C   UNL d   1     -49.107  15.209  22.931  0.00  0.00     0.099 A 
ATOM     19  C   UNL d   1     -49.589  15.087  22.267  0.00  0.00     0.021 A 
ATOM     20  C   UNL d   1     -49.533  14.381  21.844  0.00  0.00     0.003 A 
ATOM     21  C   UNL d   1     -48.996  13.794  22.080  0.00  0.00     0.021 A 
ENDBRANCH  15  16
ENDBRANCH  14  15
ENDBRANCH   5  14
TORSDOF 3
ENDMDL
MODEL 6
REMARK VINA RESULT:      -5.5      8.930      9.976
REMARK  3 active torsions:
REMARK  status: ('A' for Active; 'I' for Inactive)
REMARK    1  A    between atoms: N_9  and  C_5 
REMARK    2  A    between atoms: C_12  and  N_9 
REMARK    3  A    between atoms: C_13  and  C_12 
ROOT
ATOM      1  C   UNL d   1     -39.633  14.529  18.782  0.00  0.00     0.153 A 
ATOM      2  O   UNL d   1     -40.171  15.134  18.923  0.00  0.00    -0.302 OA
ATOM      3  C   UNL d   1     -39.671  14.333  17.980  0.00  0.00     0.111 A 
ATOM      4  C   UNL d   1     -40.238  14.825  17.628  0.00  0.00     0.043 A 
ATOM      5  C   UNL d   1     -39.108  14.126  19.283  0.00  0.00     0.189 A 
ATOM      6  C   UNL d   1     -40.543  15.315  18.209  0.00  0.00     0.102 A 
ATOM      7  N   UNL d   1     -38.625  13.531  18.979  0.00  0.00    -0.203 NA
ATOM      8  N   UNL d   1     -39.184  13.737  17.686  0.00  0.00    -0.222 NA
ATOM      9  C   UNL d   1     -38.663  13.335  18.178  0.00  0.00     0.201 A 
ATOM     10  C   UNL d   1     -40.502  14.874  16.855  0.00  0.00     0.004 A 
ATOM     11  C   UNL d   1     -41.124  15.866  18.012  0.00  0.00     0.025 A 
ATOM     12  C   UNL d   1     -41.082  15.425  16.658  0.00  0.00     0.000 A 
ATOM     13  C   UNL d   1     -41.394  15.921  17.236  0.00  0.00     0.002 A 
ENDROOT
BRANCH   5  14
ATOM     14  N   UNL d   1     -39.071  14.323  20.088  0.00  0.00    -0.222 NA
BRANCH  14  15
ATOM     15  C   UNL d   1     -38.558  13.910  20.584  0.00  0.00     0.120 C 
BRANCH  15  16
ATOM     16  C   UNL d   1     -38.542  14.088  21.389  0.00  0.00     0.101 A 
ATOM     17  N   UNL d   1     -38.183  14.783  21.651  0.00  0.00    -0.242 NA
ATOM     18  C   UNL d   1     -38.162  14.970  22.459  0.00  0.00     0.099 A 
ATOM     19  C   UNL d   1     -38.507  14.451  23.006  0.00  0.00     0.021 A 
ATOM     20  C   UNL d   1     -38.866  13.756  22.744  0.00  0.00     0.003 A 
ATOM     21  C   UNL d   1     -38.883  13.576  21.934  0.00  0.00     0.021 A 
ENDBRANCH  15  16
ENDBRANCH  14  15
ENDBRANCH   5  14
TORSDOF 3
ENDMDL
