MODEL 1
REMARK VINA RESULT:      -3.1      0.000      0.000
REMARK  7 active torsions:
REMARK  status: ('A' for Active; 'I' for Inactive)
REMARK    1  A    between atoms: N_2  and  C_1 
REMARK    2  A    between atoms: C_5  and  C_1 
REMARK    3  A    between atoms: O_4  and  N_2 
REMARK    4  A    between atoms: C_3  and  O_4 
REMARK    5  A    between atoms: C_6  and  C_3 
REMARK    6  A    between atoms: C_17  and  C_14 
REMARK    7  A    between atoms: C_18  and  C_17 
ROOT
ATOM      1  C   UNL d   1      32.913  19.279 -23.112  0.00  0.00     0.319 C 
ATOM      2  O   UNL d   1      33.241  19.769 -23.695  0.00  0.00    -0.257 OA
ENDROOT
BRANCH   1   3
ATOM      3  O   UNL d   1      32.897  19.525 -22.327  0.00  0.00    -0.168 OA
BRANCH   3   4
ATOM      4  N   UNL d   1      32.996  20.323 -22.141  0.00  0.00    -0.100 NA
BRANCH   4   5
ATOM      5  C   UNL d   1      33.012  20.564 -21.354  0.00  0.00     0.228 C 
ATOM      6  N   UNL d   1      33.240  20.034 -20.767  0.00  0.00    -0.123 N 
BRANCH   5   7
ATOM      7  C   UNL d   1      32.801  21.336 -21.154  0.00  0.00     0.121 A 
ATOM      8  N   UNL d   1      33.214  21.976 -21.485  0.00  0.00    -0.241 NA
ATOM      9  C   UNL d   1      33.001  22.755 -21.283  0.00  0.00     0.099 A 
ATOM     10  C   UNL d   1      32.376  22.887 -20.752  0.00  0.00     0.021 A 
ATOM     11  C   UNL d   1      31.969  22.251 -20.426  0.00  0.00     0.003 A 
ATOM     12  C   UNL d   1      32.180  21.479 -20.626  0.00  0.00     0.022 A 
ENDBRANCH   5   7
ENDBRANCH   4   5
ENDBRANCH   3   4
ENDBRANCH   1   3
BRANCH   1  13
ATOM     13  C   UNL d   1      32.602  18.538 -23.322  0.00  0.00     0.065 A 
ATOM     14  C   UNL d   1      32.816  17.872 -22.885  0.00  0.00     0.005 A 
ATOM     15  C   UNL d   1      32.510  17.136 -23.090  0.00  0.00     0.000 A 
ATOM     16  C   UNL d   1      31.990  17.066 -23.734  0.00  0.00     0.000 A 
ATOM     17  C   UNL d   1      31.781  17.736 -24.167  0.00  0.00     0.000 A 
ATOM     18  C   UNL d   1      32.092  18.477 -23.957  0.00  0.00     0.005 A 
BRANCH  16  19
ATOM     19  C   UNL d   1      31.686  16.324 -23.936  0.00  0.00     0.000 C 
BRANCH  19  20
ATOM     20  C   UNL d   1      30.872  16.192 -23.913  0.00  0.00     0.000 C 
ATOM     21  C   UNL d   1      30.561  15.453 -24.097  0.00  0.00     0.000 C 
ENDBRANCH  19  20
ENDBRANCH  16  19
ENDBRANCH   1  13
TORSDOF 7
ENDMDL
MODEL 2
REMARK VINA RESULT:      -2.9      1.676      5.193
REMARK  7 active torsions:
REMARK  status: ('A' for Active; 'I' for Inactive)
REMARK    1  A    between atoms: N_2  and  C_1 
REMARK    2  A    between atoms: C_5  and  C_1 
REMARK    3  A    between atoms: O_4  and  N_2 
REMARK    4  A    between atoms: C_3  and  O_4 
REMARK    5  A    between atoms: C_6  and  C_3 
REMARK    6  A    between atoms: C_17  and  C_14 
REMARK    7  A    between atoms: C_18  and  C_17 
ROOT
ATOM      1  C   UNL d   1      32.882  18.909 -22.721  0.00  0.00     0.319 C 
ATOM      2  O   UNL d   1      33.241  18.312 -22.272  0.00  0.00    -0.257 OA
ENDROOT
BRANCH   1   3
ATOM      3  O   UNL d   1      32.478  18.721 -23.413  0.00  0.00    -0.168 OA
BRANCH   3   4
ATOM      4  N   UNL d   1      32.144  17.972 -23.506  0.00  0.00    -0.100 NA
BRANCH   4   5
ATOM      5  C   UNL d   1      31.796  17.763 -24.222  0.00  0.00     0.228 C 
ATOM      6  N   UNL d   1      32.035  18.132 -24.918  0.00  0.00    -0.123 N 
BRANCH   5   7
ATOM      7  C   UNL d   1      31.210  17.183 -24.243  0.00  0.00     0.121 A 
ATOM      8  N   UNL d   1      31.417  16.383 -24.154  0.00  0.00    -0.241 NA
ATOM      9  C   UNL d   1      30.825  15.797 -24.175  0.00  0.00     0.099 A 
ATOM     10  C   UNL d   1      30.031  16.017 -24.284  0.00  0.00     0.021 A 
ATOM     11  C   UNL d   1      29.830  16.810 -24.371  0.00  0.00     0.003 A 
ATOM     12  C   UNL d   1      30.416  17.390 -24.351  0.00  0.00     0.022 A 
ENDBRANCH   5   7
ENDBRANCH   4   5
ENDBRANCH   3   4
ENDBRANCH   1   3
BRANCH   1  13
ATOM     13  C   UNL d   1      32.931  19.700 -22.469  0.00  0.00     0.065 A 
ATOM     14  C   UNL d   1      33.191  20.276 -22.999  0.00  0.00     0.005 A 
ATOM     15  C   UNL d   1      33.241  21.060 -22.754  0.00  0.00     0.000 A 
ATOM     16  C   UNL d   1      33.030  21.268 -21.978  0.00  0.00     0.000 A 
ATOM     17  C   UNL d   1      32.770  20.687 -21.454  0.00  0.00     0.000 A 
ATOM     18  C   UNL d   1      32.721  19.896 -21.705  0.00  0.00     0.005 A 
BRANCH  16  19
ATOM     19  C   UNL d   1      33.082  22.058 -21.738  0.00  0.00     0.000 C 
BRANCH  19  20
ATOM     20  C   UNL d   1      32.485  22.387 -21.273  0.00  0.00     0.000 C 
ATOM     21  C   UNL d   1      32.488  23.191 -21.093  0.00  0.00     0.000 C 
ENDBRANCH  19  20
ENDBRANCH  16  19
ENDBRANCH   1  13
TORSDOF 7
ENDMDL
MODEL 3
REMARK VINA RESULT:      -1.9      2.464      5.318
REMARK  7 active torsions:
REMARK  status: ('A' for Active; 'I' for Inactive)
REMARK    1  A    between atoms: N_2  and  C_1 
REMARK    2  A    between atoms: C_5  and  C_1 
REMARK    3  A    between atoms: O_4  and  N_2 
REMARK    4  A    between atoms: C_3  and  O_4 
REMARK    5  A    between atoms: C_6  and  C_3 
REMARK    6  A    between atoms: C_17  and  C_14 
REMARK    7  A    between atoms: C_18  and  C_17 
ROOT
ATOM      1  C   UNL d   1      32.213  17.407 -23.849  0.00  0.00     0.319 C 
ATOM      2  O   UNL d   1      32.616  16.698 -23.701  0.00  0.00    -0.257 OA
ENDROOT
BRANCH   1   3
ATOM      3  O   UNL d   1      31.558  17.413 -24.348  0.00  0.00    -0.168 OA
BRANCH   3   4
ATOM      4  N   UNL d   1      30.996  16.811 -24.301  0.00  0.00    -0.100 NA
BRANCH   4   5
ATOM      5  C   UNL d   1      30.229  16.942 -24.572  0.00  0.00     0.228 C 
ATOM      6  N   UNL d   1      30.076  17.566 -25.086  0.00  0.00    -0.123 N 
BRANCH   5   7
ATOM      7  C   UNL d   1      29.615  16.447 -24.328  0.00  0.00     0.121 A 
ATOM      8  N   UNL d   1      29.190  16.008 -24.891  0.00  0.00    -0.241 NA
ATOM      9  C   UNL d   1      28.570  15.509 -24.645  0.00  0.00     0.099 A 
ATOM     10  C   UNL d   1      28.382  15.453 -23.838  0.00  0.00     0.021 A 
ATOM     11  C   UNL d   1      28.805  15.888 -23.284  0.00  0.00     0.003 A 
ATOM     12  C   UNL d   1      29.419  16.383 -23.527  0.00  0.00     0.022 A 
ENDBRANCH   5   7
ENDBRANCH   4   5
ENDBRANCH   3   4
ENDBRANCH   1   3
BRANCH   1  13
ATOM     13  C   UNL d   1      32.471  18.111 -23.492  0.00  0.00     0.065 A 
ATOM     14  C   UNL d   1      32.692  18.102 -22.697  0.00  0.00     0.005 A 
ATOM     15  C   UNL d   1      32.948  18.798 -22.341  0.00  0.00     0.000 A 
ATOM     16  C   UNL d   1      32.983  19.503 -22.778  0.00  0.00     0.000 A 
ATOM     17  C   UNL d   1      32.760  19.504 -23.572  0.00  0.00     0.000 A 
ATOM     18  C   UNL d   1      32.502  18.800 -23.929  0.00  0.00     0.005 A 
BRANCH  16  19
ATOM     19  C   UNL d   1      33.241  20.199 -22.413  0.00  0.00     0.000 C 
BRANCH  19  20
ATOM     20  C   UNL d   1      32.777  20.556 -21.832  0.00  0.00     0.000 C 
ATOM     21  C   UNL d   1      32.987  21.287 -21.518  0.00  0.00     0.000 C 
ENDBRANCH  19  20
ENDBRANCH  16  19
ENDBRANCH   1  13
TORSDOF 7
ENDMDL
MODEL 4
REMARK VINA RESULT:      -0.2      2.852      6.357
REMARK  7 active torsions:
REMARK  status: ('A' for Active; 'I' for Inactive)
REMARK    1  A    between atoms: N_2  and  C_1 
REMARK    2  A    between atoms: C_5  and  C_1 
REMARK    3  A    between atoms: O_4  and  N_2 
REMARK    4  A    between atoms: C_3  and  O_4 
REMARK    5  A    between atoms: C_6  and  C_3 
REMARK    6  A    between atoms: C_17  and  C_14 
REMARK    7  A    between atoms: C_18  and  C_17 
ROOT
ATOM      1  C   UNL d   1      32.885  23.044 -19.539  0.00  0.00     0.319 C 
ATOM      2  O   UNL d   1      33.226  23.680 -19.946  0.00  0.00    -0.257 OA
ENDROOT
BRANCH   1   3
ATOM      3  O   UNL d   1      32.616  22.385 -19.952  0.00  0.00    -0.168 OA
BRANCH   3   4
ATOM      4  N   UNL d   1      32.890  22.235 -20.715  0.00  0.00    -0.100 NA
BRANCH   4   5
ATOM      5  C   UNL d   1      32.402  21.860 -21.262  0.00  0.00     0.228 C 
ATOM      6  N   UNL d   1      31.690  22.207 -21.483  0.00  0.00    -0.123 N 
BRANCH   5   7
ATOM      7  C   UNL d   1      32.627  21.136 -21.587  0.00  0.00     0.121 A 
ATOM      8  N   UNL d   1      33.000  21.115 -22.329  0.00  0.00    -0.241 NA
ATOM      9  C   UNL d   1      33.227  20.384 -22.658  0.00  0.00     0.099 A 
ATOM     10  C   UNL d   1      33.079  19.681 -22.241  0.00  0.00     0.021 A 
ATOM     11  C   UNL d   1      32.709  19.705 -21.507  0.00  0.00     0.003 A 
ATOM     12  C   UNL d   1      32.484  20.429 -21.182  0.00  0.00     0.022 A 
ENDBRANCH   5   7
ENDBRANCH   4   5
ENDBRANCH   3   4
ENDBRANCH   1   3
BRANCH   1  13
ATOM     13  C   UNL d   1      32.814  23.074 -18.711  0.00  0.00     0.065 A 
ATOM     14  C   UNL d   1      33.241  22.539 -18.251  0.00  0.00     0.005 A 
ATOM     15  C   UNL d   1      33.173  22.566 -17.431  0.00  0.00     0.000 A 
ATOM     16  C   UNL d   1      32.680  23.128 -17.071  0.00  0.00     0.000 A 
ATOM     17  C   UNL d   1      32.257  23.661 -17.538  0.00  0.00     0.000 A 
ATOM     18  C   UNL d   1      32.327  23.631 -18.366  0.00  0.00     0.005 A 
BRANCH  16  19
ATOM     19  C   UNL d   1      32.616  23.150 -16.247  0.00  0.00     0.000 C 
BRANCH  19  20
ATOM     20  C   UNL d   1      33.196  22.795 -15.779  0.00  0.00     0.000 C 
ATOM     21  C   UNL d   1      33.107  22.750 -14.962  0.00  0.00     0.000 C 
ENDBRANCH  19  20
ENDBRANCH  16  19
ENDBRANCH   1  13
TORSDOF 7
ENDMDL
