MODEL 1
REMARK VINA RESULT:      25.0      0.000      0.000
REMARK  2 active torsions:
REMARK  status: ('A' for Active; 'I' for Inactive)
REMARK    1  A    between atoms: C_6  and  N_1 
REMARK    2  A    between atoms: C_7  and  C_6 
ROOT
ATOM      1  N   UNL d   1      58.502  49.707  50.214  0.00  0.00    -0.268 N 
ATOM      2  C   UNL d   1      58.531  49.707  51.279  0.00  0.00     0.265 A 
ATOM      3  C   UNL d   1      59.281  49.707  50.019  0.00  0.00     0.067 A 
ATOM      4  C   UNL d   1      59.321  49.707  51.431  0.00  0.00     0.058 A 
ATOM      5  C   UNL d   1      59.715  49.707  50.722  0.00  0.00     0.021 A 
ATOM      6  O   UNL d   1      57.981  49.708  51.905  0.00  0.00    -0.267 OA
ATOM      7  C   UNL d   1      60.540  49.707  50.699  0.00  0.00     0.002 A 
ATOM      8  C   UNL d   1      59.675  49.707  49.294  0.00  0.00     0.018 A 
ATOM      9  C   UNL d   1      59.755  49.707  52.139  0.00  0.00     0.005 A 
ATOM     10  C   UNL d   1      60.500  49.707  49.271  0.00  0.00     0.002 A 
ATOM     11  C   UNL d   1      60.579  49.707  52.116  0.00  0.00     0.000 A 
ATOM     12  C   UNL d   1      60.977  49.707  51.385  0.00  0.00     0.000 A 
ATOM     13  C   UNL d   1      60.938  49.707  49.972  0.00  0.00     0.000 A 
ENDROOT
BRANCH   1  14
ATOM     14  C   UNL d   1      57.918  49.708  49.619  0.00  0.00     0.154 C 
BRANCH  14  15
ATOM     15  C   UNL d   1      57.124  49.634  49.849  0.00  0.00     0.230 C 
ATOM     16  O   UNL d   1      56.566  49.550  49.265  0.00  0.00    -0.643 OA
ATOM     17  O   UNL d   1      56.908  49.644  50.624  0.00  0.00    -0.643 OA
ENDBRANCH  14  15
ENDBRANCH   1  14
TORSDOF 2
ENDMDL
