MODEL 1
REMARK VINA RESULT:       1.6      0.000      0.000
REMARK  7 active torsions:
REMARK  status: ('A' for Active; 'I' for Inactive)
REMARK    1  A    between atoms: C_3  and  S_1 
REMARK    2  A    between atoms: N_4  and  S_1 
REMARK    3  A    between atoms: C_2  and  C_11 
REMARK       I    between atoms: N_5  and  C_2 
REMARK    4  A    between atoms: C_18  and  N_4 
REMARK    5  A    between atoms: C_12  and  N_5 
REMARK    6  A    between atoms: C_22  and  C_18 
REMARK    7  A    between atoms: O_26  and  C_19 
ROOT
ATOM      1  C   UNL d   1     -41.593-122.796 -52.911  0.00  0.00     0.058 A 
ATOM      2  C   UNL d   1     -41.668-123.568 -52.608  0.00  0.00     0.005 A 
ATOM      3  C   UNL d   1     -41.469-122.163 -52.398  0.00  0.00     0.005 A 
ATOM      4  C   UNL d   1     -41.495-123.070 -51.287  0.00  0.00     0.020 A 
ATOM      5  C   UNL d   1     -41.619-123.702 -51.801  0.00  0.00     0.002 A 
ATOM      6  C   UNL d   1     -41.420-122.302 -51.578  0.00  0.00     0.002 A 
ENDROOT
BRANCH   4   7
ATOM      7  C   UNL d   1     -41.445-123.200 -50.468  0.00  0.00     0.112 C 
BRANCH   7   8
ATOM      8  N   UNL d   1     -41.961-122.801 -49.951  0.00  0.00    -0.157 NA
BRANCH   8   9
ATOM      9  S   UNL d   1     -41.916-122.932 -49.131  0.00  0.00     0.285 S 
ATOM     10  O   UNL d   1     -41.612-122.164 -49.017  0.00  0.00    -0.198 OA
ATOM     11  O   UNL d   1     -42.222-123.707 -49.235  0.00  0.00    -0.198 OA
BRANCH   9  12
ATOM     12  C   UNL d   1     -41.873-123.068 -48.305  0.00  0.00     0.107 A 
ATOM     13  C   UNL d   1     -42.525-123.371 -47.899  0.00  0.00     0.037 A 
ATOM     14  C   UNL d   1     -42.484-123.505 -47.089  0.00  0.00     0.095 A 
ATOM     15  C   UNL d   1     -41.793-123.339 -46.678  0.00  0.00     0.024 A 
ATOM     16  C   UNL d   1     -41.134-123.034 -47.082  0.00  0.00     0.003 A 
ATOM     17  C   UNL d   1     -41.175-122.899 -47.892  0.00  0.00     0.013 A 
BRANCH  14  18
ATOM     18  O   UNL d   1     -43.140-123.811 -46.676  0.00  0.00    -0.328 OA
ATOM     19  C   UNL d   1     -43.885-123.771 -47.015  0.00  0.00     0.181 C 
ENDBRANCH  14  18
ENDBRANCH   9  12
ENDBRANCH   8   9
ENDBRANCH   7   8
ENDBRANCH   4   7
BRANCH   1  20
ATOM     20  C   UNL d   1     -41.641-122.653 -53.721  0.00  0.00     0.279 C 
ATOM     21  N   UNL d   1     -42.090-122.024 -54.002  0.00  0.00    -0.208 NA
ATOM     22  O   UNL d   1     -41.240-123.139 -54.256  0.00  0.00    -0.265 OA
BRANCH  21  23
ATOM     23  C   UNL d   1     -42.138-121.880 -54.820  0.00  0.00     0.086 A 
ATOM     24  C   UNL d   1     -42.808-122.142 -55.239  0.00  0.00     0.032 A 
ATOM     25  C   UNL d   1     -42.851-121.997 -56.056  0.00  0.00     0.070 A 
ATOM     26 CL   UNL d   1     -43.514-122.255 -56.473  0.00  0.00    -0.081 Cl
ATOM     27  C   UNL d   1     -42.239-121.600 -56.438  0.00  0.00     0.068 A 
ATOM     28  C   UNL d   1     -41.577-121.344 -56.010  0.00  0.00     0.014 A 
ATOM     29 CL   UNL d   1     -42.290-121.459 -57.253  0.00  0.00    -0.082 Cl
ATOM     30  C   UNL d   1     -41.533-121.488 -55.200  0.00  0.00     0.020 A 
ENDBRANCH  21  23
ENDBRANCH   1  20
TORSDOF 7
ENDMDL
MODEL 2
REMARK VINA RESULT:       3.6      2.926      6.791
REMARK  7 active torsions:
REMARK  status: ('A' for Active; 'I' for Inactive)
REMARK    1  A    between atoms: C_3  and  S_1 
REMARK    2  A    between atoms: N_4  and  S_1 
REMARK    3  A    between atoms: C_2  and  C_11 
REMARK       I    between atoms: N_5  and  C_2 
REMARK    4  A    between atoms: C_18  and  N_4 
REMARK    5  A    between atoms: C_12  and  N_5 
REMARK    6  A    between atoms: C_22  and  C_18 
REMARK    7  A    between atoms: O_26  and  C_19 
ROOT
ATOM      1  C   UNL d   1     -41.642-122.818 -50.882  0.00  0.00     0.058 A 
ATOM      2  C   UNL d   1     -41.811-122.048 -51.149  0.00  0.00     0.005 A 
ATOM      3  C   UNL d   1     -41.300-123.365 -51.396  0.00  0.00     0.005 A 
ATOM      4  C   UNL d   1     -41.299-122.376 -52.434  0.00  0.00     0.020 A 
ATOM      5  C   UNL d   1     -41.641-121.830 -51.919  0.00  0.00     0.002 A 
ATOM      6  C   UNL d   1     -41.127-123.141 -52.178  0.00  0.00     0.002 A 
ENDROOT
BRANCH   4   7
ATOM      7  C   UNL d   1     -41.124-122.160 -53.216  0.00  0.00     0.112 C 
BRANCH   7   8
ATOM      8  N   UNL d   1     -41.546-121.544 -53.582  0.00  0.00    -0.157 NA
BRANCH   8   9
ATOM      9  S   UNL d   1     -41.813-121.625 -54.366  0.00  0.00     0.285 S 
ATOM     10  O   UNL d   1     -42.384-121.031 -54.243  0.00  0.00    -0.198 OA
ATOM     11  O   UNL d   1     -41.240-122.225 -54.501  0.00  0.00    -0.198 OA
BRANCH   9  12
ATOM     12  C   UNL d   1     -42.077-121.711 -55.157  0.00  0.00     0.107 A 
ATOM     13  C   UNL d   1     -42.699-122.224 -55.334  0.00  0.00     0.037 A 
ATOM     14  C   UNL d   1     -42.959-122.310 -56.109  0.00  0.00     0.095 A 
ATOM     15  C   UNL d   1     -42.601-121.884 -56.713  0.00  0.00     0.024 A 
ATOM     16  C   UNL d   1     -41.975-121.366 -56.540  0.00  0.00     0.003 A 
ATOM     17  C   UNL d   1     -41.715-121.281 -55.765  0.00  0.00     0.013 A 
BRANCH  14  18
ATOM     18  O   UNL d   1     -43.587-122.827 -56.292  0.00  0.00    -0.328 OA
ATOM     19  C   UNL d   1     -43.506-123.629 -56.141  0.00  0.00     0.181 C 
ENDBRANCH  14  18
ENDBRANCH   9  12
ENDBRANCH   8   9
ENDBRANCH   7   8
ENDBRANCH   4   7
BRANCH   1  20
ATOM     20  C   UNL d   1     -41.811-123.045 -50.108  0.00  0.00     0.279 C 
ATOM     21  N   UNL d   1     -42.558-122.905 -49.791  0.00  0.00    -0.208 NA
ATOM     22  O   UNL d   1     -41.234-123.412 -49.645  0.00  0.00    -0.265 OA
BRANCH  21  23
ATOM     23  C   UNL d   1     -42.727-123.134 -49.010  0.00  0.00     0.086 A 
ATOM     24  C   UNL d   1     -42.193-122.933 -48.404  0.00  0.00     0.032 A 
ATOM     25  C   UNL d   1     -42.367-123.164 -47.625  0.00  0.00     0.070 A 
ATOM     26 CL   UNL d   1     -41.840-122.966 -47.023  0.00  0.00    -0.081 Cl
ATOM     27  C   UNL d   1     -43.056-123.585 -47.462  0.00  0.00     0.068 A 
ATOM     28  C   UNL d   1     -43.580-123.779 -48.075  0.00  0.00     0.014 A 
ATOM     29 CL   UNL d   1     -43.221-123.812 -46.682  0.00  0.00    -0.082 Cl
ATOM     30  C   UNL d   1     -43.409-123.551 -48.847  0.00  0.00     0.020 A 
ENDBRANCH  21  23
ENDBRANCH   1  20
TORSDOF 7
ENDMDL
