MODEL 1
REMARK VINA RESULT:      13.5      0.000      0.000
REMARK  1 active torsions:
REMARK  status: ('A' for Active; 'I' for Inactive)
REMARK    1  A    between atoms: C_8  and  N_3 
ROOT
ATOM      1  C   UNL d   1      13.825  13.052  -2.948  0.00  0.00     0.292 A 
ATOM      2  C   UNL d   1      13.537  13.235  -3.702  0.00  0.00     0.128 A 
ATOM      3  N   UNL d   1      13.646  12.330  -2.608  0.00  0.00    -0.194 N 
ATOM      4  N   UNL d   1      13.178  11.779  -3.010  0.00  0.00    -0.160 NA
ATOM      5  C   UNL d   1      13.069  12.697  -4.117  0.00  0.00     0.094 A 
ATOM      6  C   UNL d   1      12.890  11.962  -3.764  0.00  0.00     0.133 A 
ATOM      7  O   UNL d   1      14.303  13.609  -2.531  0.00  0.00    -0.264 OA
ATOM      8 CL   UNL d   1      13.714  13.984  -4.073  0.00  0.00    -0.076 Cl
ATOM      9 CL   UNL d   1      12.782  12.879  -4.866  0.00  0.00    -0.080 Cl
ENDROOT
BRANCH   3  10
ATOM     10  C   UNL d   1      13.937  12.145  -1.845  0.00  0.00     0.086 A 
ATOM     11  C   UNL d   1      13.402  11.993  -1.238  0.00  0.00     0.019 A 
ATOM     12  C   UNL d   1      13.696  11.805  -0.467  0.00  0.00     0.002 A 
ATOM     13  C   UNL d   1      14.511  11.780  -0.346  0.00  0.00     0.000 A 
ATOM     14  C   UNL d   1      15.036  11.931  -0.949  0.00  0.00     0.002 A 
ATOM     15  C   UNL d   1      14.741  12.118  -1.720  0.00  0.00     0.019 A 
ENDBRANCH   3  10
TORSDOF 1
ENDMDL
