MODEL 1
REMARK VINA RESULT:      38.2      0.000      0.000
REMARK  5 active torsions:
REMARK  status: ('A' for Active; 'I' for Inactive)
REMARK    1  A    between atoms: N_10  and  C_3 
REMARK    2  A    between atoms: C_11  and  C_5 
REMARK    3  A    between atoms: C_15  and  C_9 
REMARK    4  A    between atoms: C_16  and  N_10 
REMARK       I    between atoms: C_12  and  N_13 
REMARK    5  A    between atoms: N_13  and  C_17 
ROOT
ATOM      1  C   UNL d   1      46.214 -18.144  42.215  0.00  0.00     0.168 A 
ATOM      2  N   UNL d   1      46.092 -17.423  42.580  0.00  0.00    -0.184 N 
ATOM      3  C   UNL d   1      46.023 -17.396  43.380  0.00  0.00     0.218 A 
ATOM      4  N   UNL d   1      46.115 -16.788  41.331  0.00  0.00    -0.162 NA
ATOM      5  C   UNL d   1      46.284 -18.181  41.424  0.00  0.00     0.055 A 
ATOM      6  N   UNL d   1      46.261 -18.812  42.664  0.00  0.00    -0.227 NA
ATOM      7  C   UNL d   1      46.073 -18.090  43.835  0.00  0.00     0.071 A 
ATOM      8  C   UNL d   1      46.236 -17.509  40.967  0.00  0.00     0.104 A 
ATOM      9  C   UNL d   1      46.191 -18.777  43.460  0.00  0.00     0.087 A 
ATOM     10  C   UNL d   1      46.307 -17.548  40.179  0.00  0.00     0.023 C 
ENDROOT
BRANCH   3  11
ATOM     11  N   UNL d   1      45.898 -16.657  43.757  0.00  0.00    -0.383 NA
BRANCH  11  12
ATOM     12  C   UNL d   1      45.821 -15.884  44.046  0.00  0.00     0.134 A 
ATOM     13  C   UNL d   1      45.308 -15.714  44.666  0.00  0.00     0.034 A 
ATOM     14  C   UNL d   1      45.237 -14.921  44.954  0.00  0.00     0.022 A 
ATOM     15  C   UNL d   1      45.685 -14.311  44.611  0.00  0.00     0.085 A 
ATOM     16  C   UNL d   1      46.208 -14.478  43.980  0.00  0.00     0.022 A 
ATOM     17  C   UNL d   1      46.284 -15.267  43.688  0.00  0.00     0.034 A 
BRANCH  15  18
ATOM     18  N   UNL d   1      45.618 -13.528  44.892  0.00  0.00    -0.208 NA
ATOM     19  C   UNL d   1      45.515 -12.903  44.363  0.00  0.00     0.279 C 
ATOM     20  O   UNL d   1      45.447 -12.124  44.643  0.00  0.00    -0.265 OA
ATOM     21  C   UNL d   1      45.477 -13.050  43.542  0.00  0.00     0.068 C 
ENDBRANCH  15  18
ENDBRANCH  11  12
ENDBRANCH   3  11
BRANCH   9  22
ATOM     22  C   UNL d   1      46.242 -19.482  43.927  0.00  0.00     0.018 C 
ATOM     23  C   UNL d   1      45.925 -20.210  43.619  0.00  0.00     0.002 C 
ATOM     24  C   UNL d   1      46.604 -19.461  44.691  0.00  0.00     0.002 C 
ENDBRANCH   9  22
BRANCH   5  25
ATOM     25  C   UNL d   1      46.407 -18.910  41.055  0.00  0.00     0.004 A 
ATOM     26  C   UNL d   1      46.427 -18.954  40.252  0.00  0.00     0.000 A 
ATOM     27  C   UNL d   1      46.548 -19.671  39.890  0.00  0.00     0.000 A 
ATOM     28  C   UNL d   1      46.647 -20.330  40.338  0.00  0.00     0.000 A 
ATOM     29  C   UNL d   1      46.625 -20.281  41.148  0.00  0.00     0.000 A 
ATOM     30  C   UNL d   1      46.505 -19.570  41.498  0.00  0.00     0.000 A 
ENDBRANCH   5  25
TORSDOF 5
ENDMDL
