MODEL 1
REMARK VINA RESULT:      45.9      0.000      0.000
REMARK  8 active torsions:
REMARK  status: ('A' for Active; 'I' for Inactive)
REMARK    1  A    between atoms: C_8  and  C_5 
REMARK    2  A    between atoms: S_22  and  C_6 
REMARK    3  A    between atoms: C_9  and  C_7 
REMARK    4  A    between atoms: C_12  and  C_9 
REMARK    5  A    between atoms: C_25  and  S_22 
REMARK    6  A    between atoms: O_24  and  C_26 
REMARK    7  A    between atoms: C_27  and  O_24 
REMARK    8  A    between atoms: C_26  and  C_25 
ROOT
ATOM      1  C   UNL d   1      13.659  13.258  -2.997  0.00  0.00     0.082 A 
ATOM      2  N   UNL d   1      13.863  14.076  -2.985  0.00  0.00    -0.238 NA
ATOM      3  C   UNL d   1      14.434  13.895  -1.660  0.00  0.00     0.092 A 
ATOM      4  C   UNL d   1      13.845  12.784  -2.348  0.00  0.00     0.019 A 
ATOM      5  C   UNL d   1      14.229  13.097  -1.685  0.00  0.00     0.019 A 
ATOM      6  C   UNL d   1      14.246  14.389  -2.325  0.00  0.00     0.120 A 
ATOM      7  C   UNL d   1      13.282  12.794  -3.565  0.00  0.00     0.018 A 
ATOM      8  C   UNL d   1      14.827  14.206  -0.978  0.00  0.00     0.103 C 
ATOM      9  N   UNL d   1      15.217  14.515  -0.302  0.00  0.00    -0.191 NA
ATOM     10  C   UNL d   1      13.580  12.021  -2.520  0.00  0.00     0.002 A 
ATOM     11  C   UNL d   1      13.229  12.022  -3.275  0.00  0.00     0.002 A 
ENDROOT
BRANCH   5  12
ATOM     12  C   UNL d   1      14.410  12.601  -1.037  0.00  0.00     0.030 A 
ATOM     13  S   UNL d   1      15.182  12.529  -0.797  0.00  0.00    -0.086 SA
ATOM     14  C   UNL d   1      15.211  12.017  -0.158  0.00  0.00     0.035 A 
ATOM     15  C   UNL d   1      14.440  11.780  -0.015  0.00  0.00     0.007 A 
ATOM     16  C   UNL d   1      13.954  12.146  -0.562  0.00  0.00     0.007 A 
ENDBRANCH   5  12
BRANCH   6  17
ATOM     17  S   UNL d   1      14.445  15.189  -2.314  0.00  0.00    -0.065 SA
BRANCH  17  18
ATOM     18  C   UNL d   1      14.821  15.538  -2.969  0.00  0.00     0.064 C 
BRANCH  18  19
ATOM     19  C   UNL d   1      14.983  16.368  -2.977  0.00  0.00     0.130 C 
BRANCH  19  20
ATOM     20  O   UNL d   1      15.389  16.694  -3.623  0.00  0.00    -0.303 OA
BRANCH  20  21
ATOM     21  C   UNL d   1      14.946  16.982  -4.283  0.00  0.00     0.123 C 
ATOM     22  C   UNL d   1      15.334  17.331  -4.902  0.00  0.00     0.029 C 
ENDBRANCH  20  21
ENDBRANCH  19  20
ENDBRANCH  18  19
ENDBRANCH  17  18
ENDBRANCH   6  17
BRANCH   7  23
ATOM     23  C   UNL d   1      12.991  13.043  -4.321  0.00  0.00     0.008 C 
BRANCH  23  24
ATOM     24  C   UNL d   1      13.236  12.639  -5.007  0.00  0.00     0.029 A 
ATOM     25  S   UNL d   1      13.242  11.845  -5.194  0.00  0.00    -0.086 SA
ATOM     26  C   UNL d   1      13.550  11.780  -5.960  0.00  0.00     0.035 A 
ATOM     27  C   UNL d   1      13.722  12.525  -6.215  0.00  0.00     0.007 A 
ATOM     28  C   UNL d   1      13.537  13.060  -5.647  0.00  0.00     0.007 A 
ENDBRANCH  23  24
ENDBRANCH   7  23
TORSDOF 8
ENDMDL
