MODEL 1
REMARK VINA RESULT:      -0.9      0.000      0.000
REMARK  3 active torsions:
REMARK  status: ('A' for Active; 'I' for Inactive)
REMARK    1  A    between atoms: S_9  and  C_6 
REMARK    2  A    between atoms: C_13  and  S_9 
REMARK    3  A    between atoms: C_11  and  C_13 
ROOT
ATOM      1  C   UNL d   1     -41.311-121.256 -51.765  0.00  0.00     0.114 A 
ATOM      2  C   UNL d   1     -41.335-121.989 -52.120  0.00  0.00     0.048 A 
ATOM      3  S   UNL d   1     -41.231-121.351 -50.958  0.00  0.00    -0.068 SA
ATOM      4  C   UNL d   1     -41.269-122.557 -51.522  0.00  0.00     0.010 A 
ATOM      5  C   UNL d   1     -41.204-122.191 -50.809  0.00  0.00     0.031 A 
ATOM      6  C   UNL d   1     -41.415-122.045 -52.945  0.00  0.00     0.111 A 
ATOM      7  N   UNL d   1     -41.366-120.572 -52.228  0.00  0.00    -0.217 NA
ATOM      8  N   UNL d   1     -41.470-121.372 -53.411  0.00  0.00    -0.218 NA
ATOM      9  C   UNL d   1     -41.445-120.632 -53.049  0.00  0.00     0.200 A 
ATOM     10  C   UNL d   1     -41.261-123.382 -51.567  0.00  0.00     0.001 A 
ATOM     11  C   UNL d   1     -41.130-122.620 -50.108  0.00  0.00     0.006 A 
ATOM     12  C   UNL d   1     -41.187-123.814 -50.869  0.00  0.00     0.000 A 
ATOM     13  C   UNL d   1     -41.123-123.452 -50.159  0.00  0.00     0.001 A 
ENDROOT
BRANCH   6  14
ATOM     14  S   UNL d   1     -41.441-122.800 -53.322  0.00  0.00    -0.083 SA
BRANCH  14  15
ATOM     15  C   UNL d   1     -41.232-122.860 -54.097  0.00  0.00     0.161 C 
BRANCH  15  16
ATOM     16  C   UNL d   1     -41.581-123.444 -54.554  0.00  0.00     0.197 C 
ATOM     17  O   UNL d   1     -41.136-123.815 -55.128  0.00  0.00    -0.647 OA
ATOM     18  O   UNL d   1     -42.347-123.653 -54.447  0.00  0.00    -0.647 OA
ENDBRANCH  15  16
ENDBRANCH  14  15
ENDBRANCH   6  14
TORSDOF 3
ENDMDL
MODEL 2
REMARK VINA RESULT:       0.4      2.315      2.974
REMARK  3 active torsions:
REMARK  status: ('A' for Active; 'I' for Inactive)
REMARK    1  A    between atoms: S_9  and  C_6 
REMARK    2  A    between atoms: C_13  and  S_9 
REMARK    3  A    between atoms: C_11  and  C_13 
ROOT
ATOM      1  C   UNL d   1     -43.378-122.514 -49.214  0.00  0.00     0.114 A 
ATOM      2  C   UNL d   1     -42.698-122.751 -49.595  0.00  0.00     0.048 A 
ATOM      3  S   UNL d   1     -43.337-122.733 -48.429  0.00  0.00    -0.068 SA
ATOM      4  C   UNL d   1     -42.219-123.129 -49.035  0.00  0.00     0.010 A 
ATOM      5  C   UNL d   1     -42.588-123.129 -48.322  0.00  0.00     0.031 A 
ATOM      6  C   UNL d   1     -42.601-122.593 -50.405  0.00  0.00     0.111 A 
ATOM      7  N   UNL d   1     -43.968-122.116 -49.636  0.00  0.00    -0.217 NA
ATOM      8  N   UNL d   1     -43.182-122.199 -50.830  0.00  0.00    -0.218 NA
ATOM      9  C   UNL d   1     -43.869-121.960 -50.442  0.00  0.00     0.200 A 
ATOM     10  C   UNL d   1     -41.474-123.475 -49.116  0.00  0.00     0.001 A 
ATOM     11  C   UNL d   1     -42.240-123.470 -47.654  0.00  0.00     0.006 A 
ATOM     12  C   UNL d   1     -41.123-123.816 -48.453  0.00  0.00     0.000 A 
ATOM     13  C   UNL d   1     -41.488-123.817 -47.743  0.00  0.00     0.001 A 
ENDROOT
BRANCH   6  14
ATOM     14  S   UNL d   1     -41.900-122.835 -50.807  0.00  0.00    -0.083 SA
BRANCH  14  15
ATOM     15  C   UNL d   1     -41.680-122.451 -51.479  0.00  0.00     0.161 C 
BRANCH  15  16
ATOM     16  C   UNL d   1     -41.371-122.889 -52.099  0.00  0.00     0.197 C 
ATOM     17  O   UNL d   1     -41.123-122.500 -52.772  0.00  0.00    -0.647 OA
ATOM     18  O   UNL d   1     -41.310-123.686 -52.055  0.00  0.00    -0.647 OA
ENDBRANCH  15  16
ENDBRANCH  14  15
ENDBRANCH   6  14
TORSDOF 3
ENDMDL
MODEL 3
REMARK VINA RESULT:       0.5      2.110      3.816
REMARK  3 active torsions:
REMARK  status: ('A' for Active; 'I' for Inactive)
REMARK    1  A    between atoms: S_9  and  C_6 
REMARK    2  A    between atoms: C_13  and  S_9 
REMARK    3  A    between atoms: C_11  and  C_13 
ROOT
ATOM      1  C   UNL d   1     -41.447-123.194 -53.871  0.00  0.00     0.114 A 
ATOM      2  C   UNL d   1     -41.624-122.470 -53.543  0.00  0.00     0.048 A 
ATOM      3  S   UNL d   1     -41.564-123.160 -54.679  0.00  0.00    -0.068 SA
ATOM      4  C   UNL d   1     -41.857-121.969 -54.159  0.00  0.00     0.010 A 
ATOM      5  C   UNL d   1     -41.827-122.367 -54.856  0.00  0.00     0.031 A 
ATOM      6  C   UNL d   1     -41.550-122.360 -52.723  0.00  0.00     0.111 A 
ATOM      7  N   UNL d   1     -41.195-123.816 -53.387  0.00  0.00    -0.217 NA
ATOM      8  N   UNL d   1     -41.301-122.971 -52.236  0.00  0.00    -0.218 NA
ATOM      9  C   UNL d   1     -41.123-123.702 -52.570  0.00  0.00     0.200 A 
ATOM     10  C   UNL d   1     -42.095-121.178 -54.143  0.00  0.00     0.001 A 
ATOM     11  C   UNL d   1     -42.031-122.005 -55.570  0.00  0.00     0.006 A 
ATOM     12  C   UNL d   1     -42.299-120.813 -54.853  0.00  0.00     0.000 A 
ATOM     13  C   UNL d   1     -42.270-121.207 -55.548  0.00  0.00     0.001 A 
ENDROOT
BRANCH   6  14
ATOM     14  S   UNL d   1     -41.731-121.613 -52.374  0.00  0.00    -0.083 SA
BRANCH  14  15
ATOM     15  C   UNL d   1     -41.814-121.562 -51.575  0.00  0.00     0.161 C 
BRANCH  15  16
ATOM     16  C   UNL d   1     -41.401-120.979 -51.174  0.00  0.00     0.197 C 
ATOM     17  O   UNL d   1     -41.247-121.080 -50.379  0.00  0.00    -0.647 OA
ATOM     18  O   UNL d   1     -41.149-120.317 -51.546  0.00  0.00    -0.647 OA
ENDBRANCH  15  16
ENDBRANCH  14  15
ENDBRANCH   6  14
TORSDOF 3
ENDMDL
