MODEL 1
REMARK VINA RESULT:      28.2      0.000      0.000
REMARK  3 active torsions:
REMARK  status: ('A' for Active; 'I' for Inactive)
REMARK    1  A    between atoms: C_6  and  N_1 
REMARK    2  A    between atoms: C_7  and  C_6 
REMARK    3  A    between atoms: C_8  and  C_7 
ROOT
ATOM      1  N   UNL d   1      59.151  49.706  51.194  0.00  0.00    -0.305 N 
ATOM      2  C   UNL d   1      59.783  49.706  51.994  0.00  0.00     0.064 A 
ATOM      3  C   UNL d   1      60.362  49.706  51.412  0.00  0.00     0.018 A 
ATOM      4  C   UNL d   1      59.346  49.706  50.395  0.00  0.00     0.064 A 
ATOM      5  C   UNL d   1      60.135  49.706  50.611  0.00  0.00     0.018 A 
ATOM      6  C   UNL d   1      60.008  49.706  52.788  0.00  0.00     0.018 A 
ATOM      7  C   UNL d   1      61.152  49.707  51.606  0.00  0.00     0.002 A 
ATOM      8  C   UNL d   1      59.119  49.706  49.593  0.00  0.00     0.018 A 
ATOM      9  C   UNL d   1      60.718  49.706  50.027  0.00  0.00     0.002 A 
ATOM     10  C   UNL d   1      61.381  49.707  52.411  0.00  0.00     0.000 A 
ATOM     11  C   UNL d   1      60.811  49.707  52.995  0.00  0.00     0.002 A 
ATOM     12  C   UNL d   1      60.513  49.706  49.228  0.00  0.00     0.000 A 
ATOM     13  C   UNL d   1      59.722  49.706  49.018  0.00  0.00     0.002 A 
ENDROOT
BRANCH   1  14
ATOM     14  C   UNL d   1      58.350  49.706  51.408  0.00  0.00     0.086 C 
BRANCH  14  15
ATOM     15  C   UNL d   1      57.781  49.410  50.867  0.00  0.00     0.089 C 
BRANCH  15  16
ATOM     16  C   UNL d   1      56.974  49.533  51.020  0.00  0.00     0.213 C 
ATOM     17  O   UNL d   1      56.462  49.661  50.395  0.00  0.00    -0.644 OA
ATOM     18  O   UNL d   1      56.230  49.631  51.380  0.00  0.00    -0.644 OA
ENDBRANCH  15  16
ENDBRANCH  14  15
ENDBRANCH   1  14
TORSDOF 3
ENDMDL
