MODEL 1
REMARK VINA RESULT:      37.3      0.000      0.000
REMARK  5 active torsions:
REMARK  status: ('A' for Active; 'I' for Inactive)
REMARK       I    between atoms: N_2  and  C_1 
REMARK    1  A    between atoms: C_3  and  C_1 
REMARK    2  A    between atoms: C_5  and  N_2 
REMARK    3  A    between atoms: C_6  and  C_3 
REMARK    4  A    between atoms: C_7  and  C_3 
REMARK    5  A    between atoms: C_9  and  C_5 
ROOT
ATOM      1  C   UNL d   1      14.302  13.048  -2.110  0.00  0.00     0.058 C 
ENDROOT
BRANCH   1   2
ATOM      2  C   UNL d   1      15.043  13.751  -2.006  0.00  0.00     0.275 C 
ATOM      3  N   UNL d   1      15.364  14.446  -1.913  0.00  0.00    -0.231 NA
ATOM      4  O   UNL d   1      15.492  13.111  -2.071  0.00  0.00    -0.266 OA
BRANCH   3   5
ATOM      5  C   UNL d   1      14.907  15.102  -1.846  0.00  0.00     0.146 C 
ATOM      6  C   UNL d   1      14.883  15.009  -1.067  0.00  0.00     0.033 C 
ATOM      7  C   UNL d   1      14.940  15.183  -2.638  0.00  0.00     0.033 C 
BRANCH   5   8
ATOM      8  C   UNL d   1      14.451  15.759  -1.795  0.00  0.00     0.229 C 
ATOM      9  O   UNL d   1      14.715  16.379  -1.360  0.00  0.00    -0.286 OA
ENDBRANCH   5   8
ENDBRANCH   3   5
ENDBRANCH   1   2
BRANCH   1  10
ATOM     10  C   UNL d   1      14.063  12.629  -1.459  0.00  0.00     0.005 A 
ATOM     11  C   UNL d   1      13.303  12.350  -1.403  0.00  0.00     0.000 A 
ATOM     12  C   UNL d   1      13.066  11.924  -0.736  0.00  0.00     0.000 A 
ATOM     13  C   UNL d   1      13.599  11.780  -0.123  0.00  0.00     0.000 A 
ATOM     14  C   UNL d   1      14.377  12.068  -0.183  0.00  0.00     0.000 A 
ATOM     15  C   UNL d   1      14.613  12.491  -0.846  0.00  0.00     0.000 A 
ENDBRANCH   1  10
BRANCH   1  16
ATOM     16  C   UNL d   1      13.874  12.805  -2.756  0.00  0.00     0.005 A 
ATOM     17  C   UNL d   1      13.935  12.029  -3.035  0.00  0.00     0.000 A 
ATOM     18  C   UNL d   1      13.496  11.779  -3.698  0.00  0.00     0.000 A 
ATOM     19  C   UNL d   1      12.989  12.315  -4.084  0.00  0.00     0.000 A 
ATOM     20  C   UNL d   1      12.927  13.102  -3.800  0.00  0.00     0.000 A 
ATOM     21  C   UNL d   1      13.371  13.336  -3.139  0.00  0.00     0.000 A 
ENDBRANCH   1  16
TORSDOF 5
ENDMDL
MODEL 2
REMARK VINA RESULT:      39.5      1.456      3.474
REMARK  5 active torsions:
REMARK  status: ('A' for Active; 'I' for Inactive)
REMARK       I    between atoms: N_2  and  C_1 
REMARK    1  A    between atoms: C_3  and  C_1 
REMARK    2  A    between atoms: C_5  and  N_2 
REMARK    3  A    between atoms: C_6  and  C_3 
REMARK    4  A    between atoms: C_7  and  C_3 
REMARK    5  A    between atoms: C_9  and  C_5 
ROOT
ATOM      1  C   UNL d   1      13.938  13.340  -2.341  0.00  0.00     0.058 C 
ENDROOT
BRANCH   1   2
ATOM      2  C   UNL d   1      13.190  13.191  -3.029  0.00  0.00     0.275 C 
ATOM      3  N   UNL d   1      12.829  12.896  -3.643  0.00  0.00    -0.231 NA
ATOM      4  O   UNL d   1      12.838  13.732  -2.582  0.00  0.00    -0.266 OA
BRANCH   3   5
ATOM      5  C   UNL d   1      13.186  12.343  -4.100  0.00  0.00     0.146 C 
ATOM      6  C   UNL d   1      13.494  12.909  -4.550  0.00  0.00     0.033 C 
ATOM      7  C   UNL d   1      12.868  11.779  -3.636  0.00  0.00     0.033 C 
BRANCH   5   8
ATOM      8  C   UNL d   1      13.537  11.779  -4.549  0.00  0.00     0.229 C 
ATOM      9  O   UNL d   1      13.505  11.845  -5.347  0.00  0.00    -0.286 OA
ENDBRANCH   5   8
ENDBRANCH   3   5
ENDBRANCH   1   2
BRANCH   1  10
ATOM     10  C   UNL d   1      14.236  14.087  -2.240  0.00  0.00     0.005 A 
ATOM     11  C   UNL d   1      14.427  14.358  -1.499  0.00  0.00     0.000 A 
ATOM     12  C   UNL d   1      14.731  15.121  -1.404  0.00  0.00     0.000 A 
ATOM     13  C   UNL d   1      14.841  15.610  -2.058  0.00  0.00     0.000 A 
ATOM     14  C   UNL d   1      14.644  15.329  -2.816  0.00  0.00     0.000 A 
ATOM     15  C   UNL d   1      14.342  14.571  -2.911  0.00  0.00     0.000 A 
ENDBRANCH   1  10
BRANCH   1  16
ATOM     16  C   UNL d   1      14.321  12.829  -1.840  0.00  0.00     0.005 A 
ATOM     17  C   UNL d   1      13.924  12.488  -1.199  0.00  0.00     0.000 A 
ATOM     18  C   UNL d   1      14.318  11.964  -0.684  0.00  0.00     0.000 A 
ATOM     19  C   UNL d   1      15.119  11.779  -0.815  0.00  0.00     0.000 A 
ATOM     20  C   UNL d   1      15.520  12.125  -1.465  0.00  0.00     0.000 A 
ATOM     21  C   UNL d   1      15.116  12.646  -1.969  0.00  0.00     0.000 A 
ENDBRANCH   1  16
TORSDOF 5
ENDMDL
