MODEL 1
REMARK VINA RESULT:      30.7      0.000      0.000
REMARK  5 active torsions:
REMARK  status: ('A' for Active; 'I' for Inactive)
REMARK    1  A    between atoms: C_6  and  N_1 
REMARK    2  A    between atoms: C_8  and  C_4 
REMARK    3  A    between atoms: C_13  and  C_8 
REMARK    4  A    between atoms: O_20  and  C_11 
REMARK    5  A    between atoms: O_21  and  C_16 
ROOT
ATOM      1  N   UNL d   1      14.935  13.046  -1.087  0.00  0.00    -0.231 N 
ATOM      2  C   UNL d   1      15.136  12.252  -1.204  0.00  0.00     0.204 A 
ATOM      3  C   UNL d   1      14.211  13.181  -1.460  0.00  0.00     0.274 A 
ATOM      4  C   UNL d   1      13.964  12.470  -1.809  0.00  0.00     0.089 A 
ATOM      5  S   UNL d   1      14.539  11.903  -1.646  0.00  0.00    -0.043 SA
ATOM      6  N   UNL d   1      15.821  11.884  -0.921  0.00  0.00    -0.121 N 
ATOM      7  O   UNL d   1      13.802  13.902  -1.483  0.00  0.00    -0.266 OA
ENDROOT
BRANCH   4   8
ATOM      8  C   UNL d   1      13.275  12.359  -2.234  0.00  0.00     0.011 C 
BRANCH   8   9
ATOM      9  C   UNL d   1      13.280  12.425  -3.055  0.00  0.00     0.003 A 
ATOM     10  C   UNL d   1      13.043  13.124  -3.421  0.00  0.00     0.026 A 
ATOM     11  C   UNL d   1      13.048  13.189  -4.237  0.00  0.00     0.116 A 
ATOM     12  C   UNL d   1      13.295  12.548  -4.707  0.00  0.00     0.116 A 
ATOM     13  C   UNL d   1      13.534  11.846  -4.336  0.00  0.00     0.026 A 
ATOM     14  C   UNL d   1      13.528  11.780  -3.519  0.00  0.00     0.002 A 
BRANCH  11  15
ATOM     15  O   UNL d   1      12.809  13.893  -4.596  0.00  0.00    -0.326 OA
ATOM     16  C   UNL d   1      12.843  14.607  -4.170  0.00  0.00     0.181 C 
ENDBRANCH  11  15
BRANCH  12  17
ATOM     17  O   UNL d   1      13.303  12.606  -5.523  0.00  0.00    -0.326 OA
ATOM     18  C   UNL d   1      13.590  11.982  -5.982  0.00  0.00     0.181 C 
ENDBRANCH  12  17
ENDBRANCH   8   9
ENDBRANCH   4   8
BRANCH   1  19
ATOM     19  C   UNL d   1      15.372  13.609  -0.673  0.00  0.00     0.183 A 
ATOM     20  N   UNL d   1      16.138  13.526  -0.396  0.00  0.00    -0.220 NA
ATOM     21  C   UNL d   1      16.355  14.222  -0.016  0.00  0.00     0.108 A 
ATOM     22  C   UNL d   1      15.713  14.743  -0.060  0.00  0.00     0.059 A 
ATOM     23  S   UNL d   1      15.109  14.362  -0.465  0.00  0.00    -0.048 SA
ENDBRANCH   1  19
TORSDOF 5
ENDMDL
