MODEL 1
REMARK VINA RESULT:      14.5      0.000      0.000
REMARK  4 active torsions:
REMARK  status: ('A' for Active; 'I' for Inactive)
REMARK    1  A    between atoms: N_3  and  S_1 
REMARK    2  A    between atoms: C_4  and  S_1 
REMARK    3  A    between atoms: S_2  and  C_5 
REMARK    4  A    between atoms: C_13  and  N_3 
ROOT
ATOM      1  N   UNL d   1      45.626 -16.686  44.953  0.00  0.00    -0.158 NA
ENDROOT
BRANCH   1   2
ATOM      2  S   UNL d   1      45.618 -15.891  44.775  0.00  0.00     0.285 S 
ATOM      3  O   UNL d   1      44.796 -15.905  44.700  0.00  0.00    -0.198 OA
ATOM      4  O   UNL d   1      46.446 -15.857  44.847  0.00  0.00    -0.198 OA
BRANCH   2   5
ATOM      5  C   UNL d   1      45.614 -15.052  44.588  0.00  0.00     0.105 A 
ATOM      6  C   UNL d   1      44.916 -14.643  44.628  0.00  0.00     0.015 A 
ATOM      7  C   UNL d   1      44.892 -13.842  44.453  0.00  0.00     0.022 A 
ATOM      8  C   UNL d   1      45.576 -13.453  44.237  0.00  0.00     0.103 A 
ATOM      9  C   UNL d   1      46.290 -13.876  44.196  0.00  0.00     0.022 A 
ATOM     10  N   UNL d   1      45.545 -12.633  44.058  0.00  0.00    -0.148 N 
ATOM     11  C   UNL d   1      46.288 -14.681  44.377  0.00  0.00     0.015 A 
ENDBRANCH   2   5
ENDBRANCH   1   2
BRANCH   1  12
ATOM     12  C   UNL d   1      45.830 -17.237  44.383  0.00  0.00     0.094 A 
ATOM     13  C   UNL d   1      45.572 -17.136  43.627  0.00  0.00     0.021 A 
ATOM     14  C   UNL d   1      45.779 -17.695  43.048  0.00  0.00     0.015 A 
ATOM     15  C   UNL d   1      46.234 -18.332  43.251  0.00  0.00     0.107 A 
ATOM     16  C   UNL d   1      46.502 -18.440  44.027  0.00  0.00     0.015 A 
ATOM     17  C   UNL d   1      46.295 -17.881  44.606  0.00  0.00     0.021 A 
BRANCH  15  18
ATOM     18  S   UNL d   1      46.441 -18.890  42.673  0.00  0.00     0.302 S 
ATOM     19  O   UNL d   1      46.273 -19.511  43.212  0.00  0.00    -0.197 OA
ATOM     20  O   UNL d   1      46.604 -18.288  42.148  0.00  0.00    -0.197 OA
ATOM     21  N   UNL d   1      46.646 -19.444  42.099  0.00  0.00    -0.043 N 
ENDBRANCH  15  18
ENDBRANCH   1  12
TORSDOF 4
ENDMDL
