MODEL 1
REMARK VINA RESULT:      -7.2      0.000      0.000
REMARK  3 active torsions:
REMARK  status: ('A' for Active; 'I' for Inactive)
REMARK    1  A    between atoms: C_15  and  C_4 
REMARK    2  A    between atoms: C_8  and  S_16 
REMARK    3  A    between atoms: S_16  and  C_15 
ROOT
ATOM      1  N   UNL d   1     -48.593  14.142  22.827  0.00  0.00    -0.133 N 
ATOM      2  C   UNL d   1     -48.985  13.471  23.088  0.00  0.00     0.736 A 
ATOM      3  C   UNL d   1     -47.792  13.963  22.763  0.00  0.00     0.135 A 
ATOM      4  C   UNL d   1     -47.685  13.176  22.987  0.00  0.00     0.129 A 
ATOM      5  N   UNL d   1     -48.428  12.872  23.188  0.00  0.00    -0.058 NA
ATOM      6  C   UNL d   1     -49.008  14.829  22.679  0.00  0.00     0.084 A 
ATOM      7  N   UNL d   1     -49.795  13.481  23.204  0.00  0.00    -0.060 NA
ATOM      8  C   UNL d   1     -49.830  14.851  22.793  0.00  0.00     0.038 A 
ATOM      9  C   UNL d   1     -50.222  14.180  23.055  0.00  0.00     0.101 A 
ATOM     10 BR   UNL d   1     -47.171  14.484  22.514  0.00  0.00    -0.028 Br
ATOM     11  C   UNL d   1     -48.609  15.513  22.413  0.00  0.00     0.020 C 
ATOM     12  C   UNL d   1     -51.056  14.230  23.162  0.00  0.00     0.021 C 
ENDROOT
BRANCH   4  13
ATOM     13  C   UNL d   1     -46.963  12.780  23.001  0.00  0.00     0.059 C 
BRANCH  13  14
ATOM     14  S   UNL d   1     -46.838  12.106  23.459  0.00  0.00    -0.059 SA
BRANCH  14  15
ATOM     15  C   UNL d   1     -46.125  11.702  23.436  0.00  0.00     0.141 A 
ATOM     16  N   UNL d   1     -45.351  11.924  23.232  0.00  0.00    -0.232 NA
ATOM     17  C   UNL d   1     -44.871  11.292  23.316  0.00  0.00     0.088 A 
ATOM     18  C   UNL d   1     -44.063  11.222  23.185  0.00  0.00     0.020 A 
ATOM     19  C   UNL d   1     -45.291  10.659  23.568  0.00  0.00     0.049 A 
ATOM     20  C   UNL d   1     -43.683  10.495  23.313  0.00  0.00     0.002 A 
ATOM     21  C   UNL d   1     -44.102   9.856  23.567  0.00  0.00     0.001 A 
ATOM     22  C   UNL d   1     -44.914   9.929  23.698  0.00  0.00     0.008 A 
ATOM     23  S   UNL d   1     -46.088  10.912  23.646  0.00  0.00    -0.060 SA
ENDBRANCH  14  15
ENDBRANCH  13  14
ENDBRANCH   4  13
TORSDOF 3
ENDMDL
MODEL 2
REMARK VINA RESULT:      -6.5      1.031      5.213
REMARK  3 active torsions:
REMARK  status: ('A' for Active; 'I' for Inactive)
REMARK    1  A    between atoms: C_15  and  C_4 
REMARK    2  A    between atoms: C_8  and  S_16 
REMARK    3  A    between atoms: S_16  and  C_15 
ROOT
ATOM      1  N   UNL d   1     -45.380  12.018  22.912  0.00  0.00    -0.133 N 
ATOM      2  C   UNL d   1     -45.801  11.510  23.400  0.00  0.00     0.736 A 
ATOM      3  C   UNL d   1     -45.861  12.662  22.737  0.00  0.00     0.135 A 
ATOM      4  C   UNL d   1     -46.585  12.555  23.117  0.00  0.00     0.129 A 
ATOM      5  N   UNL d   1     -46.545  11.838  23.528  0.00  0.00    -0.058 NA
ATOM      6  C   UNL d   1     -44.616  11.834  22.689  0.00  0.00     0.084 A 
ATOM      7  N   UNL d   1     -45.463  10.815  23.668  0.00  0.00    -0.060 NA
ATOM      8  C   UNL d   1     -44.263  11.132  22.955  0.00  0.00     0.038 A 
ATOM      9  C   UNL d   1     -44.684  10.624  23.442  0.00  0.00     0.101 A 
ATOM     10 BR   UNL d   1     -45.662  13.329  22.251  0.00  0.00    -0.028 Br
ATOM     11  C   UNL d   1     -44.187  12.351  22.192  0.00  0.00     0.020 C 
ATOM     12  C   UNL d   1     -44.301   9.919  23.697  0.00  0.00     0.021 C 
ENDROOT
BRANCH   4  13
ATOM     13  C   UNL d   1     -47.221  13.077  23.083  0.00  0.00     0.059 C 
BRANCH  13  14
ATOM     14  S   UNL d   1     -47.983  12.859  23.312  0.00  0.00    -0.059 SA
BRANCH  14  15
ATOM     15  C   UNL d   1     -48.612  13.382  23.249  0.00  0.00     0.141 A 
ATOM     16  N   UNL d   1     -48.665  14.211  23.239  0.00  0.00    -0.232 NA
ATOM     17  C   UNL d   1     -49.432  14.418  23.165  0.00  0.00     0.088 A 
ATOM     18  C   UNL d   1     -49.775  15.164  23.127  0.00  0.00     0.020 A 
ATOM     19  C   UNL d   1     -49.892  13.764  23.125  0.00  0.00     0.049 A 
ATOM     20  C   UNL d   1     -50.598  15.239  23.049  0.00  0.00     0.002 A 
ATOM     21  C   UNL d   1     -51.064  14.584  23.009  0.00  0.00     0.001 A 
ATOM     22  C   UNL d   1     -50.717  13.836  23.046  0.00  0.00     0.008 A 
ATOM     23  S   UNL d   1     -49.378  13.103  23.178  0.00  0.00    -0.060 SA
ENDBRANCH  14  15
ENDBRANCH  13  14
ENDBRANCH   4  13
TORSDOF 3
ENDMDL
MODEL 3
REMARK VINA RESULT:      -6.5      1.450      2.038
REMARK  3 active torsions:
REMARK  status: ('A' for Active; 'I' for Inactive)
REMARK    1  A    between atoms: C_15  and  C_4 
REMARK    2  A    between atoms: C_8  and  S_16 
REMARK    3  A    between atoms: S_16  and  C_15 
ROOT
ATOM      1  N   UNL d   1     -49.703  13.890  22.972  0.00  0.00    -0.133 N 
ATOM      2  C   UNL d   1     -49.323  14.559  23.255  0.00  0.00     0.736 A 
ATOM      3  C   UNL d   1     -49.128  13.333  22.777  0.00  0.00     0.135 A 
ATOM      4  C   UNL d   1     -48.388  13.657  22.940  0.00  0.00     0.129 A 
ATOM      5  N   UNL d   1     -48.511  14.420  23.237  0.00  0.00    -0.058 NA
ATOM      6  C   UNL d   1     -50.517  13.868  22.926  0.00  0.00     0.084 A 
ATOM      7  N   UNL d   1     -49.754  15.213  23.495  0.00  0.00    -0.060 NA
ATOM      8  C   UNL d   1     -50.965  14.524  23.166  0.00  0.00     0.038 A 
ATOM      9  C   UNL d   1     -50.585  15.194  23.449  0.00  0.00     0.101 A 
ATOM     10 BR   UNL d   1     -49.258  12.556  22.463  0.00  0.00    -0.028 Br
ATOM     11  C   UNL d   1     -50.904  13.186  22.637  0.00  0.00     0.020 C 
ATOM     12  C   UNL d   1     -51.064  15.845  23.686  0.00  0.00     0.021 C 
ENDROOT
BRANCH   4  13
ATOM     13  C   UNL d   1     -47.666  13.278  22.822  0.00  0.00     0.059 C 
BRANCH  13  14
ATOM     14  S   UNL d   1     -46.944  13.659  22.935  0.00  0.00    -0.059 SA
BRANCH  14  15
ATOM     15  C   UNL d   1     -46.235  13.290  22.753  0.00  0.00     0.141 A 
ATOM     16  N   UNL d   1     -45.868  12.595  23.023  0.00  0.00    -0.232 NA
ATOM     17  C   UNL d   1     -45.171  12.508  22.644  0.00  0.00     0.088 A 
ATOM     18  C   UNL d   1     -44.605  11.916  22.713  0.00  0.00     0.020 A 
ATOM     19  C   UNL d   1     -45.057  13.113  22.134  0.00  0.00     0.049 A 
ATOM     20  C   UNL d   1     -43.915  11.947  22.253  0.00  0.00     0.002 A 
ATOM     21  C   UNL d   1     -43.796  12.554  21.738  0.00  0.00     0.001 A 
ATOM     22  C   UNL d   1     -44.367  13.147  21.671  0.00  0.00     0.008 A 
ATOM     23  S   UNL d   1     -45.729  13.613  22.197  0.00  0.00    -0.060 SA
ENDBRANCH  14  15
ENDBRANCH  13  14
ENDBRANCH   4  13
TORSDOF 3
ENDMDL
MODEL 4
REMARK VINA RESULT:      -5.1      8.612      9.084
REMARK  3 active torsions:
REMARK  status: ('A' for Active; 'I' for Inactive)
REMARK    1  A    between atoms: C_15  and  C_4 
REMARK    2  A    between atoms: C_8  and  S_16 
REMARK    3  A    between atoms: S_16  and  C_15 
ROOT
ATOM      1  N   UNL d   1     -39.884  14.826  17.772  0.00  0.00    -0.133 N 
ATOM      2  C   UNL d   1     -40.510  15.194  18.152  0.00  0.00     0.736 A 
ATOM      3  C   UNL d   1     -39.385  14.512  18.347  0.00  0.00     0.135 A 
ATOM      4  C   UNL d   1     -39.702  14.686  19.088  0.00  0.00     0.129 A 
ATOM      5  N   UNL d   1     -40.401  15.111  18.964  0.00  0.00    -0.058 NA
ATOM      6  C   UNL d   1     -39.844  14.820  16.957  0.00  0.00     0.084 A 
ATOM      7  N   UNL d   1     -41.101  15.561  17.720  0.00  0.00    -0.060 NA
ATOM      8  C   UNL d   1     -40.438  15.188  16.509  0.00  0.00     0.038 A 
ATOM      9  C   UNL d   1     -41.064  15.557  16.889  0.00  0.00     0.101 A 
ATOM     10 BR   UNL d   1     -38.665  14.081  18.217  0.00  0.00    -0.028 Br
ATOM     11  C   UNL d   1     -39.206  14.444  16.569  0.00  0.00     0.020 C 
ATOM     12  C   UNL d   1     -41.652  15.922  16.409  0.00  0.00     0.021 C 
ENDROOT
BRANCH   4  13
ATOM     13  C   UNL d   1     -39.370  14.470  19.810  0.00  0.00     0.059 C 
BRANCH  13  14
ATOM     14  S   UNL d   1     -39.651  14.759  20.529  0.00  0.00    -0.059 SA
BRANCH  14  15
ATOM     15  C   UNL d   1     -39.334  14.506  21.242  0.00  0.00     0.141 A 
ATOM     16  N   UNL d   1     -39.275  13.762  21.607  0.00  0.00    -0.232 NA
ATOM     17  C   UNL d   1     -38.907  13.849  22.310  0.00  0.00     0.088 A 
ATOM     18  C   UNL d   1     -38.716  13.287  22.878  0.00  0.00     0.020 A 
ATOM     19  C   UNL d   1     -38.719  14.618  22.429  0.00  0.00     0.049 A 
ATOM     20  C   UNL d   1     -38.327  13.516  23.574  0.00  0.00     0.002 A 
ATOM     21  C   UNL d   1     -38.135  14.289  23.698  0.00  0.00     0.001 A 
ATOM     22  C   UNL d   1     -38.329  14.851  23.126  0.00  0.00     0.008 A 
ATOM     23  S   UNL d   1     -38.987  15.040  21.755  0.00  0.00    -0.060 SA
ENDBRANCH  14  15
ENDBRANCH  13  14
ENDBRANCH   4  13
TORSDOF 3
ENDMDL
MODEL 5
REMARK VINA RESULT:      -5.1      8.407     10.290
REMARK  3 active torsions:
REMARK  status: ('A' for Active; 'I' for Inactive)
REMARK    1  A    between atoms: C_15  and  C_4 
REMARK    2  A    between atoms: C_8  and  S_16 
REMARK    3  A    between atoms: S_16  and  C_15 
ROOT
ATOM      1  N   UNL d   1     -39.609  14.463  20.398  0.00  0.00    -0.133 N 
ATOM      2  C   UNL d   1     -38.879  14.093  20.452  0.00  0.00     0.736 A 
ATOM      3  C   UNL d   1     -39.776  14.585  19.601  0.00  0.00     0.135 A 
ATOM      4  C   UNL d   1     -39.147  14.290  19.157  0.00  0.00     0.129 A 
ATOM      5  N   UNL d   1     -38.591  13.985  19.688  0.00  0.00    -0.058 NA
ATOM      6  C   UNL d   1     -40.030  14.642  21.074  0.00  0.00     0.084 A 
ATOM      7  N   UNL d   1     -38.564  13.899  21.182  0.00  0.00    -0.060 NA
ATOM      8  C   UNL d   1     -39.720  14.451  21.820  0.00  0.00     0.038 A 
ATOM      9  C   UNL d   1     -38.990  14.081  21.873  0.00  0.00     0.101 A 
ATOM     10 BR   UNL d   1     -40.470  14.950  19.276  0.00  0.00    -0.028 Br
ATOM     11  C   UNL d   1     -40.774  15.019  21.019  0.00  0.00     0.020 C 
ATOM     12  C   UNL d   1     -38.700  13.898  22.643  0.00  0.00     0.021 C 
ENDROOT
BRANCH   4  13
ATOM     13  C   UNL d   1     -39.098  14.304  18.335  0.00  0.00     0.059 C 
BRANCH  13  14
ATOM     14  S   UNL d   1     -38.535  13.868  17.919  0.00  0.00    -0.059 SA
BRANCH  14  15
ATOM     15  C   UNL d   1     -38.399  14.000  17.121  0.00  0.00     0.141 A 
ATOM     16  N   UNL d   1     -38.323  14.687  16.661  0.00  0.00    -0.232 NA
ATOM     17  C   UNL d   1     -38.193  14.477  15.903  0.00  0.00     0.088 A 
ATOM     18  C   UNL d   1     -38.081  14.946  15.238  0.00  0.00     0.020 A 
ATOM     19  C   UNL d   1     -38.180  13.679  15.836  0.00  0.00     0.049 A 
ATOM     20  C   UNL d   1     -37.954  14.593  14.497  0.00  0.00     0.002 A 
ATOM     21  C   UNL d   1     -37.940  13.791  14.426  0.00  0.00     0.001 A 
ATOM     22  C   UNL d   1     -38.053  13.322  15.096  0.00  0.00     0.008 A 
ATOM     23  S   UNL d   1     -38.310  13.370  16.606  0.00  0.00    -0.060 SA
ENDBRANCH  14  15
ENDBRANCH  13  14
ENDBRANCH   4  13
TORSDOF 3
ENDMDL
