MODEL 1
REMARK VINA RESULT:      -7.2      0.000      0.000
REMARK  1 active torsions:
REMARK  status: ('A' for Active; 'I' for Inactive)
REMARK    1  A    between atoms: C_2  and  N_1 
ROOT
ATOM      1  C   UNL d   1     -46.927  13.571  22.709  0.00  0.00     0.127 A 
ATOM      2  C   UNL d   1     -47.358  13.031  22.252  0.00  0.00     0.025 A 
ATOM      3  C   UNL d   1     -48.113  13.222  21.991  0.00  0.00     0.021 A 
ATOM      4  N   UNL d   1     -49.296  12.874  21.274  0.00  0.00    -0.242 NA
ATOM      5  C   UNL d   1     -48.443  13.951  22.182  0.00  0.00     0.003 A 
ATOM      6  C   UNL d   1     -47.266  14.302  22.897  0.00  0.00     0.024 A 
ATOM      7  C   UNL d   1     -48.020  14.493  22.635  0.00  0.00     0.002 A 
ATOM      8  C   UNL d   1     -48.541  12.683  21.536  0.00  0.00     0.099 A 
ATOM      9  C   UNL d   1     -49.626  13.603  21.465  0.00  0.00     0.099 A 
ATOM     10  C   UNL d   1     -49.206  14.152  21.921  0.00  0.00     0.021 A 
ENDROOT
BRANCH   1  11
ATOM     11  N   UNL d   1     -46.169  13.381  22.973  0.00  0.00    -0.114 N 
ATOM     12  O   UNL d   1     -46.069  13.000  23.695  0.00  0.00    -0.532 OA
ATOM     13  O   UNL d   1     -45.506  13.572  22.514  0.00  0.00    -0.532 OA
ENDBRANCH   1  11
TORSDOF 1
ENDMDL
MODEL 2
REMARK VINA RESULT:      -7.2      1.162      1.553
REMARK  1 active torsions:
REMARK  status: ('A' for Active; 'I' for Inactive)
REMARK    1  A    between atoms: C_2  and  N_1 
ROOT
ATOM      1  C   UNL d   1     -47.133  12.518  23.210  0.00  0.00     0.127 A 
ATOM      2  C   UNL d   1     -47.483  12.826  22.525  0.00  0.00     0.025 A 
ATOM      3  C   UNL d   1     -48.253  12.621  22.326  0.00  0.00     0.021 A 
ATOM      4  N   UNL d   1     -49.369  12.724  21.445  0.00  0.00    -0.242 NA
ATOM      5  C   UNL d   1     -48.681  12.110  22.808  0.00  0.00     0.003 A 
ATOM      6  C   UNL d   1     -47.571  12.004  23.689  0.00  0.00     0.024 A 
ATOM      7  C   UNL d   1     -48.340  11.800  23.491  0.00  0.00     0.002 A 
ATOM      8  C   UNL d   1     -48.599  12.928  21.643  0.00  0.00     0.099 A 
ATOM      9  C   UNL d   1     -49.797  12.212  21.927  0.00  0.00     0.099 A 
ATOM     10  C   UNL d   1     -49.461  11.898  22.615  0.00  0.00     0.021 A 
ENDROOT
BRANCH   1  11
ATOM     11  N   UNL d   1     -46.360  12.722  23.411  0.00  0.00    -0.114 N 
ATOM     12  O   UNL d   1     -45.755  12.171  23.326  0.00  0.00    -0.532 OA
ATOM     13  O   UNL d   1     -46.188  13.480  23.698  0.00  0.00    -0.532 OA
ENDBRANCH   1  11
TORSDOF 1
ENDMDL
MODEL 3
REMARK VINA RESULT:      -6.8      1.952      2.916
REMARK  1 active torsions:
REMARK  status: ('A' for Active; 'I' for Inactive)
REMARK    1  A    between atoms: C_2  and  N_1 
ROOT
ATOM      1  C   UNL d   1     -48.677  12.254  22.963  0.00  0.00     0.127 A 
ATOM      2  C   UNL d   1     -47.891  12.095  23.169  0.00  0.00     0.025 A 
ATOM      3  C   UNL d   1     -47.331  12.696  23.155  0.00  0.00     0.021 A 
ATOM      4  N   UNL d   1     -45.988  13.136  23.346  0.00  0.00    -0.242 NA
ATOM      5  C   UNL d   1     -47.550  13.458  22.936  0.00  0.00     0.003 A 
ATOM      6  C   UNL d   1     -48.889  13.024  22.744  0.00  0.00     0.024 A 
ATOM      7  C   UNL d   1     -48.330  13.624  22.730  0.00  0.00     0.002 A 
ATOM      8  C   UNL d   1     -46.548  12.536  23.360  0.00  0.00     0.099 A 
ATOM      9  C   UNL d   1     -46.207  13.899  23.127  0.00  0.00     0.099 A 
ATOM     10  C   UNL d   1     -46.989  14.072  22.919  0.00  0.00     0.021 A 
ENDROOT
BRANCH   1  11
ATOM     11  N   UNL d   1     -49.241  11.652  22.977  0.00  0.00    -0.114 N 
ATOM     12  O   UNL d   1     -49.545  11.359  22.270  0.00  0.00    -0.532 OA
ATOM     13  O   UNL d   1     -49.504  11.341  23.698  0.00  0.00    -0.532 OA
ENDBRANCH   1  11
TORSDOF 1
ENDMDL
MODEL 4
REMARK VINA RESULT:      -6.7      1.960      2.939
REMARK  1 active torsions:
REMARK  status: ('A' for Active; 'I' for Inactive)
REMARK    1  A    between atoms: C_2  and  N_1 
ROOT
ATOM      1  C   UNL d   1     -48.347  13.619  22.894  0.00  0.00     0.127 A 
ATOM      2  C   UNL d   1     -47.521  13.567  22.934  0.00  0.00     0.025 A 
ATOM      3  C   UNL d   1     -47.163  12.873  23.188  0.00  0.00     0.021 A 
ATOM      4  N   UNL d   1     -45.983  12.128  23.482  0.00  0.00    -0.242 NA
ATOM      5  C   UNL d   1     -47.625  12.226  23.404  0.00  0.00     0.003 A 
ATOM      6  C   UNL d   1     -48.804  12.964  23.113  0.00  0.00     0.024 A 
ATOM      7  C   UNL d   1     -48.446  12.271  23.367  0.00  0.00     0.002 A 
ATOM      8  C   UNL d   1     -46.341  12.822  23.228  0.00  0.00     0.099 A 
ATOM      9  C   UNL d   1     -46.444  11.482  23.698  0.00  0.00     0.099 A 
ATOM     10  C   UNL d   1     -47.271  11.520  23.663  0.00  0.00     0.021 A 
ENDROOT
BRANCH   1  11
ATOM     11  N   UNL d   1     -48.708  14.315  22.639  0.00  0.00    -0.114 N 
ATOM     12  O   UNL d   1     -48.865  14.427  21.839  0.00  0.00    -0.532 OA
ATOM     13  O   UNL d   1     -48.915  14.904  23.184  0.00  0.00    -0.532 OA
ENDBRANCH   1  11
TORSDOF 1
ENDMDL
MODEL 5
REMARK VINA RESULT:      -6.2      1.750      2.158
REMARK  1 active torsions:
REMARK  status: ('A' for Active; 'I' for Inactive)
REMARK    1  A    between atoms: C_2  and  N_1 
ROOT
ATOM      1  C   UNL d   1     -48.070  12.315  22.896  0.00  0.00     0.127 A 
ATOM      2  C   UNL d   1     -48.733  12.799  22.795  0.00  0.00     0.025 A 
ATOM      3  C   UNL d   1     -48.643  13.610  22.702  0.00  0.00     0.021 A 
ATOM      4  N   UNL d   1     -49.214  14.902  22.509  0.00  0.00    -0.242 NA
ATOM      5  C   UNL d   1     -47.891  13.944  22.709  0.00  0.00     0.003 A 
ATOM      6  C   UNL d   1     -47.316  12.659  22.902  0.00  0.00     0.024 A 
ATOM      7  C   UNL d   1     -47.225  13.469  22.809  0.00  0.00     0.002 A 
ATOM      8  C   UNL d   1     -49.305  14.091  22.602  0.00  0.00     0.099 A 
ATOM      9  C   UNL d   1     -48.462  15.236  22.516  0.00  0.00     0.099 A 
ATOM     10  C   UNL d   1     -47.790  14.764  22.616  0.00  0.00     0.021 A 
ENDROOT
BRANCH   1  11
ATOM     11  N   UNL d   1     -48.159  11.500  22.989  0.00  0.00    -0.114 N 
ATOM     12  O   UNL d   1     -48.468  11.048  22.375  0.00  0.00    -0.532 OA
ATOM     13  O   UNL d   1     -47.938  11.133  23.698  0.00  0.00    -0.532 OA
ENDBRANCH   1  11
TORSDOF 1
ENDMDL
MODEL 6
REMARK VINA RESULT:      -5.8      2.000      2.165
REMARK  1 active torsions:
REMARK  status: ('A' for Active; 'I' for Inactive)
REMARK    1  A    between atoms: C_2  and  N_1 
ROOT
ATOM      1  C   UNL d   1     -48.263  13.864  22.966  0.00  0.00     0.127 A 
ATOM      2  C   UNL d   1     -48.085  13.065  23.094  0.00  0.00     0.025 A 
ATOM      3  C   UNL d   1     -48.680  12.535  23.292  0.00  0.00     0.021 A 
ATOM      4  N   UNL d   1     -49.095  11.210  23.617  0.00  0.00    -0.242 NA
ATOM      5  C   UNL d   1     -49.457  12.796  23.364  0.00  0.00     0.003 A 
ATOM      6  C   UNL d   1     -49.048  14.118  23.040  0.00  0.00     0.024 A 
ATOM      7  C   UNL d   1     -49.643  13.589  23.238  0.00  0.00     0.002 A 
ATOM      8  C   UNL d   1     -48.500  11.740  23.419  0.00  0.00     0.099 A 
ATOM      9  C   UNL d   1     -49.872  11.471  23.689  0.00  0.00     0.099 A 
ATOM     10  C   UNL d   1     -50.065  12.266  23.563  0.00  0.00     0.021 A 
ENDROOT
BRANCH   1  11
ATOM     11  N   UNL d   1     -47.667  14.398  22.768  0.00  0.00    -0.114 N 
ATOM     12  O   UNL d   1     -47.855  15.093  22.369  0.00  0.00    -0.532 OA
ATOM     13  O   UNL d   1     -46.879  14.239  22.967  0.00  0.00    -0.532 OA
ENDBRANCH   1  11
TORSDOF 1
ENDMDL
MODEL 7
REMARK VINA RESULT:      -5.3      1.885      2.180
REMARK  1 active torsions:
REMARK  status: ('A' for Active; 'I' for Inactive)
REMARK    1  A    between atoms: C_2  and  N_1 
ROOT
ATOM      1  C   UNL d   1     -45.526  13.090  22.472  0.00  0.00     0.127 A 
ATOM      2  C   UNL d   1     -45.811  12.366  22.756  0.00  0.00     0.025 A 
ATOM      3  C   UNL d   1     -46.572  12.312  23.060  0.00  0.00     0.021 A 
ATOM      4  N   UNL d   1     -47.614  11.535  23.647  0.00  0.00    -0.242 NA
ATOM      5  C   UNL d   1     -47.054  12.978  23.085  0.00  0.00     0.003 A 
ATOM      6  C   UNL d   1     -46.019  13.756  22.500  0.00  0.00     0.024 A 
ATOM      7  C   UNL d   1     -46.779  13.702  22.804  0.00  0.00     0.002 A 
ATOM      8  C   UNL d   1     -46.853  11.590  23.342  0.00  0.00     0.099 A 
ATOM      9  C   UNL d   1     -48.097  12.202  23.671  0.00  0.00     0.099 A 
ATOM     10  C   UNL d   1     -47.826  12.932  23.391  0.00  0.00     0.021 A 
ENDROOT
BRANCH   1  11
ATOM     11  N   UNL d   1     -44.763  13.147  22.166  0.00  0.00    -0.114 N 
ATOM     12  O   UNL d   1     -44.445  13.886  21.990  0.00  0.00    -0.532 OA
ATOM     13  O   UNL d   1     -44.313  12.464  22.035  0.00  0.00    -0.532 OA
ENDBRANCH   1  11
TORSDOF 1
ENDMDL
MODEL 8
REMARK VINA RESULT:      -5.3      8.103      8.650
REMARK  1 active torsions:
REMARK  status: ('A' for Active; 'I' for Inactive)
REMARK    1  A    between atoms: C_2  and  N_1 
ROOT
ATOM      1  C   UNL d   1     -40.746  15.246  17.662  0.00  0.00     0.127 A 
ATOM      2  C   UNL d   1     -40.837  15.729  18.328  0.00  0.00     0.025 A 
ATOM      3  C   UNL d   1     -40.660  15.439  19.076  0.00  0.00     0.021 A 
ATOM      4  N   UNL d   1     -40.574  15.632  20.486  0.00  0.00    -0.242 NA
ATOM      5  C   UNL d   1     -40.392  14.666  19.165  0.00  0.00     0.003 A 
ATOM      6  C   UNL d   1     -40.476  14.470  17.761  0.00  0.00     0.024 A 
ATOM      7  C   UNL d   1     -40.300  14.180  18.507  0.00  0.00     0.002 A 
ATOM      8  C   UNL d   1     -40.751  15.922  19.739  0.00  0.00     0.099 A 
ATOM      9  C   UNL d   1     -40.307  14.859  20.576  0.00  0.00     0.099 A 
ATOM     10  C   UNL d   1     -40.211  14.365  19.918  0.00  0.00     0.021 A 
ENDROOT
BRANCH   1  11
ATOM     11  N   UNL d   1     -40.923  15.536  16.910  0.00  0.00    -0.114 N 
ATOM     12  O   UNL d   1     -40.341  15.917  16.470  0.00  0.00    -0.532 OA
ATOM     13  O   UNL d   1     -41.683  15.445  16.595  0.00  0.00    -0.532 OA
ENDBRANCH   1  11
TORSDOF 1
ENDMDL
MODEL 9
REMARK VINA RESULT:      -5.0      9.094      9.928
REMARK  1 active torsions:
REMARK  status: ('A' for Active; 'I' for Inactive)
REMARK    1  A    between atoms: C_2  and  N_1 
ROOT
ATOM      1  C   UNL d   1     -40.100  14.272  17.995  0.00  0.00     0.127 A 
ATOM      2  C   UNL d   1     -39.539  13.668  17.913  0.00  0.00     0.025 A 
ATOM      3  C   UNL d   1     -39.019  13.670  17.278  0.00  0.00     0.021 A 
ATOM      4  N   UNL d   1     -37.941  13.070  16.563  0.00  0.00    -0.242 NA
ATOM      5  C   UNL d   1     -39.053  14.274  16.720  0.00  0.00     0.003 A 
ATOM      6  C   UNL d   1     -40.127  14.876  17.429  0.00  0.00     0.024 A 
ATOM      7  C   UNL d   1     -39.608  14.878  16.794  0.00  0.00     0.002 A 
ATOM      8  C   UNL d   1     -38.461  13.068  17.198  0.00  0.00     0.099 A 
ATOM      9  C   UNL d   1     -37.975  13.674  16.005  0.00  0.00     0.099 A 
ATOM     10  C   UNL d   1     -38.530  14.284  16.074  0.00  0.00     0.021 A 
ENDROOT
BRANCH   1  11
ATOM     11  N   UNL d   1     -40.623  14.271  18.632  0.00  0.00    -0.114 N 
ATOM     12  O   UNL d   1     -41.282  13.778  18.622  0.00  0.00    -0.532 OA
ATOM     13  O   UNL d   1     -40.490  14.765  19.284  0.00  0.00    -0.532 OA
ENDBRANCH   1  11
TORSDOF 1
ENDMDL
