MODEL 1
REMARK VINA RESULT:      -9.1      0.000      0.000
REMARK  6 active torsions:
REMARK  status: ('A' for Active; 'I' for Inactive)
REMARK    1  A    between atoms: N_8  and  S_1 
REMARK    2  A    between atoms: C_12  and  S_1 
REMARK    3  A    between atoms: N_5  and  C_2 
REMARK    4  A    between atoms: C_4  and  O_9 
REMARK    5  A    between atoms: O_9  and  C_10 
REMARK    6  A    between atoms: C_10  and  C_16 
ROOT
ATOM      1  C   UNL d   1      52.069  33.170  52.968  0.00  0.00     0.104 A 
ATOM      2  C   UNL d   1      50.815  34.226  52.993  0.00  0.00     0.064 A 
ATOM      3  C   UNL d   1      51.361  32.960  53.319  0.00  0.00     0.013 A 
ATOM      4  C   UNL d   1      52.150  33.916  52.626  0.00  0.00     0.013 A 
ATOM      5  C   UNL d   1      50.724  33.494  53.333  0.00  0.00     0.006 A 
ATOM      6  C   UNL d   1      51.522  34.448  52.638  0.00  0.00     0.006 A 
ENDROOT
BRANCH   2   7
ATOM      7  C   UNL d   1      50.184  34.766  53.002  0.00  0.00     0.300 C 
ATOM      8  O   UNL d   1      50.228  35.435  53.469  0.00  0.00    -0.259 OA
BRANCH   7   9
ATOM      9  O   UNL d   1      49.514  34.620  52.539  0.00  0.00    -0.271 OA
BRANCH   9  10
ATOM     10  C   UNL d   1      48.849  35.104  52.597  0.00  0.00     0.132 A 
ATOM     11  C   UNL d   1      48.312  35.152  51.972  0.00  0.00     0.207 A 
ATOM     12  C   UNL d   1      47.646  35.636  52.030  0.00  0.00     0.303 A 
ATOM     13  O   UNL d   1      47.111  35.680  51.401  0.00  0.00    -0.263 OA
ATOM     14  N   UNL d   1      47.518  36.073  52.714  0.00  0.00    -0.206 NA
ATOM     15  C   UNL d   1      48.047  36.029  53.336  0.00  0.00     0.087 A 
ATOM     16  C   UNL d   1      48.712  35.545  53.277  0.00  0.00     0.046 A 
ATOM     17  C   UNL d   1      47.919  36.472  54.031  0.00  0.00     0.021 C 
BRANCH  11  18
ATOM     18  N   UNL d   1      48.446  34.708  51.284  0.00  0.00    -0.107 N 
ATOM     19  O   UNL d   1      48.117  33.954  51.215  0.00  0.00    -0.531 OA
ATOM     20  O   UNL d   1      48.904  35.020  50.672  0.00  0.00    -0.531 OA
ENDBRANCH  11  18
ENDBRANCH   9  10
ENDBRANCH   7   9
ENDBRANCH   2   7
BRANCH   1  21
ATOM     21  S   UNL d   1      52.700  32.651  52.950  0.00  0.00     0.271 S 
ATOM     22  O   UNL d   1      53.236  32.066  52.783  0.00  0.00    -0.200 OA
ATOM     23  O   UNL d   1      52.231  32.429  52.324  0.00  0.00    -0.200 OA
BRANCH  21  24
ATOM     24  N   UNL d   1      53.284  32.725  53.516  0.00  0.00    -0.229 N 
ATOM     25  C   UNL d   1      53.927  33.226  53.389  0.00  0.00     0.092 A 
ATOM     26  C   UNL d   1      54.500  33.288  53.964  0.00  0.00     0.020 A 
ATOM     27  C   UNL d   1      54.449  32.860  54.672  0.00  0.00     0.003 A 
ATOM     28  C   UNL d   1      53.810  32.367  54.791  0.00  0.00     0.020 A 
ATOM     29  C   UNL d   1      53.222  32.296  54.214  0.00  0.00     0.092 A 
ENDBRANCH  21  24
ENDBRANCH   1  21
TORSDOF 6
ENDMDL
MODEL 2
REMARK VINA RESULT:      -8.0      1.214      1.815
REMARK  6 active torsions:
REMARK  status: ('A' for Active; 'I' for Inactive)
REMARK    1  A    between atoms: N_8  and  S_1 
REMARK    2  A    between atoms: C_12  and  S_1 
REMARK    3  A    between atoms: N_5  and  C_2 
REMARK    4  A    between atoms: C_4  and  O_9 
REMARK    5  A    between atoms: O_9  and  C_10 
REMARK    6  A    between atoms: C_10  and  C_16 
ROOT
ATOM      1  C   UNL d   1      51.691  33.739  52.877  0.00  0.00     0.104 A 
ATOM      2  C   UNL d   1      50.204  34.284  52.457  0.00  0.00     0.064 A 
ATOM      3  C   UNL d   1      51.027  33.453  53.256  0.00  0.00     0.013 A 
ATOM      4  C   UNL d   1      51.610  34.303  52.281  0.00  0.00     0.013 A 
ATOM      5  C   UNL d   1      50.271  33.728  53.045  0.00  0.00     0.006 A 
ATOM      6  C   UNL d   1      50.865  34.578  52.068  0.00  0.00     0.006 A 
ENDROOT
BRANCH   2   7
ATOM      7  C   UNL d   1      49.452  34.564  52.239  0.00  0.00     0.300 C 
ATOM      8  O   UNL d   1      49.100  34.293  51.554  0.00  0.00    -0.259 OA
BRANCH   7   9
ATOM      9  O   UNL d   1      49.067  35.116  52.721  0.00  0.00    -0.271 OA
BRANCH   9  10
ATOM     10  C   UNL d   1      48.334  35.425  52.502  0.00  0.00     0.132 A 
ATOM     11  C   UNL d   1      47.911  35.905  53.024  0.00  0.00     0.207 A 
ATOM     12  C   UNL d   1      47.178  36.214  52.805  0.00  0.00     0.303 A 
ATOM     13  O   UNL d   1      46.758  36.695  53.332  0.00  0.00    -0.263 OA
ATOM     14  N   UNL d   1      46.866  36.042  52.064  0.00  0.00    -0.206 NA
ATOM     15  C   UNL d   1      47.282  35.567  51.544  0.00  0.00     0.087 A 
ATOM     16  C   UNL d   1      48.015  35.258  51.763  0.00  0.00     0.046 A 
ATOM     17  C   UNL d   1      46.968  35.391  50.791  0.00  0.00     0.021 C 
BRANCH  11  18
ATOM     18  N   UNL d   1      48.229  36.076  53.771  0.00  0.00    -0.107 N 
ATOM     19  O   UNL d   1      48.753  36.708  53.855  0.00  0.00    -0.531 OA
ATOM     20  O   UNL d   1      48.022  35.616  54.424  0.00  0.00    -0.531 OA
ENDBRANCH  11  18
ENDBRANCH   9  10
ENDBRANCH   7   9
ENDBRANCH   2   7
BRANCH   1  21
ATOM     21  S   UNL d   1      52.437  33.474  53.079  0.00  0.00     0.271 S 
ATOM     22  O   UNL d   1      53.152  33.094  53.134  0.00  0.00    -0.200 OA
ATOM     23  O   UNL d   1      52.221  33.018  52.441  0.00  0.00    -0.200 OA
BRANCH  21  24
ATOM     24  N   UNL d   1      52.820  33.824  53.710  0.00  0.00    -0.229 N 
ATOM     25  C   UNL d   1      53.005  34.628  53.692  0.00  0.00     0.092 A 
ATOM     26  C   UNL d   1      53.386  34.961  54.331  0.00  0.00     0.020 A 
ATOM     27  C   UNL d   1      53.590  34.509  54.995  0.00  0.00     0.003 A 
ATOM     28  C   UNL d   1      53.404  33.714  55.005  0.00  0.00     0.020 A 
ATOM     29  C   UNL d   1      53.017  33.365  54.363  0.00  0.00     0.092 A 
ENDBRANCH  21  24
ENDBRANCH   1  21
TORSDOF 6
ENDMDL
MODEL 3
REMARK VINA RESULT:      -7.3      1.318      5.355
REMARK  6 active torsions:
REMARK  status: ('A' for Active; 'I' for Inactive)
REMARK    1  A    between atoms: N_8  and  S_1 
REMARK    2  A    between atoms: C_12  and  S_1 
REMARK    3  A    between atoms: N_5  and  C_2 
REMARK    4  A    between atoms: C_4  and  O_9 
REMARK    5  A    between atoms: O_9  and  C_10 
REMARK    6  A    between atoms: C_10  and  C_16 
ROOT
ATOM      1  C   UNL d   1      49.586  34.534  52.139  0.00  0.00     0.104 A 
ATOM      2  C   UNL d   1      51.110  34.154  52.610  0.00  0.00     0.064 A 
ATOM      3  C   UNL d   1      49.743  34.357  52.921  0.00  0.00     0.013 A 
ATOM      4  C   UNL d   1      50.199  34.520  51.587  0.00  0.00     0.013 A 
ATOM      5  C   UNL d   1      50.514  34.164  53.163  0.00  0.00     0.006 A 
ATOM      6  C   UNL d   1      50.965  34.330  51.821  0.00  0.00     0.006 A 
ENDROOT
BRANCH   2   7
ATOM      7  C   UNL d   1      51.884  33.962  52.843  0.00  0.00     0.300 C 
ATOM      8  O   UNL d   1      52.436  34.556  52.947  0.00  0.00    -0.259 OA
BRANCH   7   9
ATOM      9  O   UNL d   1      52.089  33.171  52.969  0.00  0.00    -0.271 OA
BRANCH   9  10
ATOM     10  C   UNL d   1      52.740  32.974  53.435  0.00  0.00     0.132 A 
ATOM     11  C   UNL d   1      53.040  32.204  53.431  0.00  0.00     0.207 A 
ATOM     12  C   UNL d   1      53.691  32.008  53.897  0.00  0.00     0.303 A 
ATOM     13  O   UNL d   1      53.987  31.235  53.889  0.00  0.00    -0.263 OA
ATOM     14  N   UNL d   1      54.044  32.581  54.369  0.00  0.00    -0.206 NA
ATOM     15  C   UNL d   1      53.751  33.344  54.376  0.00  0.00     0.087 A 
ATOM     16  C   UNL d   1      53.099  33.541  53.910  0.00  0.00     0.046 A 
ATOM     17  C   UNL d   1      54.108  33.928  54.854  0.00  0.00     0.021 C 
BRANCH  11  18
ATOM     18  N   UNL d   1      52.680  31.629  52.953  0.00  0.00    -0.107 N 
ATOM     19  O   UNL d   1      52.048  31.190  53.252  0.00  0.00    -0.531 OA
ATOM     20  O   UNL d   1      52.953  31.498  52.186  0.00  0.00    -0.531 OA
ENDBRANCH  11  18
ENDBRANCH   9  10
ENDBRANCH   7   9
ENDBRANCH   2   7
BRANCH   1  21
ATOM     21  S   UNL d   1      48.831  34.724  51.893  0.00  0.00     0.271 S 
ATOM     22  O   UNL d   1      48.104  34.765  51.536  0.00  0.00    -0.200 OA
ATOM     23  O   UNL d   1      49.034  34.072  51.451  0.00  0.00    -0.200 OA
BRANCH  21  24
ATOM     24  N   UNL d   1      48.458  35.366  52.235  0.00  0.00    -0.229 N 
ATOM     25  C   UNL d   1      48.362  35.404  53.054  0.00  0.00     0.092 A 
ATOM     26  C   UNL d   1      47.988  36.051  53.378  0.00  0.00     0.020 A 
ATOM     27  C   UNL d   1      47.704  36.669  52.904  0.00  0.00     0.003 A 
ATOM     28  C   UNL d   1      47.803  36.623  52.095  0.00  0.00     0.020 A 
ATOM     29  C   UNL d   1      48.181  35.971  51.754  0.00  0.00     0.092 A 
ENDBRANCH  21  24
ENDBRANCH   1  21
TORSDOF 6
ENDMDL
MODEL 4
REMARK VINA RESULT:      -7.2      1.707      5.433
REMARK  6 active torsions:
REMARK  status: ('A' for Active; 'I' for Inactive)
REMARK    1  A    between atoms: N_8  and  S_1 
REMARK    2  A    between atoms: C_12  and  S_1 
REMARK    3  A    between atoms: N_5  and  C_2 
REMARK    4  A    between atoms: C_4  and  O_9 
REMARK    5  A    between atoms: O_9  and  C_10 
REMARK    6  A    between atoms: C_10  and  C_16 
ROOT
ATOM      1  C   UNL d   1      49.745  34.458  52.266  0.00  0.00     0.104 A 
ATOM      2  C   UNL d   1      51.241  33.970  52.725  0.00  0.00     0.064 A 
ATOM      3  C   UNL d   1      49.837  33.973  52.917  0.00  0.00     0.013 A 
ATOM      4  C   UNL d   1      50.408  34.701  51.841  0.00  0.00     0.013 A 
ATOM      5  C   UNL d   1      50.595  33.724  53.152  0.00  0.00     0.006 A 
ATOM      6  C   UNL d   1      51.160  34.458  52.069  0.00  0.00     0.006 A 
ENDROOT
BRANCH   2   7
ATOM      7  C   UNL d   1      52.002  33.726  52.953  0.00  0.00     0.300 C 
ATOM      8  O   UNL d   1      52.379  33.131  52.539  0.00  0.00    -0.259 OA
BRANCH   7   9
ATOM      9  O   UNL d   1      52.372  34.090  53.597  0.00  0.00    -0.271 OA
BRANCH   9  10
ATOM     10  C   UNL d   1      53.017  33.733  53.967  0.00  0.00     0.132 A 
ATOM     11  C   UNL d   1      53.509  34.173  54.464  0.00  0.00     0.207 A 
ATOM     12  C   UNL d   1      54.154  33.816  54.834  0.00  0.00     0.303 A 
ATOM     13  O   UNL d   1      54.644  34.262  55.330  0.00  0.00    -0.263 OA
ATOM     14  N   UNL d   1      54.309  33.019  54.707  0.00  0.00    -0.206 NA
ATOM     15  C   UNL d   1      53.825  32.580  54.216  0.00  0.00     0.087 A 
ATOM     16  C   UNL d   1      53.179  32.937  53.846  0.00  0.00     0.046 A 
ATOM     17  C   UNL d   1      53.980  31.770  54.086  0.00  0.00     0.021 C 
BRANCH  11  18
ATOM     18  N   UNL d   1      53.349  34.977  54.589  0.00  0.00    -0.107 N 
ATOM     19  O   UNL d   1      52.879  35.204  55.229  0.00  0.00    -0.531 OA
ATOM     20  O   UNL d   1      53.657  35.546  54.076  0.00  0.00    -0.531 OA
ENDBRANCH  11  18
ENDBRANCH   9  10
ENDBRANCH   7   9
ENDBRANCH   2   7
BRANCH   1  21
ATOM     21  S   UNL d   1      49.004  34.707  52.029  0.00  0.00     0.271 S 
ATOM     22  O   UNL d   1      48.287  34.817  51.665  0.00  0.00    -0.200 OA
ATOM     23  O   UNL d   1      49.189  34.097  51.523  0.00  0.00    -0.200 OA
BRANCH  21  24
ATOM     24  N   UNL d   1      48.651  35.324  52.431  0.00  0.00    -0.229 N 
ATOM     25  C   UNL d   1      48.637  35.331  53.256  0.00  0.00     0.092 A 
ATOM     26  C   UNL d   1      48.281  35.954  53.641  0.00  0.00     0.020 A 
ATOM     27  C   UNL d   1      47.934  36.579  53.221  0.00  0.00     0.003 A 
ATOM     28  C   UNL d   1      47.951  36.565  52.405  0.00  0.00     0.020 A 
ATOM     29  C   UNL d   1      48.310  35.937  52.003  0.00  0.00     0.092 A 
ENDBRANCH  21  24
ENDBRANCH   1  21
TORSDOF 6
ENDMDL
MODEL 5
REMARK VINA RESULT:      -6.8      3.046      4.440
REMARK  6 active torsions:
REMARK  status: ('A' for Active; 'I' for Inactive)
REMARK    1  A    between atoms: N_8  and  S_1 
REMARK    2  A    between atoms: C_12  and  S_1 
REMARK    3  A    between atoms: N_5  and  C_2 
REMARK    4  A    between atoms: C_4  and  O_9 
REMARK    5  A    between atoms: O_9  and  C_10 
REMARK    6  A    between atoms: C_10  and  C_16 
ROOT
ATOM      1  C   UNL d   1      53.107  30.423  53.345  0.00  0.00     0.104 A 
ATOM      2  C   UNL d   1      53.279  32.048  53.206  0.00  0.00     0.064 A 
ATOM      3  C   UNL d   1      53.841  30.769  53.440  0.00  0.00     0.013 A 
ATOM      4  C   UNL d   1      52.452  30.896  53.178  0.00  0.00     0.013 A 
ATOM      5  C   UNL d   1      53.931  31.592  53.371  0.00  0.00     0.006 A 
ATOM      6  C   UNL d   1      52.536  31.712  53.108  0.00  0.00     0.006 A 
ENDROOT
BRANCH   2   7
ATOM      7  C   UNL d   1      53.360  32.872  53.135  0.00  0.00     0.300 C 
ATOM      8  O   UNL d   1      53.452  33.209  52.397  0.00  0.00    -0.259 OA
BRANCH   7   9
ATOM      9  O   UNL d   1      53.347  33.344  53.814  0.00  0.00    -0.271 OA
BRANCH   9  10
ATOM     10  C   UNL d   1      52.913  34.045  53.830  0.00  0.00     0.132 A 
ATOM     11  C   UNL d   1      53.137  34.663  54.331  0.00  0.00     0.207 A 
ATOM     12  C   UNL d   1      52.703  35.365  54.346  0.00  0.00     0.303 A 
ATOM     13  O   UNL d   1      52.932  35.981  54.849  0.00  0.00    -0.263 OA
ATOM     14  N   UNL d   1      52.045  35.449  53.861  0.00  0.00    -0.206 NA
ATOM     15  C   UNL d   1      51.820  34.840  53.364  0.00  0.00     0.087 A 
ATOM     16  C   UNL d   1      52.254  34.139  53.349  0.00  0.00     0.046 A 
ATOM     17  C   UNL d   1      51.152  34.924  52.871  0.00  0.00     0.021 C 
BRANCH  11  18
ATOM     18  N   UNL d   1      53.802  34.573  54.818  0.00  0.00    -0.107 N 
ATOM     19  O   UNL d   1      53.718  34.217  55.559  0.00  0.00    -0.531 OA
ATOM     20  O   UNL d   1      54.541  34.838  54.564  0.00  0.00    -0.531 OA
ENDBRANCH  11  18
ENDBRANCH   9  10
ENDBRANCH   7   9
ENDBRANCH   2   7
BRANCH   1  21
ATOM     21  S   UNL d   1      53.010  29.615  53.411  0.00  0.00     0.271 S 
ATOM     22  O   UNL d   1      52.872  28.824  53.294  0.00  0.00    -0.200 OA
ATOM     23  O   UNL d   1      52.846  29.780  52.632  0.00  0.00    -0.200 OA
BRANCH  21  24
ATOM     24  N   UNL d   1      53.136  29.264  54.139  0.00  0.00    -0.229 N 
ATOM     25  C   UNL d   1      52.652  29.451  54.781  0.00  0.00     0.092 A 
ATOM     26  C   UNL d   1      52.792  29.092  55.499  0.00  0.00     0.020 A 
ATOM     27  C   UNL d   1      53.407  28.546  55.596  0.00  0.00     0.003 A 
ATOM     28  C   UNL d   1      53.882  28.366  54.956  0.00  0.00     0.020 A 
ATOM     29  C   UNL d   1      53.750  28.724  54.222  0.00  0.00     0.092 A 
ENDBRANCH  21  24
ENDBRANCH   1  21
TORSDOF 6
ENDMDL
MODEL 6
REMARK VINA RESULT:      -6.3      1.665      5.528
REMARK  6 active torsions:
REMARK  status: ('A' for Active; 'I' for Inactive)
REMARK    1  A    between atoms: N_8  and  S_1 
REMARK    2  A    between atoms: C_12  and  S_1 
REMARK    3  A    between atoms: N_5  and  C_2 
REMARK    4  A    between atoms: C_4  and  O_9 
REMARK    5  A    between atoms: O_9  and  C_10 
REMARK    6  A    between atoms: C_10  and  C_16 
ROOT
ATOM      1  C   UNL d   1      48.910  35.074  52.167  0.00  0.00     0.104 A 
ATOM      2  C   UNL d   1      50.142  34.208  52.816  0.00  0.00     0.064 A 
ATOM      3  C   UNL d   1      49.194  35.256  52.911  0.00  0.00     0.013 A 
ATOM      4  C   UNL d   1      49.247  34.451  51.743  0.00  0.00     0.013 A 
ATOM      5  C   UNL d   1      49.818  34.819  53.243  0.00  0.00     0.006 A 
ATOM      6  C   UNL d   1      49.865  34.015  52.067  0.00  0.00     0.006 A 
ENDROOT
BRANCH   2   7
ATOM      7  C   UNL d   1      50.766  33.765  53.140  0.00  0.00     0.300 C 
ATOM      8  O   UNL d   1      50.615  33.036  53.477  0.00  0.00    -0.259 OA
BRANCH   7   9
ATOM      9  O   UNL d   1      51.536  34.068  53.118  0.00  0.00    -0.271 OA
BRANCH   9  10
ATOM     10  C   UNL d   1      52.186  33.567  53.202  0.00  0.00     0.132 A 
ATOM     11  C   UNL d   1      52.899  33.857  53.501  0.00  0.00     0.207 A 
ATOM     12  C   UNL d   1      53.550  33.357  53.585  0.00  0.00     0.303 A 
ATOM     13  O   UNL d   1      54.262  33.652  53.884  0.00  0.00    -0.263 OA
ATOM     14  N   UNL d   1      53.488  32.566  53.371  0.00  0.00    -0.206 NA
ATOM     15  C   UNL d   1      52.783  32.275  53.075  0.00  0.00     0.087 A 
ATOM     16  C   UNL d   1      52.133  32.775  52.991  0.00  0.00     0.046 A 
ATOM     17  C   UNL d   1      52.718  31.472  52.857  0.00  0.00     0.021 C 
BRANCH  11  18
ATOM     18  N   UNL d   1      52.958  34.656  53.716  0.00  0.00    -0.107 N 
ATOM     19  O   UNL d   1      53.086  35.226  53.132  0.00  0.00    -0.531 OA
ATOM     20  O   UNL d   1      52.887  34.879  54.507  0.00  0.00    -0.531 OA
ENDBRANCH  11  18
ENDBRANCH   9  10
ENDBRANCH   7   9
ENDBRANCH   2   7
BRANCH   1  21
ATOM     21  S   UNL d   1      48.297  35.499  51.834  0.00  0.00     0.271 S 
ATOM     22  O   UNL d   1      47.783  35.891  51.344  0.00  0.00    -0.200 OA
ATOM     23  O   UNL d   1      48.782  35.310  51.209  0.00  0.00    -0.200 OA
BRANCH  21  24
ATOM     24  N   UNL d   1      47.703  35.776  52.322  0.00  0.00    -0.229 N 
ATOM     25  C   UNL d   1      47.825  36.447  52.787  0.00  0.00     0.092 A 
ATOM     26  C   UNL d   1      47.221  36.709  53.268  0.00  0.00     0.020 A 
ATOM     27  C   UNL d   1      46.492  36.317  53.298  0.00  0.00     0.003 A 
ATOM     28  C   UNL d   1      46.379  35.655  52.835  0.00  0.00     0.020 A 
ATOM     29  C   UNL d   1      46.984  35.379  52.343  0.00  0.00     0.092 A 
ENDBRANCH  21  24
ENDBRANCH   1  21
TORSDOF 6
ENDMDL
