MODEL 1
REMARK VINA RESULT:      -9.2      0.000      0.000
REMARK  4 active torsions:
REMARK  status: ('A' for Active; 'I' for Inactive)
REMARK    1  A    between atoms: N_2  and  S_1 
REMARK    2  A    between atoms: C_3  and  S_1 
REMARK    3  A    between atoms: C_11  and  N_2 
REMARK    4  A    between atoms: C_6  and  C_7 
ROOT
ATOM      1  S   UNL d   1      52.963  32.897  53.065  0.00  0.00     0.285 S 
ATOM      2  O   UNL d   1      52.147  32.834  53.157  0.00  0.00    -0.198 OA
ATOM      3  O   UNL d   1      53.793  32.972  52.980  0.00  0.00    -0.198 OA
ENDROOT
BRANCH   1   4
ATOM      4  N   UNL d   1      52.976  32.207  52.628  0.00  0.00    -0.158 NA
BRANCH   4   5
ATOM      5  C   UNL d   1      53.034  31.478  53.003  0.00  0.00     0.094 A 
ATOM      6  C   UNL d   1      52.359  30.997  53.013  0.00  0.00     0.020 A 
ATOM      7  C   UNL d   1      52.406  30.251  53.392  0.00  0.00     0.005 A 
ATOM      8  C   UNL d   1      53.113  30.013  53.745  0.00  0.00     0.039 A 
ATOM      9  C   UNL d   1      53.780  30.492  53.734  0.00  0.00     0.005 A 
ATOM     10  C   UNL d   1      53.738  31.225  53.361  0.00  0.00     0.020 A 
BRANCH   8  11
ATOM     11  C   UNL d   1      53.151  29.262  54.124  0.00  0.00     0.196 C 
ATOM     12  O   UNL d   1      52.985  28.586  53.682  0.00  0.00    -0.287 OA
ATOM     13  C   UNL d   1      53.353  29.229  54.923  0.00  0.00     0.045 C 
ENDBRANCH   8  11
ENDBRANCH   4   5
ENDBRANCH   1   4
BRANCH   1  14
ATOM     14  C   UNL d   1      52.955  33.628  53.529  0.00  0.00     0.105 A 
ATOM     15  C   UNL d   1      52.576  34.281  53.223  0.00  0.00     0.015 A 
ATOM     16  C   UNL d   1      52.556  34.989  53.648  0.00  0.00     0.022 A 
ATOM     17  C   UNL d   1      52.920  35.030  54.379  0.00  0.00     0.103 A 
ATOM     18  C   UNL d   1      53.313  34.355  54.697  0.00  0.00     0.022 A 
ATOM     19  N   UNL d   1      52.900  35.758  54.816  0.00  0.00    -0.148 N 
ATOM     20  C   UNL d   1      53.315  33.658  54.244  0.00  0.00     0.015 A 
ENDBRANCH   1  14
TORSDOF 4
ENDMDL
MODEL 2
REMARK VINA RESULT:      -8.9      1.772      4.332
REMARK  4 active torsions:
REMARK  status: ('A' for Active; 'I' for Inactive)
REMARK    1  A    between atoms: N_2  and  S_1 
REMARK    2  A    between atoms: C_3  and  S_1 
REMARK    3  A    between atoms: C_11  and  N_2 
REMARK    4  A    between atoms: C_6  and  C_7 
ROOT
ATOM      1  S   UNL d   1      52.940  32.520  53.166  0.00  0.00     0.285 S 
ATOM      2  O   UNL d   1      52.861  32.359  52.362  0.00  0.00    -0.198 OA
ATOM      3  O   UNL d   1      53.023  32.668  53.986  0.00  0.00    -0.198 OA
ENDROOT
BRANCH   1   4
ATOM      4  N   UNL d   1      52.839  33.318  53.025  0.00  0.00    -0.158 NA
BRANCH   4   5
ATOM      5  C   UNL d   1      52.086  33.630  52.921  0.00  0.00     0.094 A 
ATOM      6  C   UNL d   1      51.909  33.965  52.185  0.00  0.00     0.020 A 
ATOM      7  C   UNL d   1      51.144  34.286  52.066  0.00  0.00     0.005 A 
ATOM      8  C   UNL d   1      50.589  34.263  52.676  0.00  0.00     0.039 A 
ATOM      9  C   UNL d   1      50.768  33.930  53.405  0.00  0.00     0.005 A 
ATOM     10  C   UNL d   1      51.518  33.613  53.525  0.00  0.00     0.020 A 
BRANCH   8  11
ATOM     11  C   UNL d   1      49.823  34.588  52.548  0.00  0.00     0.196 C 
ATOM     12  O   UNL d   1      49.483  35.046  53.143  0.00  0.00    -0.287 OA
ATOM     13  C   UNL d   1      49.441  34.437  51.833  0.00  0.00     0.045 C 
ENDBRANCH   8  11
ENDBRANCH   4   5
ENDBRANCH   1   4
BRANCH   1  14
ATOM     14  C   UNL d   1      53.047  31.674  53.319  0.00  0.00     0.105 A 
ATOM     15  C   UNL d   1      53.548  31.446  53.919  0.00  0.00     0.015 A 
ATOM     16  C   UNL d   1      53.665  30.644  54.083  0.00  0.00     0.022 A 
ATOM     17  C   UNL d   1      53.274  30.082  53.638  0.00  0.00     0.103 A 
ATOM     18  C   UNL d   1      52.755  30.316  53.016  0.00  0.00     0.022 A 
ATOM     19  N   UNL d   1      53.394  29.257  53.807  0.00  0.00    -0.148 N 
ATOM     20  C   UNL d   1      52.659  31.130  52.877  0.00  0.00     0.015 A 
ENDBRANCH   1  14
TORSDOF 4
ENDMDL
MODEL 3
REMARK VINA RESULT:      -8.7      2.357      3.717
REMARK  4 active torsions:
REMARK  status: ('A' for Active; 'I' for Inactive)
REMARK    1  A    between atoms: N_2  and  S_1 
REMARK    2  A    between atoms: C_3  and  S_1 
REMARK    3  A    between atoms: C_11  and  N_2 
REMARK    4  A    between atoms: C_6  and  C_7 
ROOT
ATOM      1  S   UNL d   1      53.063  32.895  53.443  0.00  0.00     0.285 S 
ATOM      2  O   UNL d   1      52.707  32.516  54.081  0.00  0.00    -0.198 OA
ATOM      3  O   UNL d   1      53.437  33.284  52.802  0.00  0.00    -0.198 OA
ENDROOT
BRANCH   1   4
ATOM      4  N   UNL d   1      52.441  32.683  52.957  0.00  0.00    -0.158 NA
BRANCH   4   5
ATOM      5  C   UNL d   1      51.800  33.188  52.858  0.00  0.00     0.094 A 
ATOM      6  C   UNL d   1      51.118  33.033  53.302  0.00  0.00     0.020 A 
ATOM      7  C   UNL d   1      50.458  33.541  53.210  0.00  0.00     0.005 A 
ATOM      8  C   UNL d   1      50.499  34.177  52.686  0.00  0.00     0.039 A 
ATOM      9  C   UNL d   1      51.177  34.328  52.247  0.00  0.00     0.005 A 
ATOM     10  C   UNL d   1      51.827  33.831  52.335  0.00  0.00     0.020 A 
BRANCH   8  11
ATOM     11  C   UNL d   1      49.831  34.683  52.599  0.00  0.00     0.196 C 
ATOM     12  O   UNL d   1      49.666  35.226  53.196  0.00  0.00    -0.287 OA
ATOM     13  C   UNL d   1      49.367  34.617  51.921  0.00  0.00     0.045 C 
ENDBRANCH   8  11
ENDBRANCH   4   5
ENDBRANCH   1   4
BRANCH   1  14
ATOM     14  C   UNL d   1      53.725  33.123  53.953  0.00  0.00     0.105 A 
ATOM     15  C   UNL d   1      53.564  33.407  54.699  0.00  0.00     0.015 A 
ATOM     16  C   UNL d   1      54.180  33.630  55.202  0.00  0.00     0.022 A 
ATOM     17  C   UNL d   1      54.953  33.563  54.946  0.00  0.00     0.103 A 
ATOM     18  C   UNL d   1      55.122  33.268  54.174  0.00  0.00     0.022 A 
ATOM     19  N   UNL d   1      55.587  33.792  55.463  0.00  0.00    -0.148 N 
ATOM     20  C   UNL d   1      54.479  33.053  53.692  0.00  0.00     0.015 A 
ENDBRANCH   1  14
TORSDOF 4
ENDMDL
MODEL 4
REMARK VINA RESULT:      -8.3      1.386      4.255
REMARK  4 active torsions:
REMARK  status: ('A' for Active; 'I' for Inactive)
REMARK    1  A    between atoms: N_2  and  S_1 
REMARK    2  A    between atoms: C_3  and  S_1 
REMARK    3  A    between atoms: C_11  and  N_2 
REMARK    4  A    between atoms: C_6  and  C_7 
ROOT
ATOM      1  S   UNL d   1      52.921  31.526  52.950  0.00  0.00     0.285 S 
ATOM      2  O   UNL d   1      53.738  31.623  52.936  0.00  0.00    -0.198 OA
ATOM      3  O   UNL d   1      52.091  31.415  52.970  0.00  0.00    -0.198 OA
ENDROOT
BRANCH   1   4
ATOM      4  N   UNL d   1      52.820  32.247  52.578  0.00  0.00    -0.158 NA
BRANCH   4   5
ATOM      5  C   UNL d   1      52.828  32.944  53.013  0.00  0.00     0.094 A 
ATOM      6  C   UNL d   1      52.097  33.261  53.240  0.00  0.00     0.020 A 
ATOM      7  C   UNL d   1      52.092  33.971  53.685  0.00  0.00     0.005 A 
ATOM      8  C   UNL d   1      52.804  34.337  53.885  0.00  0.00     0.039 A 
ATOM      9  C   UNL d   1      53.527  34.019  53.658  0.00  0.00     0.005 A 
ATOM     10  C   UNL d   1      53.536  33.321  53.222  0.00  0.00     0.020 A 
BRANCH   8  11
ATOM     11  C   UNL d   1      52.789  35.050  54.332  0.00  0.00     0.196 C 
ATOM     12  O   UNL d   1      52.364  35.692  54.039  0.00  0.00    -0.287 OA
ATOM     13  C   UNL d   1      53.200  35.082  55.046  0.00  0.00     0.045 C 
ENDBRANCH   8  11
ENDBRANCH   4   5
ENDBRANCH   1   4
BRANCH   1  14
ATOM     14  C   UNL d   1      53.022  30.762  53.344  0.00  0.00     0.105 A 
ATOM     15  C   UNL d   1      53.642  30.668  53.863  0.00  0.00     0.015 A 
ATOM     16  C   UNL d   1      53.757  29.947  54.250  0.00  0.00     0.022 A 
ATOM     17  C   UNL d   1      53.243  29.328  54.109  0.00  0.00     0.103 A 
ATOM     18  C   UNL d   1      52.600  29.423  53.572  0.00  0.00     0.022 A 
ATOM     19  N   UNL d   1      53.361  28.586  54.507  0.00  0.00    -0.148 N 
ATOM     20  C   UNL d   1      52.512  30.161  53.198  0.00  0.00     0.015 A 
ENDBRANCH   1  14
TORSDOF 4
ENDMDL
