MODEL 1
REMARK VINA RESULT:      -2.8      0.000      0.000
REMARK  4 active torsions:
REMARK  status: ('A' for Active; 'I' for Inactive)
REMARK    1  A    between atoms: N_8  and  C_2 
REMARK    2  A    between atoms: C_9  and  C_3 
REMARK       I    between atoms: C_6  and  N_7 
REMARK    3  A    between atoms: C_10  and  C_6 
REMARK    4  A    between atoms: N_7  and  N_8 
ROOT
ATOM      1  C   UNL d   1      32.672  16.749 -23.464  0.00  0.00     0.297 C 
ATOM      2  N   UNL d   1      31.937  16.359 -23.606  0.00  0.00    -0.104 NA
ATOM      3  O   UNL d   1      33.240  16.391 -23.003  0.00  0.00    -0.264 OA
ENDROOT
BRANCH   2   4
ATOM      4  N   UNL d   1      31.376  16.719 -24.065  0.00  0.00    -0.119 NA
BRANCH   4   5
ATOM      5  C   UNL d   1      30.624  16.455 -24.045  0.00  0.00     0.214 A 
ATOM      6  N   UNL d   1      29.954  16.722 -23.629  0.00  0.00    -0.224 NA
ATOM      7  C   UNL d   1      29.311  16.210 -23.839  0.00  0.00     0.067 A 
ATOM      8  C   UNL d   1      29.608  15.664 -24.363  0.00  0.00     0.053 A 
ATOM      9  S   UNL d   1      30.399  15.808 -24.489  0.00  0.00    -0.045 SA
BRANCH   7  10
ATOM     10  C   UNL d   1      28.521  16.250 -23.568  0.00  0.00     0.036 C 
ATOM     11  C   UNL d   1      27.738  16.275 -23.290  0.00  0.00     0.006 C 
ATOM     12  C   UNL d   1      28.641  15.538 -23.160  0.00  0.00     0.006 C 
ATOM     13  C   UNL d   1      28.423  16.966 -23.986  0.00  0.00     0.006 C 
ENDBRANCH   7  10
ENDBRANCH   4   5
ENDBRANCH   2   4
BRANCH   1  14
ATOM     14  C   UNL d   1      32.816  17.513 -23.803  0.00  0.00     0.059 A 
ATOM     15  C   UNL d   1      33.108  17.566 -24.580  0.00  0.00     0.005 A 
ATOM     16  C   UNL d   1      33.239  18.291 -24.886  0.00  0.00     0.007 A 
ATOM     17  C   UNL d   1      33.097  18.985 -24.462  0.00  0.00     0.035 A 
ATOM     18  C   UNL d   1      32.809  18.935 -23.695  0.00  0.00     0.007 A 
ATOM     19 BR   UNL d   1      33.240  19.715 -24.799  0.00  0.00    -0.049 Br
ATOM     20  C   UNL d   1      32.671  18.197 -23.372  0.00  0.00     0.005 A 
ENDBRANCH   1  14
TORSDOF 4
ENDMDL
MODEL 2
REMARK VINA RESULT:      -2.2      1.978      4.146
REMARK  4 active torsions:
REMARK  status: ('A' for Active; 'I' for Inactive)
REMARK    1  A    between atoms: N_8  and  C_2 
REMARK    2  A    between atoms: C_9  and  C_3 
REMARK       I    between atoms: C_6  and  N_7 
REMARK    3  A    between atoms: C_10  and  C_6 
REMARK    4  A    between atoms: N_7  and  N_8 
ROOT
ATOM      1  C   UNL d   1      31.907  16.142 -24.447  0.00  0.00     0.297 C 
ATOM      2  N   UNL d   1      32.339  16.863 -24.364  0.00  0.00    -0.104 NA
ATOM      3  O   UNL d   1      32.300  15.454 -24.638  0.00  0.00    -0.264 OA
ENDROOT
BRANCH   2   4
ATOM      4  N   UNL d   1      31.945  17.544 -24.175  0.00  0.00    -0.119 NA
BRANCH   4   5
ATOM      5  C   UNL d   1      32.349  18.158 -23.866  0.00  0.00     0.214 A 
ATOM      6  N   UNL d   1      32.316  18.524 -23.119  0.00  0.00    -0.224 NA
ATOM      7  C   UNL d   1      32.885  19.153 -23.125  0.00  0.00     0.067 A 
ATOM      8  C   UNL d   1      33.235  19.146 -23.859  0.00  0.00     0.053 A 
ATOM      9  S   UNL d   1      32.915  18.548 -24.309  0.00  0.00    -0.045 SA
BRANCH   7  10
ATOM     10  C   UNL d   1      33.062  19.683 -22.503  0.00  0.00     0.036 C 
ATOM     11  C   UNL d   1      33.241  20.199 -21.876  0.00  0.00     0.006 C 
ATOM     12  C   UNL d   1      33.238  19.034 -22.019  0.00  0.00     0.006 C 
ATOM     13  C   UNL d   1      32.879  20.322 -23.010  0.00  0.00     0.006 C 
ENDBRANCH   7  10
ENDBRANCH   4   5
ENDBRANCH   2   4
BRANCH   1  14
ATOM     14  C   UNL d   1      31.068  16.138 -24.332  0.00  0.00     0.059 A 
ATOM     15  C   UNL d   1      30.565  16.198 -24.993  0.00  0.00     0.005 A 
ATOM     16  C   UNL d   1      29.777  16.193 -24.869  0.00  0.00     0.007 A 
ATOM     17  C   UNL d   1      29.445  16.130 -24.116  0.00  0.00     0.035 A 
ATOM     18  C   UNL d   1      29.939  16.070 -23.464  0.00  0.00     0.007 A 
ATOM     19 BR   UNL d   1      28.634  16.126 -24.018  0.00  0.00    -0.049 Br
ATOM     20  C   UNL d   1      30.748  16.075 -23.578  0.00  0.00     0.005 A 
ENDBRANCH   1  14
TORSDOF 4
ENDMDL
MODEL 3
REMARK VINA RESULT:      -1.6      1.958      4.347
REMARK  4 active torsions:
REMARK  status: ('A' for Active; 'I' for Inactive)
REMARK    1  A    between atoms: N_8  and  C_2 
REMARK    2  A    between atoms: C_9  and  C_3 
REMARK       I    between atoms: C_6  and  N_7 
REMARK    3  A    between atoms: C_10  and  C_6 
REMARK    4  A    between atoms: N_7  and  N_8 
ROOT
ATOM      1  C   UNL d   1      30.223  16.067 -24.560  0.00  0.00     0.297 C 
ATOM      2  N   UNL d   1      30.922  16.529 -24.461  0.00  0.00    -0.104 NA
ATOM      3  O   UNL d   1      30.214  15.453 -25.097  0.00  0.00    -0.264 OA
ENDROOT
BRANCH   2   4
ATOM      4  N   UNL d   1      30.926  17.137 -23.927  0.00  0.00    -0.119 NA
BRANCH   4   5
ATOM      5  C   UNL d   1      31.572  17.598 -23.860  0.00  0.00     0.214 A 
ATOM      6  N   UNL d   1      31.665  18.425 -23.841  0.00  0.00    -0.224 NA
ATOM      7  C   UNL d   1      32.495  18.581 -23.762  0.00  0.00     0.067 A 
ATOM      8  C   UNL d   1      32.867  17.859 -23.735  0.00  0.00     0.053 A 
ATOM      9  S   UNL d   1      32.315  17.263 -23.795  0.00  0.00    -0.045 SA
BRANCH   7  10
ATOM     10  C   UNL d   1      32.869  19.327 -23.717  0.00  0.00     0.036 C 
ATOM     11  C   UNL d   1      33.241  20.068 -23.658  0.00  0.00     0.006 C 
ATOM     12  C   UNL d   1      32.836  19.279 -22.891  0.00  0.00     0.006 C 
ATOM     13  C   UNL d   1      32.892  19.355 -24.552  0.00  0.00     0.006 C 
ENDBRANCH   7  10
ENDBRANCH   4   5
ENDBRANCH   2   4
BRANCH   1  14
ATOM     14  C   UNL d   1      29.532  16.242 -24.100  0.00  0.00     0.059 A 
ATOM     15  C   UNL d   1      29.385  15.809 -23.404  0.00  0.00     0.005 A 
ATOM     16  C   UNL d   1      28.732  15.985 -22.982  0.00  0.00     0.007 A 
ATOM     17  C   UNL d   1      28.201  16.574 -23.208  0.00  0.00     0.035 A 
ATOM     18  C   UNL d   1      28.344  17.002 -23.894  0.00  0.00     0.007 A 
ATOM     19 BR   UNL d   1      27.539  16.733 -22.757  0.00  0.00    -0.049 Br
ATOM     20  C   UNL d   1      29.011  16.831 -24.335  0.00  0.00     0.005 A 
ENDBRANCH   1  14
TORSDOF 4
ENDMDL
MODEL 4
REMARK VINA RESULT:      -0.8      6.153      7.294
REMARK  4 active torsions:
REMARK  status: ('A' for Active; 'I' for Inactive)
REMARK    1  A    between atoms: N_8  and  C_2 
REMARK    2  A    between atoms: C_9  and  C_3 
REMARK       I    between atoms: C_6  and  N_7 
REMARK    3  A    between atoms: C_10  and  C_6 
REMARK    4  A    between atoms: N_7  and  N_8 
ROOT
ATOM      1  C   UNL d   1      31.867  21.914 -20.464  0.00  0.00     0.297 C 
ATOM      2  N   UNL d   1      32.057  22.128 -21.258  0.00  0.00    -0.104 NA
ATOM      3  O   UNL d   1      31.341  21.307 -20.322  0.00  0.00    -0.264 OA
ENDROOT
BRANCH   2   4
ATOM      4  N   UNL d   1      32.580  22.731 -21.394  0.00  0.00    -0.119 NA
BRANCH   4   5
ATOM      5  C   UNL d   1      32.772  22.923 -22.143  0.00  0.00     0.214 A 
ATOM      6  N   UNL d   1      32.705  22.501 -22.858  0.00  0.00    -0.224 NA
ATOM      7  C   UNL d   1      33.006  23.003 -23.472  0.00  0.00     0.067 A 
ATOM      8  C   UNL d   1      33.241  23.695 -23.115  0.00  0.00     0.053 A 
ATOM      9  S   UNL d   1      33.102  23.651 -22.314  0.00  0.00    -0.045 SA
BRANCH   7  10
ATOM     10  C   UNL d   1      33.058  22.831 -24.288  0.00  0.00     0.036 C 
ATOM     11  C   UNL d   1      33.110  22.645 -25.097  0.00  0.00     0.006 C 
ATOM     12  C   UNL d   1      33.108  22.025 -24.101  0.00  0.00     0.006 C 
ATOM     13  C   UNL d   1      33.006  23.648 -24.454  0.00  0.00     0.006 C 
ENDBRANCH   7  10
ENDBRANCH   4   5
ENDBRANCH   2   4
BRANCH   1  14
ATOM     14  C   UNL d   1      32.222  22.331 -19.817  0.00  0.00     0.059 A 
ATOM     15  C   UNL d   1      31.899  23.059 -19.574  0.00  0.00     0.005 A 
ATOM     16  C   UNL d   1      32.244  23.440 -18.965  0.00  0.00     0.007 A 
ATOM     17  C   UNL d   1      32.904  23.142 -18.569  0.00  0.00     0.035 A 
ATOM     18  C   UNL d   1      33.224  22.424 -18.807  0.00  0.00     0.007 A 
ATOM     19 BR   UNL d   1      33.237  23.553 -17.947  0.00  0.00    -0.049 Br
ATOM     20  C   UNL d   1      32.879  22.025 -19.431  0.00  0.00     0.005 A 
ENDBRANCH   1  14
TORSDOF 4
ENDMDL
MODEL 5
REMARK VINA RESULT:      -0.4      3.335      4.497
REMARK  4 active torsions:
REMARK  status: ('A' for Active; 'I' for Inactive)
REMARK    1  A    between atoms: N_8  and  C_2 
REMARK    2  A    between atoms: C_9  and  C_3 
REMARK       I    between atoms: C_6  and  N_7 
REMARK    3  A    between atoms: C_10  and  C_6 
REMARK    4  A    between atoms: N_7  and  N_8 
ROOT
ATOM      1  C   UNL d   1      33.044  20.493 -20.967  0.00  0.00     0.297 C 
ATOM      2  N   UNL d   1      33.099  19.913 -21.578  0.00  0.00    -0.104 NA
ATOM      3  O   UNL d   1      33.241  20.296 -20.201  0.00  0.00    -0.264 OA
ENDROOT
BRANCH   2   4
ATOM      4  N   UNL d   1      32.903  20.113 -22.337  0.00  0.00    -0.119 NA
BRANCH   4   5
ATOM      5  C   UNL d   1      32.857  19.545 -22.894  0.00  0.00     0.214 A 
ATOM      6  N   UNL d   1      32.551  18.771 -22.873  0.00  0.00    -0.224 NA
ATOM      7  C   UNL d   1      32.663  18.438 -23.644  0.00  0.00     0.067 A 
ATOM      8  C   UNL d   1      33.025  19.009 -24.096  0.00  0.00     0.053 A 
ATOM      9  S   UNL d   1      33.144  19.678 -23.647  0.00  0.00    -0.045 SA
BRANCH   7  10
ATOM     10  C   UNL d   1      32.448  17.673 -23.903  0.00  0.00     0.036 C 
ATOM     11  C   UNL d   1      32.236  16.907 -24.146  0.00  0.00     0.006 C 
ATOM     12  C   UNL d   1      32.554  17.397 -23.129  0.00  0.00     0.006 C 
ATOM     13  C   UNL d   1      32.346  17.973 -24.676  0.00  0.00     0.006 C 
ENDBRANCH   7  10
ENDBRANCH   4   5
ENDBRANCH   2   4
BRANCH   1  14
ATOM     14  C   UNL d   1      32.784  21.278 -21.153  0.00  0.00     0.059 A 
ATOM     15  C   UNL d   1      33.241  21.749 -21.665  0.00  0.00     0.005 A 
ATOM     16  C   UNL d   1      32.984  22.485 -21.831  0.00  0.00     0.007 A 
ATOM     17  C   UNL d   1      32.288  22.795 -21.515  0.00  0.00     0.035 A 
ATOM     18  C   UNL d   1      31.836  22.333 -21.010  0.00  0.00     0.007 A 
ATOM     19 BR   UNL d   1      32.048  23.554 -21.702  0.00  0.00    -0.049 Br
ATOM     20  C   UNL d   1      32.089  21.576 -20.833  0.00  0.00     0.005 A 
ENDBRANCH   1  14
TORSDOF 4
ENDMDL
MODEL 6
REMARK VINA RESULT:      -0.4      5.183      6.540
REMARK  4 active torsions:
REMARK  status: ('A' for Active; 'I' for Inactive)
REMARK    1  A    between atoms: N_8  and  C_2 
REMARK    2  A    between atoms: C_9  and  C_3 
REMARK       I    between atoms: C_6  and  N_7 
REMARK    3  A    between atoms: C_10  and  C_6 
REMARK    4  A    between atoms: N_7  and  N_8 
ROOT
ATOM      1  C   UNL d   1      31.831  23.177 -20.989  0.00  0.00     0.297 C 
ATOM      2  N   UNL d   1      32.113  22.652 -21.586  0.00  0.00    -0.104 NA
ATOM      3  O   UNL d   1      31.209  23.679 -21.150  0.00  0.00    -0.264 OA
ENDROOT
BRANCH   2   4
ATOM      4  N   UNL d   1      32.731  22.156 -21.422  0.00  0.00    -0.119 NA
BRANCH   4   5
ATOM      5  C   UNL d   1      32.877  21.537 -21.902  0.00  0.00     0.214 A 
ATOM      6  N   UNL d   1      32.812  20.715 -21.783  0.00  0.00    -0.224 NA
ATOM      7  C   UNL d   1      33.047  20.340 -22.506  0.00  0.00     0.067 A 
ATOM      8  C   UNL d   1      33.241  20.934 -23.026  0.00  0.00     0.053 A 
ATOM      9  S   UNL d   1      33.140  21.657 -22.666  0.00  0.00    -0.045 SA
BRANCH   7  10
ATOM     10  C   UNL d   1      33.078  19.520 -22.665  0.00  0.00     0.036 C 
ATOM     11  C   UNL d   1      33.106  18.707 -22.839  0.00  0.00     0.006 C 
ATOM     12  C   UNL d   1      32.958  19.686 -23.469  0.00  0.00     0.006 C 
ATOM     13  C   UNL d   1      33.197  19.375 -21.851  0.00  0.00     0.006 C 
ENDBRANCH   7  10
ENDBRANCH   4   5
ENDBRANCH   2   4
BRANCH   1  14
ATOM     14  C   UNL d   1      32.196  23.182 -20.224  0.00  0.00     0.059 A 
ATOM     15  C   UNL d   1      31.916  22.665 -19.635  0.00  0.00     0.005 A 
ATOM     16  C   UNL d   1      32.269  22.680 -18.920  0.00  0.00     0.007 A 
ATOM     17  C   UNL d   1      32.897  23.186 -18.745  0.00  0.00     0.035 A 
ATOM     18  C   UNL d   1      33.175  23.696 -19.325  0.00  0.00     0.007 A 
ATOM     19 BR   UNL d   1      33.241  23.180 -18.004  0.00  0.00    -0.049 Br
ATOM     20  C   UNL d   1      32.821  23.689 -20.061  0.00  0.00     0.005 A 
ENDBRANCH   1  14
TORSDOF 4
ENDMDL
MODEL 7
REMARK VINA RESULT:       0.2      2.370      4.581
REMARK  4 active torsions:
REMARK  status: ('A' for Active; 'I' for Inactive)
REMARK    1  A    between atoms: N_8  and  C_2 
REMARK    2  A    between atoms: C_9  and  C_3 
REMARK       I    between atoms: C_6  and  N_7 
REMARK    3  A    between atoms: C_10  and  C_6 
REMARK    4  A    between atoms: N_7  and  N_8 
ROOT
ATOM      1  C   UNL d   1      28.787  18.225 -24.603  0.00  0.00     0.297 C 
ATOM      2  N   UNL d   1      29.611  18.271 -24.780  0.00  0.00    -0.104 NA
ATOM      3  O   UNL d   1      28.305  18.868 -24.742  0.00  0.00    -0.264 OA
ENDROOT
BRANCH   2   4
ATOM      4  N   UNL d   1      30.086  17.631 -24.640  0.00  0.00    -0.119 NA
BRANCH   4   5
ATOM      5  C   UNL d   1      30.848  17.745 -24.434  0.00  0.00     0.214 A 
ATOM      6  N   UNL d   1      31.212  18.311 -23.944  0.00  0.00    -0.224 NA
ATOM      7  C   UNL d   1      32.043  18.142 -23.944  0.00  0.00     0.067 A 
ATOM      8  C   UNL d   1      32.150  17.494 -24.424  0.00  0.00     0.053 A 
ATOM      9  S   UNL d   1      31.432  17.251 -24.721  0.00  0.00    -0.045 SA
BRANCH   7  10
ATOM     10  C   UNL d   1      32.645  18.554 -23.535  0.00  0.00     0.036 C 
ATOM     11  C   UNL d   1      33.241  18.954 -23.116  0.00  0.00     0.006 C 
ATOM     12  C   UNL d   1      32.516  18.062 -22.880  0.00  0.00     0.006 C 
ATOM     13  C   UNL d   1      32.757  19.037 -24.207  0.00  0.00     0.006 C 
ENDBRANCH   7  10
ENDBRANCH   4   5
ENDBRANCH   2   4
BRANCH   1  14
ATOM     14  C   UNL d   1      28.464  17.511 -24.280  0.00  0.00     0.059 A 
ATOM     15  C   UNL d   1      28.198  17.503 -23.491  0.00  0.00     0.005 A 
ATOM     16  C   UNL d   1      27.897  16.825 -23.201  0.00  0.00     0.007 A 
ATOM     17  C   UNL d   1      27.840  16.135 -23.651  0.00  0.00     0.035 A 
ATOM     18  C   UNL d   1      28.102  16.140 -24.429  0.00  0.00     0.007 A 
ATOM     19 BR   UNL d   1      27.527  15.453 -23.328  0.00  0.00    -0.049 Br
ATOM     20  C   UNL d   1      28.412  16.831 -24.737  0.00  0.00     0.005 A 
ENDBRANCH   1  14
TORSDOF 4
ENDMDL
