MODEL 1
REMARK VINA RESULT:      24.3      0.000      0.000
REMARK  3 active torsions:
REMARK  status: ('A' for Active; 'I' for Inactive)
REMARK       I    between atoms: N_5  and  C_1 
REMARK       I    between atoms: N_6  and  C_1 
REMARK    1  A    between atoms: C_2  and  N_7 
REMARK    2  A    between atoms: C_9  and  N_5 
REMARK    3  A    between atoms: N_7  and  N_6 
ROOT
ATOM      1  C   UNL d   1     -49.910  24.668  33.571  0.00  0.00     0.070 A 
ATOM      2  C   UNL d   1     -50.332  25.374  33.484  0.00  0.00     0.032 A 
ATOM      3  C   UNL d   1     -51.136  25.373  33.398  0.00  0.00     0.087 A 
ATOM      4  C   UNL d   1     -50.340  23.962  33.568  0.00  0.00     0.068 A 
ATOM      5  C   UNL d   1     -51.160  23.961  33.480  0.00  0.00     0.014 A 
ATOM      6 CL   UNL d   1     -49.085  24.652  33.660  0.00  0.00    -0.081 Cl
ATOM      7  C   UNL d   1     -51.558  24.667  33.396  0.00  0.00     0.020 A 
ATOM      8 CL   UNL d   1     -49.917  23.219  33.657  0.00  0.00    -0.082 Cl
ENDROOT
BRANCH   3   9
ATOM      9  N   UNL d   1     -51.551  26.124  33.309  0.00  0.00    -0.190 NA
ATOM     10  C   UNL d   1     -52.389  26.149  33.423  0.00  0.00     0.387 C 
ATOM     11  N   UNL d   1     -52.791  25.467  33.614  0.00  0.00    -0.086 NA
ATOM     12  O   UNL d   1     -52.787  26.871  33.337  0.00  0.00    -0.241 OA
BRANCH  11  13
ATOM     13  N   UNL d   1     -52.393  24.762  33.696  0.00  0.00    -0.111 NA
BRANCH  13  14
ATOM     14  C   UNL d   1     -52.797  24.057  33.879  0.00  0.00     0.260 C 
ATOM     15  S   UNL d   1     -52.696  23.701  34.614  0.00  0.00    -0.034 SA
ATOM     16  N   UNL d   1     -53.300  23.723  33.311  0.00  0.00    -0.113 N 
ENDBRANCH  13  14
ENDBRANCH  11  13
ENDBRANCH   3   9
TORSDOF 3
ENDMDL
MODEL 2
REMARK VINA RESULT:      25.2      2.039      2.624
REMARK  3 active torsions:
REMARK  status: ('A' for Active; 'I' for Inactive)
REMARK       I    between atoms: N_5  and  C_1 
REMARK       I    between atoms: N_6  and  C_1 
REMARK    1  A    between atoms: C_2  and  N_7 
REMARK    2  A    between atoms: C_9  and  N_5 
REMARK    3  A    between atoms: N_7  and  N_6 
ROOT
ATOM      1  C   UNL d   1     -52.920  25.292  33.385  0.00  0.00     0.070 A 
ATOM      2  C   UNL d   1     -52.560  26.036  33.364  0.00  0.00     0.032 A 
ATOM      3  C   UNL d   1     -51.757  26.115  33.406  0.00  0.00     0.087 A 
ATOM      4  C   UNL d   1     -52.427  24.631  33.451  0.00  0.00     0.068 A 
ATOM      5  C   UNL d   1     -51.607  24.711  33.495  0.00  0.00     0.014 A 
ATOM      6 CL   UNL d   1     -53.742  25.194  33.342  0.00  0.00    -0.081 Cl
ATOM      7  C   UNL d   1     -51.272  25.453  33.472  0.00  0.00     0.020 A 
ATOM      8 CL   UNL d   1     -52.783  23.849  33.475  0.00  0.00    -0.082 Cl
ENDROOT
BRANCH   3   9
ATOM      9  N   UNL d   1     -51.409  26.904  33.382  0.00  0.00    -0.190 NA
ATOM     10  C   UNL d   1     -50.567  26.985  33.406  0.00  0.00     0.387 C 
ATOM     11  N   UNL d   1     -50.099  26.321  33.452  0.00  0.00    -0.086 NA
ATOM     12  O   UNL d   1     -50.234  27.744  33.382  0.00  0.00    -0.241 OA
BRANCH  11  13
ATOM     13  N   UNL d   1     -50.434  25.579  33.475  0.00  0.00    -0.111 NA
BRANCH  13  14
ATOM     14  C   UNL d   1     -49.967  24.898  33.585  0.00  0.00     0.260 C 
ATOM     15  S   UNL d   1     -49.153  24.966  33.682  0.00  0.00    -0.034 SA
ATOM     16  N   UNL d   1     -50.336  24.156  33.594  0.00  0.00    -0.113 N 
ENDBRANCH  13  14
ENDBRANCH  11  13
ENDBRANCH   3   9
TORSDOF 3
ENDMDL
