MODEL 1
REMARK VINA RESULT:      -3.0      0.000      0.000
REMARK  2 active torsions:
REMARK  status: ('A' for Active; 'I' for Inactive)
REMARK    1  A    between atoms: S_8  and  C_4 
REMARK    2  A    between atoms: C_12  and  S_8 
ROOT
ATOM      1  C   UNL d   1      30.760  16.837 -24.044  0.00  0.00     0.141 A 
ATOM      2  O   UNL d   1      30.878  17.550 -24.443  0.00  0.00    -0.303 OA
ATOM      3  C   UNL d   1      31.467  16.634 -23.665  0.00  0.00     0.110 A 
ATOM      4  C   UNL d   1      30.103  16.351 -23.979  0.00  0.00     0.137 A 
ATOM      5  C   UNL d   1      32.019  17.220 -23.830  0.00  0.00     0.043 A 
ATOM      6  C   UNL d   1      31.661  17.788 -24.310  0.00  0.00     0.102 A 
ATOM      7  N   UNL d   1      30.146  15.653 -23.532  0.00  0.00    -0.215 NA
ATOM      8  N   UNL d   1      31.504  15.941 -23.223  0.00  0.00    -0.222 NA
ATOM      9  C   UNL d   1      30.846  15.454 -23.157  0.00  0.00     0.200 A 
ATOM     10  C   UNL d   1      32.811  17.309 -23.601  0.00  0.00     0.004 A 
ATOM     11  C   UNL d   1      32.089  18.449 -24.565  0.00  0.00     0.025 A 
ATOM     12  C   UNL d   1      33.239  17.969 -23.856  0.00  0.00     0.000 A 
ATOM     13  C   UNL d   1      32.879  18.534 -24.335  0.00  0.00     0.002 A 
ENDROOT
BRANCH   4  14
ATOM     14  S   UNL d   1      29.390  16.548 -24.357  0.00  0.00    -0.066 SA
BRANCH  14  15
ATOM     15  C   UNL d   1      28.699  16.140 -24.163  0.00  0.00     0.031 C 
ATOM     16  C   UNL d   1      28.497  15.453 -24.570  0.00  0.00     0.007 C 
ATOM     17  C   UNL d   1      28.214  16.420 -23.563  0.00  0.00     0.007 C 
ENDBRANCH  14  15
ENDBRANCH   4  14
TORSDOF 2
ENDMDL
MODEL 2
REMARK VINA RESULT:      -2.9      1.347      3.638
REMARK  2 active torsions:
REMARK  status: ('A' for Active; 'I' for Inactive)
REMARK    1  A    between atoms: S_8  and  C_4 
REMARK    2  A    between atoms: C_12  and  S_8 
ROOT
ATOM      1  C   UNL d   1      30.672  16.753 -23.918  0.00  0.00     0.141 A 
ATOM      2  O   UNL d   1      30.519  16.169 -23.356  0.00  0.00    -0.303 OA
ATOM      3  C   UNL d   1      29.955  16.957 -24.279  0.00  0.00     0.110 A 
ATOM      4  C   UNL d   1      31.367  17.122 -24.146  0.00  0.00     0.137 A 
ATOM      5  C   UNL d   1      29.363  16.499 -23.939  0.00  0.00     0.043 A 
ATOM      6  C   UNL d   1      29.705  16.011 -23.368  0.00  0.00     0.102 A 
ATOM      7  N   UNL d   1      31.354  17.702 -24.740  0.00  0.00    -0.215 NA
ATOM      8  N   UNL d   1      29.947  17.533 -24.867  0.00  0.00    -0.222 NA
ATOM      9  C   UNL d   1      30.644  17.903 -25.095  0.00  0.00     0.200 A 
ATOM     10  C   UNL d   1      28.547  16.466 -24.079  0.00  0.00     0.004 A 
ATOM     11  C   UNL d   1      29.237  15.485 -22.933  0.00  0.00     0.025 A 
ATOM     12  C   UNL d   1      28.078  15.940 -23.643  0.00  0.00     0.000 A 
ATOM     13  C   UNL d   1      28.423  15.455 -23.075  0.00  0.00     0.002 A 
ENDROOT
BRANCH   4  14
ATOM     14  S   UNL d   1      32.090  16.923 -23.789  0.00  0.00    -0.066 SA
BRANCH  14  15
ATOM     15  C   UNL d   1      32.750  17.406 -23.908  0.00  0.00     0.031 C 
ATOM     16  C   UNL d   1      33.240  17.283 -24.558  0.00  0.00     0.007 C 
ATOM     17  C   UNL d   1      32.915  18.008 -23.375  0.00  0.00     0.007 C 
ENDBRANCH  14  15
ENDBRANCH   4  14
TORSDOF 2
ENDMDL
MODEL 3
REMARK VINA RESULT:      -2.5      1.011      3.369
REMARK  2 active torsions:
REMARK  status: ('A' for Active; 'I' for Inactive)
REMARK    1  A    between atoms: S_8  and  C_4 
REMARK    2  A    between atoms: C_12  and  S_8 
ROOT
ATOM      1  C   UNL d   1      30.965  16.891 -24.006  0.00  0.00     0.141 A 
ATOM      2  O   UNL d   1      30.239  17.207 -24.235  0.00  0.00    -0.303 OA
ATOM      3  C   UNL d   1      30.823  16.182 -23.603  0.00  0.00     0.110 A 
ATOM      4  C   UNL d   1      31.734  17.157 -24.113  0.00  0.00     0.137 A 
ATOM      5  C   UNL d   1      30.010  16.062 -23.584  0.00  0.00     0.043 A 
ATOM      6  C   UNL d   1      29.644  16.692 -23.973  0.00  0.00     0.102 A 
ATOM      7  N   UNL d   1      32.371  16.716 -23.816  0.00  0.00    -0.215 NA
ATOM      8  N   UNL d   1      31.458  15.748 -23.311  0.00  0.00    -0.222 NA
ATOM      9  C   UNL d   1      32.227  16.015 -23.417  0.00  0.00     0.200 A 
ATOM     10  C   UNL d   1      29.553  15.452 -23.258  0.00  0.00     0.004 A 
ATOM     11  C   UNL d   1      28.819  16.718 -24.040  0.00  0.00     0.025 A 
ATOM     12  C   UNL d   1      28.728  15.479 -23.326  0.00  0.00     0.000 A 
ATOM     13  C   UNL d   1      28.367  16.108 -23.714  0.00  0.00     0.002 A 
ENDROOT
BRANCH   4  14
ATOM     14  S   UNL d   1      31.885  17.867 -24.516  0.00  0.00    -0.066 SA
BRANCH  14  15
ATOM     15  C   UNL d   1      32.644  18.193 -24.499  0.00  0.00     0.031 C 
ATOM     16  C   UNL d   1      32.864  18.696 -23.886  0.00  0.00     0.007 C 
ATOM     17  C   UNL d   1      33.178  18.012 -25.096  0.00  0.00     0.007 C 
ENDBRANCH  14  15
ENDBRANCH   4  14
TORSDOF 2
ENDMDL
MODEL 4
REMARK VINA RESULT:      -2.3      4.472      5.887
REMARK  2 active torsions:
REMARK  status: ('A' for Active; 'I' for Inactive)
REMARK    1  A    between atoms: S_8  and  C_4 
REMARK    2  A    between atoms: C_12  and  S_8 
ROOT
ATOM      1  C   UNL d   1      33.237  21.201 -21.944  0.00  0.00     0.141 A 
ATOM      2  O   UNL d   1      33.239  21.109 -22.763  0.00  0.00    -0.303 OA
ATOM      3  C   UNL d   1      33.236  20.448 -21.600  0.00  0.00     0.110 A 
ATOM      4  C   UNL d   1      33.235  21.870 -21.470  0.00  0.00     0.137 A 
ATOM      5  C   UNL d   1      33.237  19.894 -22.207  0.00  0.00     0.043 A 
ATOM      6  C   UNL d   1      33.239  20.296 -22.928  0.00  0.00     0.102 A 
ATOM      7  N   UNL d   1      33.233  21.793 -20.643  0.00  0.00    -0.215 NA
ATOM      8  N   UNL d   1      33.234  20.377 -20.780  0.00  0.00    -0.222 NA
ATOM      9  C   UNL d   1      33.232  21.047 -20.305  0.00  0.00     0.200 A 
ATOM     10  C   UNL d   1      33.237  19.065 -22.194  0.00  0.00     0.004 A 
ATOM     11  C   UNL d   1      33.241  19.876 -23.641  0.00  0.00     0.025 A 
ATOM     12  C   UNL d   1      33.239  18.645 -22.907  0.00  0.00     0.000 A 
ATOM     13  C   UNL d   1      33.241  19.049 -23.624  0.00  0.00     0.002 A 
ENDROOT
BRANCH   4  14
ATOM     14  S   UNL d   1      33.236  22.629 -21.807  0.00  0.00    -0.066 SA
BRANCH  14  15
ATOM     15  C   UNL d   1      32.875  23.254 -21.405  0.00  0.00     0.031 C 
ATOM     16  C   UNL d   1      33.229  23.571 -20.732  0.00  0.00     0.007 C 
ATOM     17  C   UNL d   1      32.164  23.558 -21.679  0.00  0.00     0.007 C 
ENDBRANCH  14  15
ENDBRANCH   4  14
TORSDOF 2
ENDMDL
MODEL 5
REMARK VINA RESULT:      -2.2      3.801      5.256
REMARK  2 active torsions:
REMARK  status: ('A' for Active; 'I' for Inactive)
REMARK    1  A    between atoms: S_8  and  C_4 
REMARK    2  A    between atoms: C_12  and  S_8 
ROOT
ATOM      1  C   UNL d   1      33.227  20.275 -22.376  0.00  0.00     0.141 A 
ATOM      2  O   UNL d   1      33.223  19.547 -21.990  0.00  0.00    -0.303 OA
ATOM      3  C   UNL d   1      33.235  20.135 -23.192  0.00  0.00     0.110 A 
ATOM      4  C   UNL d   1      33.226  21.044 -22.091  0.00  0.00     0.137 A 
ATOM      5  C   UNL d   1      33.235  19.321 -23.307  0.00  0.00     0.043 A 
ATOM      6  C   UNL d   1      33.227  18.952 -22.568  0.00  0.00     0.102 A 
ATOM      7  N   UNL d   1      33.232  21.683 -22.620  0.00  0.00    -0.215 NA
ATOM      8  N   UNL d   1      33.241  20.772 -23.712  0.00  0.00    -0.222 NA
ATOM      9  C   UNL d   1      33.239  21.542 -23.427  0.00  0.00     0.200 A 
ATOM     10  C   UNL d   1      33.240  18.864 -23.999  0.00  0.00     0.004 A 
ATOM     11  C   UNL d   1      33.225  18.126 -22.513  0.00  0.00     0.025 A 
ATOM     12  C   UNL d   1      33.239  18.039 -23.944  0.00  0.00     0.000 A 
ATOM     13  C   UNL d   1      33.231  17.675 -23.206  0.00  0.00     0.002 A 
ENDROOT
BRANCH   4  14
ATOM     14  S   UNL d   1      33.218  21.193 -21.274  0.00  0.00    -0.066 SA
BRANCH  14  15
ATOM     15  C   UNL d   1      32.824  21.859 -20.985  0.00  0.00     0.031 C 
ATOM     16  C   UNL d   1      32.022  21.818 -20.803  0.00  0.00     0.007 C 
ATOM     17  C   UNL d   1      33.235  22.562 -20.879  0.00  0.00     0.007 C 
ENDBRANCH  14  15
ENDBRANCH   4  14
TORSDOF 2
ENDMDL
MODEL 6
REMARK VINA RESULT:      -1.9      7.136      8.158
REMARK  2 active torsions:
REMARK  status: ('A' for Active; 'I' for Inactive)
REMARK    1  A    between atoms: S_8  and  C_4 
REMARK    2  A    between atoms: C_12  and  S_8 
ROOT
ATOM      1  C   UNL d   1      32.743  23.050 -19.374  0.00  0.00     0.141 A 
ATOM      2  O   UNL d   1      32.502  23.657 -19.878  0.00  0.00    -0.303 OA
ATOM      3  C   UNL d   1      32.881  22.374 -19.831  0.00  0.00     0.110 A 
ATOM      4  C   UNL d   1      32.854  23.027 -18.562  0.00  0.00     0.137 A 
ATOM      5  C   UNL d   1      32.725  22.565 -20.615  0.00  0.00     0.043 A 
ATOM      6  C   UNL d   1      32.491  23.356 -20.651  0.00  0.00     0.102 A 
ATOM      7  N   UNL d   1      33.105  22.325 -18.197  0.00  0.00    -0.215 NA
ATOM      8  N   UNL d   1      33.130  21.681 -19.465  0.00  0.00    -0.222 NA
ATOM      9  C   UNL d   1      33.241  21.658 -18.652  0.00  0.00     0.200 A 
ATOM     10  C   UNL d   1      32.767  22.113 -21.309  0.00  0.00     0.004 A 
ATOM     11  C   UNL d   1      32.297  23.702 -21.377  0.00  0.00     0.025 A 
ATOM     12  C   UNL d   1      32.573  22.460 -22.035  0.00  0.00     0.000 A 
ATOM     13  C   UNL d   1      32.340  23.249 -22.066  0.00  0.00     0.002 A 
ENDROOT
BRANCH   4  14
ATOM     14  S   UNL d   1      32.718  23.701 -18.096  0.00  0.00    -0.066 SA
BRANCH  14  15
ATOM     15  C   UNL d   1      32.592  23.617 -17.284  0.00  0.00     0.031 C 
ATOM     16  C   UNL d   1      31.825  23.564 -16.988  0.00  0.00     0.007 C 
ATOM     17  C   UNL d   1      33.234  23.586 -16.773  0.00  0.00     0.007 C 
ENDBRANCH  14  15
ENDBRANCH   4  14
TORSDOF 2
ENDMDL
MODEL 7
REMARK VINA RESULT:      -1.7      6.931      7.985
REMARK  2 active torsions:
REMARK  status: ('A' for Active; 'I' for Inactive)
REMARK    1  A    between atoms: S_8  and  C_4 
REMARK    2  A    between atoms: C_12  and  S_8 
ROOT
ATOM      1  C   UNL d   1      33.101  22.868 -19.781  0.00  0.00     0.141 A 
ATOM      2  O   UNL d   1      33.043  23.536 -19.301  0.00  0.00    -0.303 OA
ATOM      3  C   UNL d   1      33.171  22.204 -19.292  0.00  0.00     0.110 A 
ATOM      4  C   UNL d   1      33.098  22.780 -20.596  0.00  0.00     0.137 A 
ATOM      5  C   UNL d   1      33.157  22.464 -18.512  0.00  0.00     0.043 A 
ATOM      6  C   UNL d   1      33.078  23.286 -18.511  0.00  0.00     0.102 A 
ATOM      7  N   UNL d   1      33.166  22.024 -20.932  0.00  0.00    -0.215 NA
ATOM      8  N   UNL d   1      33.238  21.457 -19.630  0.00  0.00    -0.222 NA
ATOM      9  C   UNL d   1      33.235  21.369 -20.446  0.00  0.00     0.200 A 
ATOM     10  C   UNL d   1      33.206  22.051 -17.795  0.00  0.00     0.004 A 
ATOM     11  C   UNL d   1      33.048  23.702 -17.797  0.00  0.00     0.025 A 
ATOM     12  C   UNL d   1      33.176  22.467 -17.080  0.00  0.00     0.000 A 
ATOM     13  C   UNL d   1      33.098  23.287 -17.084  0.00  0.00     0.002 A 
ENDROOT
BRANCH   4  14
ATOM     14  S   UNL d   1      33.028  23.441 -21.094  0.00  0.00    -0.066 SA
BRANCH  14  15
ATOM     15  C   UNL d   1      32.724  23.347 -21.857  0.00  0.00     0.031 C 
ATOM     16  C   UNL d   1      33.219  23.117 -22.473  0.00  0.00     0.007 C 
ATOM     17  C   UNL d   1      31.927  23.483 -21.997  0.00  0.00     0.007 C 
ENDBRANCH  14  15
ENDBRANCH   4  14
TORSDOF 2
ENDMDL
MODEL 8
REMARK VINA RESULT:      -1.7      5.901      7.096
REMARK  2 active torsions:
REMARK  status: ('A' for Active; 'I' for Inactive)
REMARK    1  A    between atoms: S_8  and  C_4 
REMARK    2  A    between atoms: C_12  and  S_8 
ROOT
ATOM      1  C   UNL d   1      32.921  21.884 -20.314  0.00  0.00     0.141 A 
ATOM      2  O   UNL d   1      33.148  21.099 -20.198  0.00  0.00    -0.303 OA
ATOM      3  C   UNL d   1      32.720  21.980 -21.111  0.00  0.00     0.110 A 
ATOM      4  C   UNL d   1      32.873  22.519 -19.798  0.00  0.00     0.137 A 
ATOM      5  C   UNL d   1      32.823  21.255 -21.485  0.00  0.00     0.043 A 
ATOM      6  C   UNL d   1      33.087  20.707 -20.927  0.00  0.00     0.102 A 
ATOM      7  N   UNL d   1      32.622  23.260 -20.074  0.00  0.00    -0.215 NA
ATOM      8  N   UNL d   1      32.472  22.716 -21.380  0.00  0.00    -0.222 NA
ATOM      9  C   UNL d   1      32.424  23.352 -20.864  0.00  0.00     0.200 A 
ATOM     10  C   UNL d   1      32.708  21.022 -22.272  0.00  0.00     0.004 A 
ATOM     11  C   UNL d   1      33.238  19.924 -21.148  0.00  0.00     0.025 A 
ATOM     12  C   UNL d   1      32.859  20.239 -22.494  0.00  0.00     0.000 A 
ATOM     13  C   UNL d   1      33.122  19.696 -21.934  0.00  0.00     0.002 A 
ENDROOT
BRANCH   4  14
ATOM     14  S   UNL d   1      33.073  22.431 -18.996  0.00  0.00    -0.066 SA
BRANCH  14  15
ATOM     15  C   UNL d   1      32.825  22.998 -18.449  0.00  0.00     0.031 C 
ATOM     16  C   UNL d   1      32.163  22.858 -17.980  0.00  0.00     0.007 C 
ATOM     17  C   UNL d   1      33.240  23.702 -18.376  0.00  0.00     0.007 C 
ENDBRANCH  14  15
ENDBRANCH   4  14
TORSDOF 2
ENDMDL
MODEL 9
REMARK VINA RESULT:      -1.7      3.023      4.381
REMARK  2 active torsions:
REMARK  status: ('A' for Active; 'I' for Inactive)
REMARK    1  A    between atoms: S_8  and  C_4 
REMARK    2  A    between atoms: C_12  and  S_8 
ROOT
ATOM      1  C   UNL d   1      33.018  19.054 -23.015  0.00  0.00     0.141 A 
ATOM      2  O   UNL d   1      32.899  18.340 -22.619  0.00  0.00    -0.303 OA
ATOM      3  C   UNL d   1      33.008  18.902 -23.828  0.00  0.00     0.110 A 
ATOM      4  C   UNL d   1      33.134  19.818 -22.740  0.00  0.00     0.137 A 
ATOM      5  C   UNL d   1      32.883  18.096 -23.933  0.00  0.00     0.043 A 
ATOM      6  C   UNL d   1      32.815  17.744 -23.189  0.00  0.00     0.102 A 
ATOM      7  N   UNL d   1      33.241  20.441 -23.278  0.00  0.00    -0.215 NA
ATOM      8  N   UNL d   1      33.115  19.523 -24.358  0.00  0.00    -0.222 NA
ATOM      9  C   UNL d   1      33.230  20.288 -24.082  0.00  0.00     0.200 A 
ATOM     10  C   UNL d   1      32.822  17.634 -24.619  0.00  0.00     0.004 A 
ATOM     11  C   UNL d   1      32.686  16.929 -23.124  0.00  0.00     0.025 A 
ATOM     12  C   UNL d   1      32.693  16.820 -24.553  0.00  0.00     0.000 A 
ATOM     13  C   UNL d   1      32.626  16.472 -23.810  0.00  0.00     0.002 A 
ENDROOT
BRANCH   4  14
ATOM     14  S   UNL d   1      33.145  19.978 -21.925  0.00  0.00    -0.066 SA
BRANCH  14  15
ATOM     15  C   UNL d   1      32.849  20.697 -21.647  0.00  0.00     0.031 C 
ATOM     16  C   UNL d   1      33.216  21.404 -21.858  0.00  0.00     0.007 C 
ATOM     17  C   UNL d   1      32.189  20.705 -21.160  0.00  0.00     0.007 C 
ENDBRANCH  14  15
ENDBRANCH   4  14
TORSDOF 2
ENDMDL
