MODEL 1
REMARK VINA RESULT:      35.3      0.000      0.000
REMARK  9 active torsions:
REMARK  status: ('A' for Active; 'I' for Inactive)
REMARK    1  A    between atoms: C_21  and  N_1 
REMARK    2  A    between atoms: S_7  and  C_2 
REMARK       I    between atoms: C_6  and  N_18 
REMARK    3  A    between atoms: C_15  and  C_6 
REMARK    4  A    between atoms: C_19  and  S_7 
REMARK    5  A    between atoms: C_8  and  C_19 
REMARK       I    between atoms: N_11  and  C_8 
REMARK    6  A    between atoms: C_9  and  C_20 
REMARK    7  A    between atoms: C_20  and  N_11 
REMARK    8  A    between atoms: N_18  and  C_23 
REMARK    9  A    between atoms: C_23  and  C_21 
ROOT
ATOM      1  N   UNL d   1      46.508 -17.873  43.689  0.00  0.00    -0.302 N 
ATOM      2  C   UNL d   1      46.575 -18.727  42.659  0.00  0.00     0.049 A 
ATOM      3  C   UNL d   1      46.603 -17.931  42.859  0.00  0.00     0.087 A 
ATOM      4  C   UNL d   1      46.464 -19.170  43.353  0.00  0.00     0.024 A 
ATOM      5  C   UNL d   1      46.423 -18.640  43.986  0.00  0.00     0.065 A 
ATOM      6  C   UNL d   1      46.396 -19.979  43.479  0.00  0.00     0.002 A 
ATOM      7  C   UNL d   1      46.313 -18.928  44.747  0.00  0.00     0.018 A 
ATOM      8  C   UNL d   1      46.286 -20.264  44.247  0.00  0.00     0.000 A 
ATOM      9  C   UNL d   1      46.244 -19.742  44.883  0.00  0.00     0.002 A 
ENDROOT
BRANCH   1  10
ATOM     10  C   UNL d   1      46.499 -17.180  44.135  0.00  0.00     0.101 C 
BRANCH  10  11
ATOM     11  C   UNL d   1      45.827 -16.701  44.141  0.00  0.00     0.121 C 
BRANCH  11  12
ATOM     12  N   UNL d   1      45.910 -15.876  44.210  0.00  0.00    -0.205 NA
ATOM     13  C   UNL d   1      45.306 -15.428  44.559  0.00  0.00     0.279 C 
ATOM     14  O   UNL d   1      44.619 -15.806  44.839  0.00  0.00    -0.265 OA
BRANCH  13  15
ATOM     15  C   UNL d   1      45.389 -14.612  44.627  0.00  0.00     0.058 A 
ATOM     16  C   UNL d   1      46.088 -14.290  44.879  0.00  0.00     0.005 A 
ATOM     17  C   UNL d   1      46.189 -13.474  44.953  0.00  0.00     0.000 A 
ATOM     18  C   UNL d   1      45.561 -12.968  44.766  0.00  0.00     0.000 A 
ATOM     19  C   UNL d   1      44.838 -13.290  44.506  0.00  0.00     0.000 A 
ATOM     20  C   UNL d   1      44.754 -14.112  44.437  0.00  0.00     0.005 A 
ENDBRANCH  13  15
ENDBRANCH  11  12
ENDBRANCH  10  11
ENDBRANCH   1  10
BRANCH   2  21
ATOM     21  S   UNL d   1      46.646 -19.040  41.895  0.00  0.00    -0.080 SA
BRANCH  21  22
ATOM     22  C   UNL d   1      46.316 -18.633  41.256  0.00  0.00     0.098 C 
BRANCH  22  23
ATOM     23  C   UNL d   1      46.317 -18.963  40.506  0.00  0.00     0.286 C 
ATOM     24  N   UNL d   1      46.031 -18.546  39.859  0.00  0.00    -0.204 NA
ATOM     25  O   UNL d   1      46.610 -19.729  40.401  0.00  0.00    -0.265 OA
BRANCH  24  26
ATOM     26  C   UNL d   1      45.741 -17.787  39.967  0.00  0.00     0.127 C 
BRANCH  26  27
ATOM     27  C   UNL d   1      45.417 -17.376  39.327  0.00  0.00     0.119 A 
ATOM     28  O   UNL d   1      44.618 -17.294  39.169  0.00  0.00    -0.304 OA
ATOM     29  C   UNL d   1      44.543 -16.846  38.484  0.00  0.00     0.123 A 
ATOM     30  C   UNL d   1      45.290 -16.654  38.221  0.00  0.00     0.029 A 
ATOM     31  C   UNL d   1      45.833 -16.981  38.742  0.00  0.00     0.028 A 
ENDBRANCH  26  27
ENDBRANCH  24  26
ENDBRANCH  22  23
ENDBRANCH  21  22
ENDBRANCH   2  21
TORSDOF 9
ENDMDL
MODEL 2
REMARK VINA RESULT:      37.2      1.225      5.140
REMARK  9 active torsions:
REMARK  status: ('A' for Active; 'I' for Inactive)
REMARK    1  A    between atoms: C_21  and  N_1 
REMARK    2  A    between atoms: S_7  and  C_2 
REMARK       I    between atoms: C_6  and  N_18 
REMARK    3  A    between atoms: C_15  and  C_6 
REMARK    4  A    between atoms: C_19  and  S_7 
REMARK    5  A    between atoms: C_8  and  C_19 
REMARK       I    between atoms: N_11  and  C_8 
REMARK    6  A    between atoms: C_9  and  C_20 
REMARK    7  A    between atoms: C_20  and  N_11 
REMARK    8  A    between atoms: N_18  and  C_23 
REMARK    9  A    between atoms: C_23  and  C_21 
ROOT
ATOM      1  N   UNL d   1      46.453 -18.046  41.161  0.00  0.00    -0.302 N 
ATOM      2  C   UNL d   1      46.432 -18.149  42.497  0.00  0.00     0.049 A 
ATOM      3  C   UNL d   1      46.399 -17.613  41.876  0.00  0.00     0.087 A 
ATOM      4  C   UNL d   1      46.506 -18.914  42.181  0.00  0.00     0.024 A 
ATOM      5  C   UNL d   1      46.519 -18.847  41.357  0.00  0.00     0.065 A 
ATOM      6  C   UNL d   1      46.563 -19.651  42.541  0.00  0.00     0.002 A 
ATOM      7  C   UNL d   1      46.588 -19.523  40.898  0.00  0.00     0.018 A 
ATOM      8  C   UNL d   1      46.632 -20.329  42.074  0.00  0.00     0.000 A 
ATOM      9  C   UNL d   1      46.646 -20.269  41.253  0.00  0.00     0.002 A 
ENDROOT
BRANCH   1  10
ATOM     10  C   UNL d   1      46.443 -17.737  40.398  0.00  0.00     0.101 C 
BRANCH  10  11
ATOM     11  C   UNL d   1      45.728 -17.510  40.053  0.00  0.00     0.121 C 
BRANCH  11  12
ATOM     12  N   UNL d   1      45.732 -17.034  39.371  0.00  0.00    -0.205 NA
ATOM     13  C   UNL d   1      45.051 -16.979  38.902  0.00  0.00     0.279 C 
ATOM     14  O   UNL d   1      44.365 -17.400  39.116  0.00  0.00    -0.265 OA
BRANCH  13  15
ATOM     15  C   UNL d   1      45.055 -16.508  38.227  0.00  0.00     0.058 A 
ATOM     16  C   UNL d   1      45.703 -16.057  38.046  0.00  0.00     0.005 A 
ATOM     17  C   UNL d   1      45.725 -15.578  37.373  0.00  0.00     0.000 A 
ATOM     18  C   UNL d   1      45.069 -15.556  36.868  0.00  0.00     0.000 A 
ATOM     19  C   UNL d   1      44.399 -16.017  37.047  0.00  0.00     0.000 A 
ATOM     20  C   UNL d   1      44.393 -16.492  37.726  0.00  0.00     0.005 A 
ENDBRANCH  13  15
ENDBRANCH  11  12
ENDBRANCH  10  11
ENDBRANCH   1  10
BRANCH   2  21
ATOM     21  S   UNL d   1      46.398 -17.963  43.303  0.00  0.00    -0.080 SA
BRANCH  21  22
ATOM     22  C   UNL d   1      46.192 -17.198  43.536  0.00  0.00     0.098 C 
BRANCH  22  23
ATOM     23  C   UNL d   1      45.954 -17.046  44.306  0.00  0.00     0.286 C 
ATOM     24  N   UNL d   1      45.732 -16.290  44.539  0.00  0.00    -0.204 NA
ATOM     25  O   UNL d   1      45.937 -17.665  44.855  0.00  0.00    -0.265 OA
BRANCH  24  26
ATOM     26  C   UNL d   1      45.750 -15.680  43.993  0.00  0.00     0.127 C 
BRANCH  26  27
ATOM     27  C   UNL d   1      45.571 -14.910  44.233  0.00  0.00     0.119 A 
ATOM     28  O   UNL d   1      44.879 -14.507  44.064  0.00  0.00    -0.304 OA
ATOM     29  C   UNL d   1      44.932 -13.762  44.406  0.00  0.00     0.123 A 
ATOM     30  C   UNL d   1      45.652 -13.705  44.783  0.00  0.00     0.029 A 
ATOM     31  C   UNL d   1      46.049 -14.414  44.677  0.00  0.00     0.028 A 
ENDBRANCH  26  27
ENDBRANCH  24  26
ENDBRANCH  22  23
ENDBRANCH  21  22
ENDBRANCH   2  21
TORSDOF 9
ENDMDL
