MODEL 1
REMARK VINA RESULT:      -9.2      0.000      0.000
REMARK  3 active torsions:
REMARK  status: ('A' for Active; 'I' for Inactive)
REMARK    1  A    between atoms: C_6  and  C_1 
REMARK    2  A    between atoms: C_8  and  C_4 
REMARK    3  A    between atoms: O_17  and  C_14 
ROOT
ATOM      1  C   UNL d   1      53.080  34.966  54.218  0.00  0.00     0.122 A 
ATOM      2  C   UNL d   1      53.369  34.386  54.742  0.00  0.00     0.285 A 
ATOM      3  N   UNL d   1      53.370  33.592  54.520  0.00  0.00    -0.208 NA
ATOM      4  C   UNL d   1      53.084  33.374  53.779  0.00  0.00     0.085 A 
ATOM      5  C   UNL d   1      52.794  34.747  53.477  0.00  0.00     0.013 A 
ATOM      6  C   UNL d   1      52.798  33.949  53.261  0.00  0.00     0.020 A 
ATOM      7  O   UNL d   1      53.656  34.610  55.488  0.00  0.00    -0.265 OA
ENDROOT
BRANCH   4   8
ATOM      8  C   UNL d   1      53.084  32.578  53.555  0.00  0.00     0.018 A 
ATOM      9  C   UNL d   1      52.437  32.272  53.138  0.00  0.00     0.004 A 
ATOM     10  C   UNL d   1      52.439  31.480  52.915  0.00  0.00     0.024 A 
ATOM     11  C   UNL d   1      53.080  30.998  53.107  0.00  0.00     0.094 A 
ATOM     12  C   UNL d   1      53.722  31.312  53.524  0.00  0.00     0.024 A 
ATOM     13  C   UNL d   1      53.720  32.104  53.746  0.00  0.00     0.004 A 
BRANCH  11  14
ATOM     14  O   UNL d   1      53.079  30.199  52.881  0.00  0.00    -0.328 OA
ATOM     15  C   UNL d   1      52.897  29.613  53.423  0.00  0.00     0.181 C 
ENDBRANCH  11  14
ENDBRANCH   4   8
BRANCH   1  16
ATOM     16  C   UNL d   1      53.079  35.759  54.439  0.00  0.00     0.216 C 
ATOM     17  O   UNL d   1      53.717  36.244  54.243  0.00  0.00    -0.644 OA
ATOM     18  O   UNL d   1      52.439  36.075  54.859  0.00  0.00    -0.644 OA
ENDBRANCH   1  16
TORSDOF 3
ENDMDL
MODEL 2
REMARK VINA RESULT:      -9.0      1.865      3.036
REMARK  3 active torsions:
REMARK  status: ('A' for Active; 'I' for Inactive)
REMARK    1  A    between atoms: C_6  and  C_1 
REMARK    2  A    between atoms: C_8  and  C_4 
REMARK    3  A    between atoms: O_17  and  C_14 
ROOT
ATOM      1  C   UNL d   1      54.057  33.631  54.701  0.00  0.00     0.122 A 
ATOM      2  C   UNL d   1      53.542  34.274  54.829  0.00  0.00     0.285 A 
ATOM      3  N   UNL d   1      52.868  34.361  54.363  0.00  0.00    -0.208 NA
ATOM      4  C   UNL d   1      52.705  33.813  53.772  0.00  0.00     0.085 A 
ATOM      5  C   UNL d   1      53.894  33.082  54.109  0.00  0.00     0.013 A 
ATOM      6  C   UNL d   1      53.215  33.177  53.645  0.00  0.00     0.020 A 
ATOM      7  O   UNL d   1      53.711  34.825  55.427  0.00  0.00    -0.265 OA
ENDROOT
BRANCH   4   8
ATOM      8  C   UNL d   1      52.029  33.899  53.303  0.00  0.00     0.018 A 
ATOM      9  C   UNL d   1      51.314  33.564  53.553  0.00  0.00     0.004 A 
ATOM     10  C   UNL d   1      50.643  33.651  53.086  0.00  0.00     0.024 A 
ATOM     11  C   UNL d   1      50.684  34.069  52.376  0.00  0.00     0.094 A 
ATOM     12  C   UNL d   1      51.403  34.401  52.134  0.00  0.00     0.024 A 
ATOM     13  C   UNL d   1      52.074  34.314  52.601  0.00  0.00     0.004 A 
BRANCH  11  14
ATOM     14  O   UNL d   1      50.004  34.155  51.906  0.00  0.00    -0.328 OA
ATOM     15  C   UNL d   1      49.419  34.689  52.115  0.00  0.00     0.181 C 
ENDBRANCH  11  14
ENDBRANCH   4   8
BRANCH   1  16
ATOM     16  C   UNL d   1      54.731  33.543  55.166  0.00  0.00     0.216 C 
ATOM     17  O   UNL d   1      54.733  33.008  55.794  0.00  0.00    -0.644 OA
ATOM     18  O   UNL d   1      55.411  33.989  55.008  0.00  0.00    -0.644 OA
ENDBRANCH   1  16
TORSDOF 3
ENDMDL
MODEL 3
REMARK VINA RESULT:      -8.2      0.844      4.221
REMARK  3 active torsions:
REMARK  status: ('A' for Active; 'I' for Inactive)
REMARK    1  A    between atoms: C_6  and  C_1 
REMARK    2  A    between atoms: C_8  and  C_4 
REMARK    3  A    between atoms: O_17  and  C_14 
ROOT
ATOM      1  C   UNL d   1      53.274  30.893  53.540  0.00  0.00     0.122 A 
ATOM      2  C   UNL d   1      52.897  31.397  52.994  0.00  0.00     0.285 A 
ATOM      3  N   UNL d   1      52.886  32.211  53.122  0.00  0.00    -0.208 NA
ATOM      4  C   UNL d   1      53.249  32.525  53.791  0.00  0.00     0.085 A 
ATOM      5  C   UNL d   1      53.636  31.208  54.209  0.00  0.00     0.013 A 
ATOM      6  C   UNL d   1      53.622  32.026  54.332  0.00  0.00     0.020 A 
ATOM      7  O   UNL d   1      52.532  31.076  52.319  0.00  0.00    -0.265 OA
ENDROOT
BRANCH   4   8
ATOM      8  C   UNL d   1      53.239  33.342  53.921  0.00  0.00     0.018 A 
ATOM      9  C   UNL d   1      52.851  33.836  53.382  0.00  0.00     0.004 A 
ATOM     10  C   UNL d   1      52.842  34.648  53.513  0.00  0.00     0.024 A 
ATOM     11  C   UNL d   1      53.217  34.964  54.177  0.00  0.00     0.094 A 
ATOM     12  C   UNL d   1      53.603  34.463  54.710  0.00  0.00     0.024 A 
ATOM     13  C   UNL d   1      53.611  33.650  54.578  0.00  0.00     0.004 A 
BRANCH  11  14
ATOM     14  O   UNL d   1      53.206  35.784  54.306  0.00  0.00    -0.328 OA
ATOM     15  C   UNL d   1      52.784  36.102  54.932  0.00  0.00     0.181 C 
ENDBRANCH  11  14
ENDBRANCH   4   8
BRANCH   1  16
ATOM     16  C   UNL d   1      53.285  30.080  53.412  0.00  0.00     0.216 C 
ATOM     17  O   UNL d   1      53.957  29.720  53.098  0.00  0.00    -0.644 OA
ATOM     18  O   UNL d   1      52.622  29.618  53.597  0.00  0.00    -0.644 OA
ENDBRANCH   1  16
TORSDOF 3
ENDMDL
MODEL 4
REMARK VINA RESULT:      -8.0      2.204      3.167
REMARK  3 active torsions:
REMARK  status: ('A' for Active; 'I' for Inactive)
REMARK    1  A    between atoms: C_6  and  C_1 
REMARK    2  A    between atoms: C_8  and  C_4 
REMARK    3  A    between atoms: O_17  and  C_14 
ROOT
ATOM      1  C   UNL d   1      50.911  34.185  52.696  0.00  0.00     0.122 A 
ATOM      2  C   UNL d   1      50.947  33.548  53.232  0.00  0.00     0.285 A 
ATOM      3  N   UNL d   1      51.643  33.397  53.646  0.00  0.00    -0.208 NA
ATOM      4  C   UNL d   1      52.302  33.876  53.530  0.00  0.00     0.085 A 
ATOM      5  C   UNL d   1      51.570  34.665  52.580  0.00  0.00     0.013 A 
ATOM      6  C   UNL d   1      52.265  34.507  52.999  0.00  0.00     0.020 A 
ATOM      7  O   UNL d   1      50.280  33.066  53.347  0.00  0.00    -0.265 OA
ENDROOT
BRANCH   4   8
ATOM      8  C   UNL d   1      53.001  33.726  53.945  0.00  0.00     0.018 A 
ATOM      9  C   UNL d   1      53.503  33.117  53.692  0.00  0.00     0.004 A 
ATOM     10  C   UNL d   1      54.198  32.969  54.106  0.00  0.00     0.024 A 
ATOM     11  C   UNL d   1      54.390  33.424  54.767  0.00  0.00     0.094 A 
ATOM     12  C   UNL d   1      53.884  34.030  55.013  0.00  0.00     0.024 A 
ATOM     13  C   UNL d   1      53.188  34.178  54.598  0.00  0.00     0.004 A 
BRANCH  11  14
ATOM     14  O   UNL d   1      55.093  33.271  55.183  0.00  0.00    -0.328 OA
ATOM     15  C   UNL d   1      55.672  33.847  55.248  0.00  0.00     0.181 C 
ENDBRANCH  11  14
ENDBRANCH   4   8
BRANCH   1  16
ATOM     16  C   UNL d   1      50.216  34.337  52.282  0.00  0.00     0.216 C 
ATOM     17  O   UNL d   1      50.157  34.134  51.484  0.00  0.00    -0.644 OA
ATOM     18  O   UNL d   1      49.572  34.694  52.661  0.00  0.00    -0.644 OA
ENDBRANCH   1  16
TORSDOF 3
ENDMDL
