MODEL 1
REMARK VINA RESULT:      -4.5      0.000      0.000
REMARK  3 active torsions:
REMARK  status: ('A' for Active; 'I' for Inactive)
REMARK    1  A    between atoms: S_10  and  C_3 
REMARK    2  A    between atoms: C_14  and  S_10 
REMARK    3  A    between atoms: C_16  and  C_14 
ROOT
ATOM      1  C   UNL d   1     -41.292-121.873 -52.535  0.00  0.00     0.155 A 
ATOM      2  C   UNL d   1     -41.372-122.696 -52.517  0.00  0.00     0.107 A 
ATOM      3  C   UNL d   1     -41.287-122.666 -51.095  0.00  0.00     0.182 A 
ATOM      4  N   UNL d   1     -41.207-121.852 -51.110  0.00  0.00    -0.250 N 
ATOM      5  N   UNL d   1     -41.370-123.095 -51.790  0.00  0.00    -0.220 NA
ATOM      6  C   UNL d   1     -41.209-121.452 -51.837  0.00  0.00     0.285 A 
ATOM      7  N   UNL d   1     -41.313-121.631 -53.321  0.00  0.00    -0.239 NA
ATOM      8  C   UNL d   1     -41.444-122.967 -53.288  0.00  0.00     0.037 A 
ATOM      9  C   UNL d   1     -41.407-122.305 -53.793  0.00  0.00     0.083 A 
ATOM     10  O   UNL d   1     -41.128-120.627 -51.846  0.00  0.00    -0.265 OA
ATOM     11  C   UNL d   1     -41.124-121.428 -50.403  0.00  0.00     0.104 C 
ATOM     12  C   UNL d   1     -41.537-123.718 -53.606  0.00  0.00     0.003 A 
ATOM     13  C   UNL d   1     -41.465-122.404 -54.611  0.00  0.00     0.019 A 
ATOM     14  C   UNL d   1     -41.594-123.817 -54.425  0.00  0.00     0.000 A 
ATOM     15  C   UNL d   1     -41.558-123.163 -54.922  0.00  0.00     0.002 A 
ENDROOT
BRANCH   3  16
ATOM     16  S   UNL d   1     -41.284-123.061 -50.371  0.00  0.00    -0.050 SA
BRANCH  16  17
ATOM     17  C   UNL d   1     -41.993-123.301 -50.026  0.00  0.00     0.032 C 
ATOM     18  C   UNL d   1     -42.492-123.817 -50.427  0.00  0.00     0.007 C 
BRANCH  17  19
ATOM     19  C   UNL d   1     -42.196-123.020 -49.279  0.00  0.00     0.007 C 
ATOM     20  C   UNL d   1     -42.699-123.461 -48.791  0.00  0.00     0.001 C 
ENDBRANCH  17  19
ENDBRANCH  16  17
ENDBRANCH   3  16
TORSDOF 3
ENDMDL
MODEL 2
REMARK VINA RESULT:      -1.7      0.940      3.544
REMARK  3 active torsions:
REMARK  status: ('A' for Active; 'I' for Inactive)
REMARK    1  A    between atoms: S_10  and  C_3 
REMARK    2  A    between atoms: C_14  and  S_10 
REMARK    3  A    between atoms: C_16  and  C_14 
ROOT
ATOM      1  C   UNL d   1     -41.702-121.717 -51.209  0.00  0.00     0.155 A 
ATOM      2  C   UNL d   1     -41.711-122.539 -51.295  0.00  0.00     0.107 A 
ATOM      3  C   UNL d   1     -41.329-122.393 -52.660  0.00  0.00     0.182 A 
ATOM      4  N   UNL d   1     -41.320-121.580 -52.577  0.00  0.00    -0.250 N 
ATOM      5  N   UNL d   1     -41.523-122.879 -52.027  0.00  0.00    -0.220 NA
ATOM      6  C   UNL d   1     -41.508-121.238 -51.845  0.00  0.00     0.285 A 
ATOM      7  N   UNL d   1     -41.909-121.538 -50.432  0.00  0.00    -0.239 NA
ATOM      8  C   UNL d   1     -41.923-122.873 -50.576  0.00  0.00     0.037 A 
ATOM      9  C   UNL d   1     -42.047-122.252 -50.036  0.00  0.00     0.083 A 
ATOM     10  O   UNL d   1     -41.497-120.413 -51.767  0.00  0.00    -0.265 OA
ATOM     11  C   UNL d   1     -41.123-121.097 -53.222  0.00  0.00     0.104 C 
ATOM     12  C   UNL d   1     -42.021-123.652 -50.333  0.00  0.00     0.003 A 
ATOM     13  C   UNL d   1     -42.269-122.418 -49.257  0.00  0.00     0.019 A 
ATOM     14  C   UNL d   1     -42.243-123.817 -49.554  0.00  0.00     0.000 A 
ATOM     15  C   UNL d   1     -42.365-123.203 -49.022  0.00  0.00     0.002 A 
ENDROOT
BRANCH   3  16
ATOM     16  S   UNL d   1     -41.141-122.729 -53.389  0.00  0.00    -0.050 SA
BRANCH  16  17
ATOM     17  C   UNL d   1     -41.723-123.111 -53.833  0.00  0.00     0.032 C 
ATOM     18  C   UNL d   1     -42.047-123.817 -53.566  0.00  0.00     0.007 C 
BRANCH  17  19
ATOM     19  C   UNL d   1     -41.973-122.777 -54.543  0.00  0.00     0.007 C 
ATOM     20  C   UNL d   1     -42.006-123.240 -55.230  0.00  0.00     0.001 C 
ENDBRANCH  17  19
ENDBRANCH  16  17
ENDBRANCH   3  16
TORSDOF 3
ENDMDL
