MODEL 1
REMARK VINA RESULT:      83.1      0.000      0.000
REMARK  4 active torsions:
REMARK  status: ('A' for Active; 'I' for Inactive)
REMARK    1  A    between atoms: N_7  and  C_1 
REMARK    2  A    between atoms: C_8  and  C_4 
REMARK    3  A    between atoms: C_10  and  N_7 
REMARK    4  A    between atoms: C_12  and  C_8 
ROOT
ATOM      1  C   UNL d   1     -55.161-101.186 -40.816  0.00  0.00     0.184 A 
ATOM      2  N   UNL d   1     -55.162-102.013 -40.864  0.00  0.00    -0.129 NA
ATOM      3  N   UNL d   1     -55.013-102.465 -40.189  0.00  0.00    -0.147 NA
ATOM      4  C   UNL d   1     -54.863-102.098 -39.462  0.00  0.00     0.103 A 
ATOM      5  C   UNL d   1     -55.011-100.823 -40.091  0.00  0.00     0.039 A 
ATOM      6  C   UNL d   1     -54.862-101.275 -39.416  0.00  0.00     0.022 A 
ATOM      7  C   UNL d   1     -55.010 -99.996 -40.044  0.00  0.00     0.003 A 
ATOM      8  C   UNL d   1     -54.712-100.902 -38.689  0.00  0.00     0.002 A 
ATOM      9  C   UNL d   1     -54.712-100.079 -38.644  0.00  0.00     0.000 A 
ATOM     10  C   UNL d   1     -54.861 -99.625 -39.323  0.00  0.00     0.000 A 
ENDROOT
BRANCH   1  11
ATOM     11  N   UNL d   1     -55.309-100.728 -41.487  0.00  0.00    -0.225 NA
BRANCH  11  12
ATOM     12  C   UNL d   1     -55.316-101.085 -42.230  0.00  0.00     0.083 A 
ATOM     13  C   UNL d   1     -54.717-100.926 -42.763  0.00  0.00     0.020 A 
ATOM     14  C   UNL d   1     -54.715-101.277 -43.505  0.00  0.00     0.013 A 
ATOM     15  C   UNL d   1     -55.328-101.800 -43.719  0.00  0.00     0.058 A 
ATOM     16  C   UNL d   1     -55.931-101.958 -43.178  0.00  0.00     0.013 A 
ATOM     17 CL   UNL d   1     -55.329-102.156 -44.467  0.00  0.00    -0.082 Cl
ATOM     18  C   UNL d   1     -55.927-101.601 -42.431  0.00  0.00     0.020 A 
ENDBRANCH  11  12
ENDBRANCH   1  11
BRANCH   4  19
ATOM     19  C   UNL d   1     -54.714-102.550 -38.785  0.00  0.00     0.021 C 
BRANCH  19  20
ATOM     20  C   UNL d   1     -55.287-102.613 -38.196  0.00  0.00     0.005 A 
ATOM     21  C   UNL d   1     -55.084-102.472 -37.409  0.00  0.00     0.021 A 
ATOM     22  C   UNL d   1     -55.657-102.535 -36.820  0.00  0.00     0.099 A 
ATOM     23  N   UNL d   1     -56.433-102.738 -37.017  0.00  0.00    -0.242 NA
ATOM     24  C   UNL d   1     -56.633-102.879 -37.816  0.00  0.00     0.099 A 
ATOM     25  C   UNL d   1     -56.052-102.814 -38.398  0.00  0.00     0.021 A 
ENDBRANCH  19  20
ENDBRANCH   4  19
TORSDOF 4
ENDMDL
