MODEL 1
REMARK VINA RESULT:      -5.1      0.000      0.000
REMARK  5 active torsions:
REMARK  status: ('A' for Active; 'I' for Inactive)
REMARK    1  A    between atoms: C_10  and  C_4 
REMARK       I    between atoms: C_6  and  N_8 
REMARK    2  A    between atoms: C_9  and  C_6 
REMARK    3  A    between atoms: N_8  and  C_13 
REMARK    4  A    between atoms: C_11  and  C_9 
REMARK    5  A    between atoms: C_13  and  C_10 
ROOT
ATOM      1  C   UNL d   1     -41.479-122.029 -51.039  0.00  0.00     0.279 C 
ATOM      2  O   UNL d   1     -41.359-121.520 -50.400  0.00  0.00    -0.265 OA
ATOM      3  N   UNL d   1     -41.352-121.764 -51.802  0.00  0.00    -0.206 NA
ENDROOT
BRANCH   1   4
ATOM      4  C   UNL d   1     -41.726-122.804 -50.900  0.00  0.00     0.062 C 
BRANCH   4   5
ATOM      5  C   UNL d   1     -41.946-123.044 -50.136  0.00  0.00     0.005 A 
ATOM      6  C   UNL d   1     -41.433-123.507 -49.712  0.00  0.00     0.001 A 
ATOM      7  C   UNL d   1     -41.646-123.749 -48.953  0.00  0.00     0.011 A 
ATOM      8  C   UNL d   1     -42.366-123.526 -48.627  0.00  0.00     0.058 A 
ATOM      9  C   UNL d   1     -42.885-123.055 -49.061  0.00  0.00     0.011 A 
ATOM     10 CL   UNL d   1     -42.571-123.775 -47.860  0.00  0.00    -0.082 Cl
ATOM     11  C   UNL d   1     -42.672-122.814 -49.819  0.00  0.00     0.001 A 
ENDBRANCH   4   5
ENDBRANCH   1   4
BRANCH   3  12
ATOM     12  C   UNL d   1     -41.476-122.286 -52.450  0.00  0.00     0.104 C 
BRANCH  12  13
ATOM     13  C   UNL d   1     -41.123-122.117 -53.176  0.00  0.00     0.040 C 
BRANCH  13  14
ATOM     14  C   UNL d   1     -41.484-122.389 -53.875  0.00  0.00     0.090 A 
ATOM     15  N   UNL d   1     -41.865-121.853 -54.375  0.00  0.00    -0.238 NA
ATOM     16  C   UNL d   1     -42.167-122.274 -55.016  0.00  0.00     0.111 A 
ATOM     17  S   UNL d   1     -41.977-123.062 -54.915  0.00  0.00    -0.066 SA
ATOM     18  C   UNL d   1     -42.593-121.963 -55.657  0.00  0.00     0.028 C 
ATOM     19  C   UNL d   1     -41.554-123.145 -54.213  0.00  0.00     0.056 A 
ENDBRANCH  13  14
ENDBRANCH  12  13
ENDBRANCH   3  12
TORSDOF 5
ENDMDL
MODEL 2
REMARK VINA RESULT:      -4.7      2.542      4.922
REMARK  5 active torsions:
REMARK  status: ('A' for Active; 'I' for Inactive)
REMARK    1  A    between atoms: C_10  and  C_4 
REMARK       I    between atoms: C_6  and  N_8 
REMARK    2  A    between atoms: C_9  and  C_6 
REMARK    3  A    between atoms: N_8  and  C_13 
REMARK    4  A    between atoms: C_11  and  C_9 
REMARK    5  A    between atoms: C_13  and  C_10 
ROOT
ATOM      1  C   UNL d   1     -41.334-121.845 -52.335  0.00  0.00     0.279 C 
ATOM      2  O   UNL d   1     -41.123-121.123 -52.675  0.00  0.00    -0.265 OA
ATOM      3  N   UNL d   1     -41.379-121.916 -51.521  0.00  0.00    -0.206 NA
ENDROOT
BRANCH   1   4
ATOM      4  C   UNL d   1     -41.499-122.491 -52.821  0.00  0.00     0.062 C 
BRANCH   4   5
ATOM      5  C   UNL d   1     -41.728-122.373 -53.611  0.00  0.00     0.005 A 
ATOM      6  C   UNL d   1     -41.225-122.612 -54.200  0.00  0.00     0.001 A 
ATOM      7  C   UNL d   1     -41.447-122.498 -54.986  0.00  0.00     0.011 A 
ATOM      8  C   UNL d   1     -42.165-122.149 -55.174  0.00  0.00     0.058 A 
ATOM      9  C   UNL d   1     -42.675-121.908 -54.573  0.00  0.00     0.011 A 
ATOM     10 CL   UNL d   1     -42.380-122.039 -55.971  0.00  0.00    -0.082 Cl
ATOM     11  C   UNL d   1     -42.453-122.021 -53.788  0.00  0.00     0.001 A 
ENDBRANCH   4   5
ENDBRANCH   1   4
BRANCH   3  12
ATOM     12  C   UNL d   1     -41.595-122.654 -51.179  0.00  0.00     0.104 C 
BRANCH  12  13
ATOM     13  C   UNL d   1     -41.293-122.857 -50.438  0.00  0.00     0.040 C 
BRANCH  13  14
ATOM     14  C   UNL d   1     -41.804-123.193 -49.872  0.00  0.00     0.090 A 
ATOM     15  N   UNL d   1     -41.648-123.089 -49.068  0.00  0.00    -0.238 NA
ATOM     16  C   UNL d   1     -42.239-123.478 -48.643  0.00  0.00     0.111 A 
ATOM     17  S   UNL d   1     -42.754-123.817 -49.177  0.00  0.00    -0.066 SA
ATOM     18  C   UNL d   1     -42.307-123.522 -47.817  0.00  0.00     0.028 C 
ATOM     19  C   UNL d   1     -42.495-123.648 -49.941  0.00  0.00     0.056 A 
ENDBRANCH  13  14
ENDBRANCH  12  13
ENDBRANCH   3  12
TORSDOF 5
ENDMDL
