MODEL 1
REMARK VINA RESULT:      -5.1      0.000      0.000
REMARK  3 active torsions:
REMARK  status: ('A' for Active; 'I' for Inactive)
REMARK    1  A    between atoms: C_8  and  C_6 
REMARK    2  A    between atoms: C_9  and  C_8 
REMARK       I    between atoms: N_10  and  C_9 
REMARK    3  A    between atoms: C_14  and  N_10 
ROOT
ATOM      1  N   UNL d   1     -41.214-123.645 -53.097  0.00  0.00    -0.207 NA
ATOM      2  N   UNL d   1     -41.965-122.234 -52.592  0.00  0.00    -0.240 NA
ATOM      3  C   UNL d   1     -41.374-123.345 -52.356  0.00  0.00     0.297 A 
ATOM      4  C   UNL d   1     -41.385-123.324 -53.842  0.00  0.00     0.086 A 
ATOM      5  C   UNL d   1     -42.023-122.123 -53.402  0.00  0.00     0.083 A 
ATOM      6  C   UNL d   1     -41.628-122.866 -52.189  0.00  0.00     0.144 A 
ATOM      7  C   UNL d   1     -41.764-122.612 -54.013  0.00  0.00     0.035 A 
ATOM      8  O   UNL d   1     -41.124-123.816 -51.728  0.00  0.00    -0.264 OA
ATOM      9  C   UNL d   1     -41.883-122.387 -54.799  0.00  0.00     0.003 A 
ATOM     10  C   UNL d   1     -42.402-121.412 -53.569  0.00  0.00     0.019 A 
ATOM     11  C   UNL d   1     -41.124-123.814 -54.462  0.00  0.00     0.019 A 
ATOM     12  C   UNL d   1     -42.523-121.184 -54.363  0.00  0.00     0.002 A 
ATOM     13  C   UNL d   1     -41.245-123.586 -55.246  0.00  0.00     0.002 A 
ATOM     14  C   UNL d   1     -42.263-121.673 -54.977  0.00  0.00     0.000 A 
ATOM     15  C   UNL d   1     -41.622-122.878 -55.414  0.00  0.00     0.000 A 
ENDROOT
BRANCH   6  16
ATOM     16  C   UNL d   1     -41.667-122.794 -51.370  0.00  0.00     0.086 C 
BRANCH  16  17
ATOM     17  C   UNL d   1     -41.518-122.058 -51.023  0.00  0.00     0.281 C 
ATOM     18  N   UNL d   1     -41.766-121.917 -50.249  0.00  0.00    -0.208 NA
ATOM     19  O   UNL d   1     -41.123-121.464 -51.443  0.00  0.00    -0.265 OA
BRANCH  18  20
ATOM     20  C   UNL d   1     -42.161-122.502 -49.817  0.00  0.00     0.085 A 
ATOM     21  C   UNL d   1     -42.977-122.551 -49.833  0.00  0.00     0.019 A 
ATOM     22  C   UNL d   1     -43.365-123.133 -49.404  0.00  0.00     0.002 A 
ATOM     23  C   UNL d   1     -42.932-123.674 -48.951  0.00  0.00     0.000 A 
ATOM     24  C   UNL d   1     -42.100-123.618 -48.939  0.00  0.00     0.002 A 
ATOM     25  C   UNL d   1     -41.724-123.034 -49.371  0.00  0.00     0.019 A 
ENDBRANCH  18  20
ENDBRANCH  16  17
ENDBRANCH   6  16
TORSDOF 3
ENDMDL
MODEL 2
REMARK VINA RESULT:      -2.9      0.997      4.565
REMARK  3 active torsions:
REMARK  status: ('A' for Active; 'I' for Inactive)
REMARK    1  A    between atoms: C_8  and  C_6 
REMARK    2  A    between atoms: C_9  and  C_8 
REMARK       I    between atoms: N_10  and  C_9 
REMARK    3  A    between atoms: C_14  and  N_10 
ROOT
ATOM      1  N   UNL d   1     -43.270-122.122 -50.724  0.00  0.00    -0.207 NA
ATOM      2  N   UNL d   1     -41.797-122.823 -51.111  0.00  0.00    -0.240 NA
ATOM      3  C   UNL d   1     -42.832-122.132 -51.412  0.00  0.00     0.297 A 
ATOM      4  C   UNL d   1     -43.104-122.471 -49.990  0.00  0.00     0.086 A 
ATOM      5  C   UNL d   1     -41.849-123.065 -50.329  0.00  0.00     0.083 A 
ATOM      6  C   UNL d   1     -42.333-122.370 -51.538  0.00  0.00     0.144 A 
ATOM      7  C   UNL d   1     -42.444-122.918 -49.779  0.00  0.00     0.035 A 
ATOM      8  O   UNL d   1     -43.167-121.723 -52.043  0.00  0.00    -0.264 OA
ATOM      9  C   UNL d   1     -42.380-123.220 -49.013  0.00  0.00     0.003 A 
ATOM     10  C   UNL d   1     -41.189-123.511 -50.121  0.00  0.00     0.019 A 
ATOM     11  C   UNL d   1     -43.703-122.325 -49.431  0.00  0.00     0.019 A 
ATOM     12  C   UNL d   1     -41.124-123.816 -49.348  0.00  0.00     0.002 A 
ATOM     13  C   UNL d   1     -43.635-122.629 -48.666  0.00  0.00     0.002 A 
ATOM     14  C   UNL d   1     -41.720-123.671 -48.794  0.00  0.00     0.000 A 
ATOM     15  C   UNL d   1     -42.979-123.073 -48.458  0.00  0.00     0.000 A 
ENDROOT
BRANCH   6  16
ATOM     16  C   UNL d   1     -42.102-122.231 -52.316  0.00  0.00     0.086 C 
BRANCH  16  17
ATOM     17  C   UNL d   1     -41.463-121.727 -52.462  0.00  0.00     0.281 C 
ATOM     18  N   UNL d   1     -41.123-121.711 -53.214  0.00  0.00    -0.208 NA
ATOM     19  O   UNL d   1     -41.162-121.240 -51.864  0.00  0.00    -0.265 OA
BRANCH  18  20
ATOM     20  C   UNL d   1     -41.414-122.191 -53.821  0.00  0.00     0.085 A 
ATOM     21  C   UNL d   1     -41.196-122.977 -53.869  0.00  0.00     0.019 A 
ATOM     22  C   UNL d   1     -41.487-123.451 -54.473  0.00  0.00     0.002 A 
ATOM     23  C   UNL d   1     -42.003-123.135 -55.038  0.00  0.00     0.000 A 
ATOM     24  C   UNL d   1     -42.221-122.332 -54.983  0.00  0.00     0.002 A 
ATOM     25  C   UNL d   1     -41.925-121.869 -54.377  0.00  0.00     0.019 A 
ENDBRANCH  18  20
ENDBRANCH  16  17
ENDBRANCH   6  16
TORSDOF 3
ENDMDL
