MODEL 1
REMARK VINA RESULT:      -2.2      0.000      0.000
REMARK  4 active torsions:
REMARK  status: ('A' for Active; 'I' for Inactive)
REMARK    1  A    between atoms: N_6  and  C_1 
REMARK    2  A    between atoms: C_7  and  N_2 
REMARK       I    between atoms: C_8  and  N_6 
REMARK    3  A    between atoms: C_19  and  C_8 
REMARK    4  A    between atoms: O_20  and  C_15 
ROOT
ATOM      1  C   UNL d   1      59.207  -0.380  29.379  0.00  0.00     0.169 A 
ATOM      2  N   UNL d   1      59.081   0.199  29.962  0.00  0.00    -0.212 N 
ATOM      3  N   UNL d   1      59.749   0.682  29.962  0.00  0.00    -0.163 NA
ATOM      4  C   UNL d   1      59.936  -0.240  29.043  0.00  0.00     0.062 A 
ATOM      5  C   UNL d   1      60.291   0.419  29.392  0.00  0.00     0.111 A 
ATOM      6  S   UNL d   1      61.133  -0.014  28.486  0.00  0.00    -0.084 SA
ATOM      7  C   UNL d   1      60.480  -0.523  28.455  0.00  0.00     0.040 A 
ATOM      8  C   UNL d   1      61.039   0.550  29.036  0.00  0.00     0.056 A 
ENDROOT
BRANCH   2   9
ATOM      9  C   UNL d   1      58.443   0.275  30.429  0.00  0.00     0.085 A 
ATOM     10  C   UNL d   1      58.483   0.086  31.211  0.00  0.00     0.021 A 
ATOM     11  C   UNL d   1      57.823   0.162  31.704  0.00  0.00     0.026 A 
ATOM     12  C   UNL d   1      57.122   0.428  31.410  0.00  0.00     0.094 A 
ATOM     13  C   UNL d   1      57.072   0.623  30.613  0.00  0.00     0.026 A 
ATOM     14  C   UNL d   1      57.732   0.547  30.120  0.00  0.00     0.021 A 
BRANCH  12  15
ATOM     15  O   UNL d   1      56.499   0.509  31.834  0.00  0.00    -0.328 OA
ATOM     16  C   UNL d   1      56.566   0.637  32.755  0.00  0.00     0.181 C 
ENDBRANCH  12  15
ENDBRANCH   2   9
BRANCH   1  17
ATOM     17  N   UNL d   1      58.701  -0.944  29.208  0.00  0.00    -0.188 NA
ATOM     18  C   UNL d   1      58.917  -1.734  29.254  0.00  0.00     0.292 C 
ATOM     19  O   UNL d   1      59.701  -1.917  29.491  0.00  0.00    -0.264 OA
BRANCH  18  20
ATOM     20  C   UNL d   1      58.363  -2.316  29.067  0.00  0.00     0.131 C 
ATOM     21 CL   UNL d   1      58.568  -3.105  28.977  0.00  0.00    -0.076 Cl
ENDBRANCH  18  20
ENDBRANCH   1  17
TORSDOF 4
ENDMDL
MODEL 2
REMARK VINA RESULT:      -1.2      3.328      5.266
REMARK  4 active torsions:
REMARK  status: ('A' for Active; 'I' for Inactive)
REMARK    1  A    between atoms: N_6  and  C_1 
REMARK    2  A    between atoms: C_7  and  N_2 
REMARK       I    between atoms: C_8  and  N_6 
REMARK    3  A    between atoms: C_19  and  C_8 
REMARK    4  A    between atoms: O_20  and  C_15 
ROOT
ATOM      1  C   UNL d   1      56.443   0.462  33.366  0.00  0.00     0.169 A 
ATOM      2  N   UNL d   1      56.251   0.160  32.615  0.00  0.00    -0.212 N 
ATOM      3  N   UNL d   1      55.442  -0.001  32.627  0.00  0.00    -0.163 NA
ATOM      4  C   UNL d   1      55.761   0.478  33.810  0.00  0.00     0.062 A 
ATOM      5  C   UNL d   1      55.123   0.193  33.368  0.00  0.00     0.111 A 
ATOM      6  S   UNL d   1      54.641   0.507  34.546  0.00  0.00    -0.084 SA
ATOM      7  C   UNL d   1      55.450   0.682  34.574  0.00  0.00     0.040 A 
ATOM      8  C   UNL d   1      54.430   0.216  33.838  0.00  0.00     0.056 A 
ENDROOT
BRANCH   2   9
ATOM      9  C   UNL d   1      56.746   0.047  32.005  0.00  0.00     0.085 A 
ATOM     10  C   UNL d   1      57.121   0.672  31.661  0.00  0.00     0.021 A 
ATOM     11  C   UNL d   1      57.639   0.563  31.025  0.00  0.00     0.026 A 
ATOM     12  C   UNL d   1      57.780  -0.175  30.734  0.00  0.00     0.094 A 
ATOM     13  C   UNL d   1      57.402  -0.818  31.080  0.00  0.00     0.026 A 
ATOM     14  C   UNL d   1      56.884  -0.709  31.716  0.00  0.00     0.021 A 
BRANCH  12  15
ATOM     15  O   UNL d   1      58.247  -0.309  30.154  0.00  0.00    -0.328 OA
ATOM     16  C   UNL d   1      58.618   0.398  29.671  0.00  0.00     0.181 C 
ENDBRANCH  12  15
ENDBRANCH   2   9
BRANCH   1  17
ATOM     17  N   UNL d   1      57.157   0.682  33.577  0.00  0.00    -0.188 NA
ATOM     18  C   UNL d   1      57.490   0.418  34.279  0.00  0.00     0.292 C 
ATOM     19  O   UNL d   1      57.037  -0.096  34.763  0.00  0.00    -0.264 OA
BRANCH  18  20
ATOM     20  C   UNL d   1      58.251   0.664  34.484  0.00  0.00     0.131 C 
ATOM     21 CL   UNL d   1      58.513   0.682  35.260  0.00  0.00    -0.076 Cl
ENDBRANCH  18  20
ENDBRANCH   1  17
TORSDOF 4
ENDMDL
MODEL 3
REMARK VINA RESULT:      -1.1      1.947      3.932
REMARK  4 active torsions:
REMARK  status: ('A' for Active; 'I' for Inactive)
REMARK    1  A    between atoms: N_6  and  C_1 
REMARK    2  A    between atoms: C_7  and  N_2 
REMARK       I    between atoms: C_8  and  N_6 
REMARK    3  A    between atoms: C_19  and  C_8 
REMARK    4  A    between atoms: O_20  and  C_15 
ROOT
ATOM      1  C   UNL d   1      58.295  -0.573  30.044  0.00  0.00     0.169 A 
ATOM      2  N   UNL d   1      58.253  -1.399  30.132  0.00  0.00    -0.212 N 
ATOM      3  N   UNL d   1      57.716  -1.543  30.741  0.00  0.00    -0.163 NA
ATOM      4  C   UNL d   1      57.792  -0.239  30.590  0.00  0.00     0.062 A 
ATOM      5  C   UNL d   1      57.420  -0.826  31.037  0.00  0.00     0.111 A 
ATOM      6  S   UNL d   1      56.967   0.318  31.488  0.00  0.00    -0.084 SA
ATOM      7  C   UNL d   1      57.500   0.504  30.881  0.00  0.00     0.040 A 
ATOM      8  C   UNL d   1      56.907  -0.466  31.593  0.00  0.00     0.056 A 
ENDROOT
BRANCH   2   9
ATOM      9  C   UNL d   1      58.650  -1.944  29.714  0.00  0.00     0.085 A 
ATOM     10  C   UNL d   1      58.386  -2.179  28.990  0.00  0.00     0.021 A 
ATOM     11  C   UNL d   1      58.794  -2.746  28.548  0.00  0.00     0.026 A 
ATOM     12  C   UNL d   1      59.470  -3.078  28.834  0.00  0.00     0.094 A 
ATOM     13  C   UNL d   1      59.746  -2.845  29.572  0.00  0.00     0.026 A 
ATOM     14  C   UNL d   1      59.338  -2.278  30.014  0.00  0.00     0.021 A 
BRANCH  12  15
ATOM     15  O   UNL d   1      59.867  -3.600  28.455  0.00  0.00    -0.328 OA
ATOM     16  C   UNL d   1      60.248  -4.323  28.905  0.00  0.00     0.181 C 
ENDBRANCH  12  15
ENDBRANCH   2   9
BRANCH   1  17
ATOM     17  N   UNL d   1      58.744  -0.213  29.523  0.00  0.00    -0.188 NA
ATOM     18  C   UNL d   1      59.335   0.304  29.760  0.00  0.00     0.292 C 
ATOM     19  O   UNL d   1      59.440   0.434  30.582  0.00  0.00    -0.264 OA
BRANCH  18  20
ATOM     20  C   UNL d   1      59.801   0.676  29.189  0.00  0.00     0.131 C 
ATOM     21 CL   UNL d   1      60.619   0.627  29.190  0.00  0.00    -0.076 Cl
ENDBRANCH  18  20
ENDBRANCH   1  17
TORSDOF 4
ENDMDL
