MODEL 1
REMARK VINA RESULT:     -11.9      0.000      0.000
REMARK  3 active torsions:
REMARK  status: ('A' for Active; 'I' for Inactive)
REMARK    1  A    between atoms: C_6  and  C_1 
REMARK    2  A    between atoms: C_8  and  C_3 
REMARK    3  A    between atoms: C_9  and  C_4 
ROOT
ATOM      1  C   UNL d   1      53.931  33.437  54.444  0.00  0.00     0.306 A 
ATOM      2  N   UNL d   1      54.185  32.675  54.282  0.00  0.00    -0.152 NA
ATOM      3  C   UNL d   1      53.246  33.730  54.089  0.00  0.00     0.114 A 
ATOM      4  C   UNL d   1      52.811  33.262  53.570  0.00  0.00     0.094 A 
ATOM      5  C   UNL d   1      53.756  32.205  53.766  0.00  0.00     0.371 A 
ATOM      6  N   UNL d   1      53.072  32.497  53.411  0.00  0.00    -0.191 NA
ATOM      7  O   UNL d   1      54.009  31.435  53.599  0.00  0.00    -0.242 OA
ATOM      8  O   UNL d   1      53.675  34.204  54.607  0.00  0.00    -0.266 OA
ENDROOT
BRANCH   4   9
ATOM      9  C   UNL d   1      52.130  33.553  53.216  0.00  0.00     0.018 A 
ATOM     10  C   UNL d   1      51.394  33.424  53.566  0.00  0.00     0.004 A 
ATOM     11  C   UNL d   1      50.705  33.719  53.208  0.00  0.00     0.030 A 
ATOM     12  C   UNL d   1      50.754  34.138  52.507  0.00  0.00     0.140 A 
ATOM     13  C   UNL d   1      51.498  34.270  52.153  0.00  0.00     0.030 A 
ATOM     14  F   UNL d   1      50.072  34.430  52.154  0.00  0.00    -0.204 F 
ATOM     15  C   UNL d   1      52.175  33.975  52.513  0.00  0.00     0.004 A 
ENDBRANCH   4   9
BRANCH   3  16
ATOM     16  C   UNL d   1      52.993  34.496  54.253  0.00  0.00     0.202 C 
ATOM     17  O   UNL d   1      52.470  34.642  54.879  0.00  0.00    -0.286 OA
ATOM     18  C   UNL d   1      53.262  35.129  53.791  0.00  0.00     0.045 C 
ENDBRANCH   3  16
BRANCH   1  19
ATOM     19  C   UNL d   1      54.619  33.343  54.890  0.00  0.00     0.470 C 
ATOM     20  F   UNL d   1      55.226  33.250  55.307  0.00  0.00    -0.162 F 
ATOM     21  F   UNL d   1      54.697  33.027  55.690  0.00  0.00    -0.162 F 
ATOM     22  F   UNL d   1      55.431  33.528  54.691  0.00  0.00    -0.162 F 
ENDBRANCH   1  19
TORSDOF 3
ENDMDL
MODEL 2
REMARK VINA RESULT:     -11.6      0.941      1.834
REMARK  3 active torsions:
REMARK  status: ('A' for Active; 'I' for Inactive)
REMARK    1  A    between atoms: C_6  and  C_1 
REMARK    2  A    between atoms: C_8  and  C_3 
REMARK    3  A    between atoms: C_9  and  C_4 
ROOT
ATOM      1  C   UNL d   1      53.666  33.282  54.412  0.00  0.00     0.306 A 
ATOM      2  N   UNL d   1      53.779  33.895  54.943  0.00  0.00    -0.152 NA
ATOM      3  C   UNL d   1      53.059  33.324  53.855  0.00  0.00     0.114 A 
ATOM      4  C   UNL d   1      52.561  33.979  53.826  0.00  0.00     0.094 A 
ATOM      5  C   UNL d   1      53.288  34.551  54.919  0.00  0.00     0.371 A 
ATOM      6  N   UNL d   1      52.681  34.593  54.362  0.00  0.00    -0.191 NA
ATOM      7  O   UNL d   1      53.399  35.172  55.454  0.00  0.00    -0.242 OA
ATOM      8  O   UNL d   1      53.551  32.665  53.877  0.00  0.00    -0.266 OA
ENDROOT
BRANCH   4   9
ATOM      9  C   UNL d   1      51.957  34.021  53.271  0.00  0.00     0.018 A 
ATOM     10  C   UNL d   1      52.104  34.327  52.520  0.00  0.00     0.004 A 
ATOM     11  C   UNL d   1      51.493  34.369  51.959  0.00  0.00     0.030 A 
ATOM     12  C   UNL d   1      50.742  34.106  52.151  0.00  0.00     0.140 A 
ATOM     13  C   UNL d   1      50.592  33.796  52.912  0.00  0.00     0.030 A 
ATOM     14  F   UNL d   1      50.137  34.148  51.597  0.00  0.00    -0.204 F 
ATOM     15  C   UNL d   1      51.202  33.758  53.460  0.00  0.00     0.004 A 
ENDBRANCH   4   9
BRANCH   3  16
ATOM     16  C   UNL d   1      52.946  32.706  53.322  0.00  0.00     0.202 C 
ATOM     17  O   UNL d   1      53.307  32.722  52.576  0.00  0.00    -0.286 OA
ATOM     18  C   UNL d   1      52.469  32.061  53.530  0.00  0.00     0.045 C 
ENDBRANCH   3  16
BRANCH   1  19
ATOM     19  C   UNL d   1      54.309  33.048  54.872  0.00  0.00     0.470 C 
ATOM     20  F   UNL d   1      54.902  32.847  55.272  0.00  0.00    -0.162 F 
ATOM     21  F   UNL d   1      55.149  33.181  54.722  0.00  0.00    -0.162 F 
ATOM     22  F   UNL d   1      54.327  32.617  55.612  0.00  0.00    -0.162 F 
ENDBRANCH   1  19
TORSDOF 3
ENDMDL
MODEL 3
REMARK VINA RESULT:     -11.2      0.921      3.476
REMARK  3 active torsions:
REMARK  status: ('A' for Active; 'I' for Inactive)
REMARK    1  A    between atoms: C_6  and  C_1 
REMARK    2  A    between atoms: C_8  and  C_3 
REMARK    3  A    between atoms: C_9  and  C_4 
ROOT
ATOM      1  C   UNL d   1      52.110  33.783  52.990  0.00  0.00     0.306 A 
ATOM      2  N   UNL d   1      52.016  33.066  52.603  0.00  0.00    -0.152 NA
ATOM      3  C   UNL d   1      52.725  33.883  53.531  0.00  0.00     0.114 A 
ATOM      4  C   UNL d   1      53.248  33.267  53.689  0.00  0.00     0.094 A 
ATOM      5  C   UNL d   1      52.534  32.450  52.756  0.00  0.00     0.371 A 
ATOM      6  N   UNL d   1      53.148  32.550  53.297  0.00  0.00    -0.191 NA
ATOM      7  O   UNL d   1      52.442  31.725  52.367  0.00  0.00    -0.242 OA
ATOM      8  O   UNL d   1      52.206  34.503  53.380  0.00  0.00    -0.266 OA
ENDROOT
BRANCH   4   9
ATOM      9  C   UNL d   1      53.860  33.367  54.228  0.00  0.00     0.018 A 
ATOM     10  C   UNL d   1      54.593  33.648  53.976  0.00  0.00     0.004 A 
ATOM     11  C   UNL d   1      55.212  33.748  54.520  0.00  0.00     0.030 A 
ATOM     12  C   UNL d   1      55.095  33.569  55.311  0.00  0.00     0.140 A 
ATOM     13  C   UNL d   1      54.353  33.285  55.567  0.00  0.00     0.030 A 
ATOM     14  F   UNL d   1      55.706  33.669  55.849  0.00  0.00    -0.204 F 
ATOM     15  C   UNL d   1      53.747  33.188  55.022  0.00  0.00     0.004 A 
ENDBRANCH   4   9
BRANCH   3  16
ATOM     16  C   UNL d   1      52.818  34.603  53.919  0.00  0.00     0.202 C 
ATOM     17  O   UNL d   1      52.479  34.727  54.665  0.00  0.00    -0.286 OA
ATOM     18  C   UNL d   1      53.253  35.212  53.563  0.00  0.00     0.045 C 
ENDBRANCH   3  16
BRANCH   1  19
ATOM     19  C   UNL d   1      51.453  33.889  52.503  0.00  0.00     0.470 C 
ATOM     20  F   UNL d   1      50.874  33.992  52.050  0.00  0.00    -0.162 F 
ATOM     21  F   UNL d   1      51.431  34.184  51.692  0.00  0.00    -0.162 F 
ATOM     22  F   UNL d   1      50.624  33.740  52.661  0.00  0.00    -0.162 F 
ENDBRANCH   1  19
TORSDOF 3
ENDMDL
MODEL 4
REMARK VINA RESULT:     -10.8      1.961      3.185
REMARK  3 active torsions:
REMARK  status: ('A' for Active; 'I' for Inactive)
REMARK    1  A    between atoms: C_6  and  C_1 
REMARK    2  A    between atoms: C_8  and  C_3 
REMARK    3  A    between atoms: C_9  and  C_4 
ROOT
ATOM      1  C   UNL d   1      52.985  33.864  53.488  0.00  0.00     0.306 A 
ATOM      2  N   UNL d   1      52.198  34.045  53.344  0.00  0.00    -0.152 NA
ATOM      3  C   UNL d   1      53.228  33.077  53.527  0.00  0.00     0.114 A 
ATOM      4  C   UNL d   1      52.687  32.465  53.423  0.00  0.00     0.094 A 
ATOM      5  C   UNL d   1      51.654  33.440  53.240  0.00  0.00     0.371 A 
ATOM      6  N   UNL d   1      51.898  32.653  53.280  0.00  0.00    -0.191 NA
ATOM      7  O   UNL d   1      50.859  33.618  53.096  0.00  0.00    -0.242 OA
ATOM      8  O   UNL d   1      53.776  33.681  53.632  0.00  0.00    -0.266 OA
ENDROOT
BRANCH   4   9
ATOM      9  C   UNL d   1      52.929  31.682  53.462  0.00  0.00     0.018 A 
ATOM     10  C   UNL d   1      53.073  31.328  54.194  0.00  0.00     0.004 A 
ATOM     11  C   UNL d   1      53.318  30.536  54.233  0.00  0.00     0.030 A 
ATOM     12  C   UNL d   1      53.418  30.103  53.545  0.00  0.00     0.140 A 
ATOM     13  C   UNL d   1      53.272  30.460  52.805  0.00  0.00     0.030 A 
ATOM     14  F   UNL d   1      53.660  29.319  53.584  0.00  0.00    -0.204 F 
ATOM     15  C   UNL d   1      53.030  31.244  52.775  0.00  0.00     0.004 A 
ENDBRANCH   4   9
BRANCH   3  16
ATOM     16  C   UNL d   1      54.019  32.898  53.671  0.00  0.00     0.202 C 
ATOM     17  O   UNL d   1      54.543  32.770  53.042  0.00  0.00    -0.286 OA
ATOM     18  C   UNL d   1      54.296  32.844  54.450  0.00  0.00     0.045 C 
ENDBRANCH   3  16
BRANCH   1  19
ATOM     19  C   UNL d   1      52.953  34.688  53.487  0.00  0.00     0.470 C 
ATOM     20  F   UNL d   1      52.927  35.430  53.466  0.00  0.00    -0.162 F 
ATOM     21  F   UNL d   1      53.027  35.225  52.815  0.00  0.00    -0.162 F 
ATOM     22  F   UNL d   1      52.838  35.233  54.139  0.00  0.00    -0.162 F 
ENDBRANCH   1  19
TORSDOF 3
ENDMDL
MODEL 5
REMARK VINA RESULT:     -10.3      2.101      2.554
REMARK  3 active torsions:
REMARK  status: ('A' for Active; 'I' for Inactive)
REMARK    1  A    between atoms: C_6  and  C_1 
REMARK    2  A    between atoms: C_8  and  C_3 
REMARK    3  A    between atoms: C_9  and  C_4 
ROOT
ATOM      1  C   UNL d   1      53.576  31.663  53.698  0.00  0.00     0.306 A 
ATOM      2  N   UNL d   1      52.915  31.346  53.332  0.00  0.00    -0.152 NA
ATOM      3  C   UNL d   1      53.607  32.469  53.869  0.00  0.00     0.114 A 
ATOM      4  C   UNL d   1      52.978  32.964  53.676  0.00  0.00     0.094 A 
ATOM      5  C   UNL d   1      52.285  31.833  53.137  0.00  0.00     0.371 A 
ATOM      6  N   UNL d   1      52.317  32.639  53.308  0.00  0.00    -0.191 NA
ATOM      7  O   UNL d   1      51.616  31.517  52.767  0.00  0.00    -0.242 OA
ATOM      8  O   UNL d   1      54.241  31.983  54.067  0.00  0.00    -0.266 OA
ENDROOT
BRANCH   4   9
ATOM      9  C   UNL d   1      53.009  33.766  53.846  0.00  0.00     0.018 A 
ATOM     10  C   UNL d   1      52.842  34.036  54.608  0.00  0.00     0.004 A 
ATOM     11  C   UNL d   1      52.874  34.847  54.780  0.00  0.00     0.030 A 
ATOM     12  C   UNL d   1      53.072  35.383  54.193  0.00  0.00     0.140 A 
ATOM     13  C   UNL d   1      53.241  35.112  53.422  0.00  0.00     0.030 A 
ATOM     14  F   UNL d   1      53.103  36.186  54.364  0.00  0.00    -0.204 F 
ATOM     15  C   UNL d   1      53.207  34.307  53.260  0.00  0.00     0.004 A 
ENDBRANCH   4   9
BRANCH   3  16
ATOM     16  C   UNL d   1      54.272  32.786  54.237  0.00  0.00     0.202 C 
ATOM     17  O   UNL d   1      54.908  33.070  53.787  0.00  0.00    -0.286 OA
ATOM     18  C   UNL d   1      54.311  32.822  55.065  0.00  0.00     0.045 C 
ENDBRANCH   3  16
BRANCH   1  19
ATOM     19  C   UNL d   1      53.742  30.859  53.619  0.00  0.00     0.470 C 
ATOM     20  F   UNL d   1      53.882  30.132  53.566  0.00  0.00    -0.162 F 
ATOM     21  F   UNL d   1      53.553  30.218  54.166  0.00  0.00    -0.162 F 
ATOM     22  F   UNL d   1      54.140  30.441  52.985  0.00  0.00    -0.162 F 
ENDBRANCH   1  19
TORSDOF 3
ENDMDL
MODEL 6
REMARK VINA RESULT:     -10.3      1.839      2.996
REMARK  3 active torsions:
REMARK  status: ('A' for Active; 'I' for Inactive)
REMARK    1  A    between atoms: C_6  and  C_1 
REMARK    2  A    between atoms: C_8  and  C_3 
REMARK    3  A    between atoms: C_9  and  C_4 
ROOT
ATOM      1  C   UNL d   1      53.261  34.187  54.095  0.00  0.00     0.306 A 
ATOM      2  N   UNL d   1      53.856  34.419  54.609  0.00  0.00    -0.152 NA
ATOM      3  C   UNL d   1      53.197  33.397  53.866  0.00  0.00     0.114 A 
ATOM      4  C   UNL d   1      53.727  32.834  54.149  0.00  0.00     0.094 A 
ATOM      5  C   UNL d   1      54.387  33.864  54.894  0.00  0.00     0.371 A 
ATOM      6  N   UNL d   1      54.322  33.074  54.665  0.00  0.00    -0.191 NA
ATOM      7  O   UNL d   1      54.989  34.093  55.413  0.00  0.00    -0.242 OA
ATOM      8  O   UNL d   1      52.662  33.953  53.578  0.00  0.00    -0.266 OA
ENDROOT
BRANCH   4   9
ATOM      9  C   UNL d   1      53.663  32.048  53.920  0.00  0.00     0.018 A 
ATOM     10  C   UNL d   1      53.249  31.512  54.391  0.00  0.00     0.004 A 
ATOM     11  C   UNL d   1      53.184  30.717  54.160  0.00  0.00     0.030 A 
ATOM     12  C   UNL d   1      53.532  30.463  53.463  0.00  0.00     0.140 A 
ATOM     13  C   UNL d   1      53.951  31.005  52.987  0.00  0.00     0.030 A 
ATOM     14  F   UNL d   1      53.468  29.677  53.235  0.00  0.00    -0.204 F 
ATOM     15  C   UNL d   1      54.010  31.790  53.222  0.00  0.00     0.004 A 
ENDBRANCH   4   9
BRANCH   3  16
ATOM     16  C   UNL d   1      52.598  33.167  53.350  0.00  0.00     0.202 C 
ATOM     17  O   UNL d   1      52.743  33.110  52.535  0.00  0.00    -0.286 OA
ATOM     18  C   UNL d   1      51.844  32.988  53.643  0.00  0.00     0.045 C 
ENDBRANCH   3  16
BRANCH   1  19
ATOM     19  C   UNL d   1      53.151  34.999  54.195  0.00  0.00     0.470 C 
ATOM     20  F   UNL d   1      53.064  35.733  54.267  0.00  0.00    -0.162 F 
ATOM     21  F   UNL d   1      53.439  35.642  53.696  0.00  0.00    -0.162 F 
ATOM     22  F   UNL d   1      52.731  35.424  54.809  0.00  0.00    -0.162 F 
ENDBRANCH   1  19
TORSDOF 3
ENDMDL
