MODEL 1
REMARK VINA RESULT:      54.3      0.000      0.000
REMARK  9 active torsions:
REMARK  status: ('A' for Active; 'I' for Inactive)
REMARK    1  A    between atoms: C_10  and  N_1 
REMARK    2  A    between atoms: S_13  and  C_2 
REMARK    3  A    between atoms: C_6  and  N_11 
REMARK    4  A    between atoms: C_24  and  C_10 
REMARK       I    between atoms: N_11  and  C_15 
REMARK    5  A    between atoms: C_21  and  S_13 
REMARK    6  A    between atoms: C_15  and  C_21 
REMARK    7  A    between atoms: O_27  and  C_17 
REMARK    8  A    between atoms: O_28  and  C_18 
REMARK    9  A    between atoms: C_23  and  C_24 
ROOT
ATOM      1  N   UNL d   1      46.211 -17.486  43.274  0.00  0.00    -0.253 N 
ATOM      2  C   UNL d   1      46.189 -17.912  42.578  0.00  0.00     0.182 A 
ATOM      3  C   UNL d   1      46.332 -17.873  44.001  0.00  0.00     0.268 A 
ATOM      4  N   UNL d   1      46.287 -18.735  42.590  0.00  0.00    -0.222 NA
ATOM      5  C   UNL d   1      46.429 -18.697  44.006  0.00  0.00     0.074 A 
ATOM      6  C   UNL d   1      46.407 -19.122  43.310  0.00  0.00     0.088 A 
ATOM      7  O   UNL d   1      46.354 -17.449  44.695  0.00  0.00    -0.267 OA
ATOM      8  C   UNL d   1      46.550 -19.086  44.735  0.00  0.00     0.006 A 
ATOM      9  C   UNL d   1      46.506 -19.948  43.324  0.00  0.00     0.019 A 
ATOM     10  C   UNL d   1      46.647 -19.905  44.737  0.00  0.00     0.000 A 
ATOM     11  C   UNL d   1      46.625 -20.330  44.041  0.00  0.00     0.002 A 
ENDROOT
BRANCH   1  12
ATOM     12  C   UNL d   1      46.112 -16.655  43.264  0.00  0.00     0.085 C 
BRANCH  12  13
ATOM     13  C   UNL d   1      46.051 -16.235  43.972  0.00  0.00     0.019 C 
BRANCH  13  14
ATOM     14  C   UNL d   1      45.854 -15.433  43.961  0.00  0.00     0.004 A 
ATOM     15  C   UNL d   1      45.264 -15.145  44.461  0.00  0.00     0.026 A 
ATOM     16  C   UNL d   1      45.065 -14.353  44.453  0.00  0.00     0.116 A 
ATOM     17  C   UNL d   1      45.461 -13.831  43.938  0.00  0.00     0.116 A 
ATOM     18  C   UNL d   1      46.054 -14.129  43.438  0.00  0.00     0.026 A 
ATOM     19  C   UNL d   1      46.247 -14.928  43.452  0.00  0.00     0.002 A 
BRANCH  16  20
ATOM     20  O   UNL d   1      44.477 -14.066  44.951  0.00  0.00    -0.326 OA
ATOM     21  C   UNL d   1      43.695 -14.102  44.725  0.00  0.00     0.181 C 
ENDBRANCH  16  20
BRANCH  17  22
ATOM     22  O   UNL d   1      45.270 -13.042  43.925  0.00  0.00    -0.326 OA
ATOM     23  C   UNL d   1      45.741 -12.497  43.521  0.00  0.00     0.181 C 
ENDBRANCH  17  22
ENDBRANCH  13  14
ENDBRANCH  12  13
ENDBRANCH   1  12
BRANCH   2  24
ATOM     24  S   UNL d   1      46.068 -17.522  41.845  0.00  0.00    -0.044 SA
BRANCH  24  25
ATOM     25  C   UNL d   1      46.346 -17.857  41.140  0.00  0.00     0.101 C 
BRANCH  25  26
ATOM     26  C   UNL d   1      45.884 -17.816  40.460  0.00  0.00     0.287 C 
ATOM     27  N   UNL d   1      45.826 -17.118  40.044  0.00  0.00    -0.186 NA
ATOM     28  O   UNL d   1      45.478 -18.486  40.200  0.00  0.00    -0.265 OA
BRANCH  27  29
ATOM     29  C   UNL d   1      45.364 -17.077  39.365  0.00  0.00     0.194 A 
ATOM     30  N   UNL d   1      44.632 -17.446  39.242  0.00  0.00    -0.107 NA
ATOM     31  O   UNL d   1      44.367 -17.257  38.488  0.00  0.00    -0.210 OA
ATOM     32  C   UNL d   1      44.929 -16.769  38.130  0.00  0.00     0.128 A 
ATOM     33  C   UNL d   1      45.542 -16.658  38.671  0.00  0.00     0.068 A 
ATOM     34  C   UNL d   1      44.880 -16.454  37.376  0.00  0.00     0.029 C 
ENDBRANCH  27  29
ENDBRANCH  25  26
ENDBRANCH  24  25
ENDBRANCH   2  24
TORSDOF 9
ENDMDL
