MODEL 1
REMARK VINA RESULT:      84.9      0.000      0.000
REMARK  5 active torsions:
REMARK  status: ('A' for Active; 'I' for Inactive)
REMARK    1  A    between atoms: C_4  and  C_1 
REMARK    2  A    between atoms: C_10  and  C_2 
REMARK    3  A    between atoms: C_8  and  C_4 
REMARK    4  A    between atoms: C_9  and  C_4 
REMARK    5  A    between atoms: N_5  and  C_9 
ROOT
ATOM      1  C   UNL d   1     -51.066  25.578  33.922  0.00  0.00     0.023 A 
ATOM      2  C   UNL d   1     -50.259  25.745  33.798  0.00  0.00     0.081 A 
ATOM      3  N   UNL d   1     -49.892  25.056  33.551  0.00  0.00    -0.246 NA
ATOM      4  C   UNL d   1     -51.190  24.782  33.748  0.00  0.00     0.019 A 
ATOM      5  C   UNL d   1     -50.465  24.451  33.518  0.00  0.00     0.081 A 
ATOM      6  C   UNL d   1     -51.865  24.310  33.769  0.00  0.00     0.002 A 
ATOM      7  C   UNL d   1     -50.411  23.660  33.310  0.00  0.00     0.019 A 
ATOM      8  C   UNL d   1     -51.814  23.515  33.560  0.00  0.00     0.000 A 
ATOM      9  C   UNL d   1     -51.100  23.189  33.333  0.00  0.00     0.002 A 
ENDROOT
BRANCH   1  10
ATOM     10  C   UNL d   1     -51.647  26.114  34.174  0.00  0.00     0.048 C 
BRANCH  10  11
ATOM     11  C   UNL d   1     -51.965  26.058  34.926  0.00  0.00     0.102 A 
ATOM     12  O   UNL d   1     -51.611  26.315  35.631  0.00  0.00    -0.305 OA
ATOM     13  C   UNL d   1     -52.128  26.147  36.244  0.00  0.00     0.123 A 
ATOM     14  C   UNL d   1     -52.810  25.782  35.927  0.00  0.00     0.029 A 
ATOM     15  C   UNL d   1     -52.699  25.733  35.120  0.00  0.00     0.027 A 
ENDBRANCH  10  11
BRANCH  10  16
ATOM     16  C   UNL d   1     -51.903  26.711  33.655  0.00  0.00     0.150 C 
BRANCH  16  17
ATOM     17  N   UNL d   1     -52.712  26.839  33.553  0.00  0.00    -0.112 N 
ATOM     18  O   UNL d   1     -53.259  26.234  33.688  0.00  0.00    -0.532 OA
ATOM     19  O   UNL d   1     -52.997  27.591  33.309  0.00  0.00    -0.532 OA
ENDBRANCH  16  17
ENDBRANCH  10  16
ENDBRANCH   1  10
BRANCH   2  20
ATOM     20  C   UNL d   1     -49.895  26.477  33.906  0.00  0.00     0.018 A 
ATOM     21  C   UNL d   1     -49.930  27.057  33.308  0.00  0.00     0.002 A 
ATOM     22  C   UNL d   1     -49.567  27.790  33.413  0.00  0.00     0.000 A 
ATOM     23  C   UNL d   1     -49.164  27.954  34.116  0.00  0.00     0.000 A 
ATOM     24  C   UNL d   1     -49.125  27.381  34.717  0.00  0.00     0.000 A 
ATOM     25  C   UNL d   1     -48.803  28.684  34.220  0.00  0.00     0.000 C 
ATOM     26  C   UNL d   1     -49.493  26.643  34.605  0.00  0.00     0.002 A 
ENDBRANCH   2  20
TORSDOF 5
ENDMDL
MODEL 2
REMARK VINA RESULT:      86.7      1.570      3.825
REMARK  5 active torsions:
REMARK  status: ('A' for Active; 'I' for Inactive)
REMARK    1  A    between atoms: C_4  and  C_1 
REMARK    2  A    between atoms: C_10  and  C_2 
REMARK    3  A    between atoms: C_8  and  C_4 
REMARK    4  A    between atoms: C_9  and  C_4 
REMARK    5  A    between atoms: N_5  and  C_9 
ROOT
ATOM      1  C   UNL d   1     -51.512  25.703  34.791  0.00  0.00     0.023 A 
ATOM      2  C   UNL d   1     -52.174  25.282  35.074  0.00  0.00     0.081 A 
ATOM      3  N   UNL d   1     -52.283  25.479  35.860  0.00  0.00    -0.246 NA
ATOM      4  C   UNL d   1     -51.219  26.160  35.412  0.00  0.00     0.019 A 
ATOM      5  C   UNL d   1     -51.693  26.025  36.079  0.00  0.00     0.081 A 
ATOM      6  C   UNL d   1     -50.583  26.681  35.461  0.00  0.00     0.002 A 
ATOM      7  C   UNL d   1     -51.537  26.405  36.788  0.00  0.00     0.019 A 
ATOM      8  C   UNL d   1     -50.424  27.064  36.173  0.00  0.00     0.000 A 
ATOM      9  C   UNL d   1     -50.891  26.932  36.831  0.00  0.00     0.002 A 
ENDROOT
BRANCH   1  10
ATOM     10  C   UNL d   1     -51.201  25.673  34.023  0.00  0.00     0.048 C 
BRANCH  10  11
ATOM     11  C   UNL d   1     -50.597  25.150  33.840  0.00  0.00     0.102 A 
ATOM     12  O   UNL d   1     -50.519  24.373  34.120  0.00  0.00    -0.305 OA
ATOM     13  C   UNL d   1     -49.835  24.060  33.793  0.00  0.00     0.123 A 
ATOM     14  C   UNL d   1     -49.481  24.641  33.306  0.00  0.00     0.029 A 
ATOM     15  C   UNL d   1     -49.956  25.302  33.343  0.00  0.00     0.027 A 
ENDBRANCH  10  11
BRANCH  10  16
ATOM     16  C   UNL d   1     -51.506  26.179  33.439  0.00  0.00     0.150 C 
BRANCH  16  17
ATOM     17  N   UNL d   1     -51.188  26.936  33.352  0.00  0.00    -0.112 N 
ATOM     18  O   UNL d   1     -51.678  27.601  33.307  0.00  0.00    -0.532 OA
ATOM     19  O   UNL d   1     -50.356  27.047  33.308  0.00  0.00    -0.532 OA
ENDBRANCH  16  17
ENDBRANCH  10  16
ENDBRANCH   1  10
BRANCH   2  20
ATOM     20  C   UNL d   1     -52.636  24.758  34.635  0.00  0.00     0.018 A 
ATOM     21  C   UNL d   1     -52.933  24.981  33.890  0.00  0.00     0.002 A 
ATOM     22  C   UNL d   1     -53.395  24.460  33.448  0.00  0.00     0.000 A 
ATOM     23  C   UNL d   1     -53.567  23.708  33.746  0.00  0.00     0.000 A 
ATOM     24  C   UNL d   1     -53.274  23.477  34.489  0.00  0.00     0.000 A 
ATOM     25  C   UNL d   1     -54.027  23.189  33.307  0.00  0.00     0.000 C 
ATOM     26  C   UNL d   1     -52.808  24.009  34.929  0.00  0.00     0.002 A 
ENDBRANCH   2  20
TORSDOF 5
ENDMDL
