MODEL 1
REMARK VINA RESULT:      58.4      0.000      0.000
REMARK  3 active torsions:
REMARK  status: ('A' for Active; 'I' for Inactive)
REMARK    1  A    between atoms: C_11  and  C_8 
REMARK       I    between atoms: N_14  and  C_11 
REMARK    2  A    between atoms: C_20  and  N_14 
REMARK    3  A    between atoms: C_21  and  C_20 
ROOT
ATOM      1  C   UNL d   1     -54.732-101.486 -41.051  0.00  0.00     0.154 A 
ATOM      2  C   UNL d   1     -54.727-100.763 -40.654  0.00  0.00     0.093 A 
ATOM      3  N   UNL d   1     -54.733-102.194 -40.618  0.00  0.00    -0.210 NA
ATOM      4  N   UNL d   1     -54.724-101.453 -39.398  0.00  0.00    -0.258 N 
ATOM      5  C   UNL d   1     -54.723-100.748 -39.824  0.00  0.00     0.269 A 
ATOM      6  N   UNL d   1     -54.735-101.337 -41.859  0.00  0.00    -0.285 N 
ATOM      7  C   UNL d   1     -54.730-102.176 -39.795  0.00  0.00     0.152 A 
ATOM      8  C   UNL d   1     -54.731-100.523 -41.967  0.00  0.00     0.124 A 
ATOM      9  C   UNL d   1     -54.726-100.169 -41.217  0.00  0.00     0.030 A 
ATOM     10  C   UNL d   1     -54.721-101.434 -38.575  0.00  0.00     0.084 A 
ATOM     11  C   UNL d   1     -54.731-102.880 -39.369  0.00  0.00     0.038 A 
ATOM     12  C   UNL d   1     -54.722-102.139 -38.149  0.00  0.00     0.018 A 
ATOM     13  C   UNL d   1     -54.728-102.862 -38.546  0.00  0.00     0.005 A 
ATOM     14  O   UNL d   1     -54.718-100.025 -39.427  0.00  0.00    -0.266 OA
ATOM     15  C   UNL d   1     -54.740-101.904 -42.464  0.00  0.00     0.101 C 
ATOM     16  C   UNL d   1     -54.719-102.126 -37.315  0.00  0.00     0.002 C 
ENDROOT
BRANCH   8  17
ATOM     17  C   UNL d   1     -54.732-100.129 -42.692  0.00  0.00     0.295 C 
ATOM     18  N   UNL d   1     -54.749-100.565 -43.395  0.00  0.00    -0.203 NA
ATOM     19  O   UNL d   1     -54.717 -99.307 -42.720  0.00  0.00    -0.264 OA
BRANCH  18  20
ATOM     20  C   UNL d   1     -54.751-100.175 -44.122  0.00  0.00     0.127 C 
BRANCH  20  21
ATOM     21  C   UNL d   1     -55.452 -99.864 -44.421  0.00  0.00     0.119 A 
ATOM     22  O   UNL d   1     -56.059-100.199 -44.880  0.00  0.00    -0.304 OA
ATOM     23  C   UNL d   1     -56.627 -99.615 -45.013  0.00  0.00     0.123 A 
ATOM     24  C   UNL d   1     -56.383 -98.925 -44.645  0.00  0.00     0.029 A 
ATOM     25  C   UNL d   1     -55.653 -99.073 -44.275  0.00  0.00     0.028 A 
ENDBRANCH  20  21
ENDBRANCH  18  20
ENDBRANCH   8  17
TORSDOF 3
ENDMDL
