MODEL 1
REMARK VINA RESULT:      -7.4      0.000      0.000
REMARK  4 active torsions:
REMARK  status: ('A' for Active; 'I' for Inactive)
REMARK    1  A    between atoms: C_6  and  C_1 
REMARK    2  A    between atoms: C_8  and  N_3 
REMARK    3  A    between atoms: C_9  and  C_6 
REMARK    4  A    between atoms: N_7  and  C_9 
ROOT
ATOM      1  C   UNL d   1     -47.651  12.473  23.359  0.00  0.00     0.058 A 
ATOM      2  C   UNL d   1     -47.919  13.179  23.071  0.00  0.00     0.067 A 
ATOM      3  N   UNL d   1     -48.728  13.191  23.072  0.00  0.00    -0.306 N 
ATOM      4  C   UNL d   1     -48.938  12.479  23.364  0.00  0.00     0.064 A 
ATOM      5  C   UNL d   1     -48.236  12.034  23.542  0.00  0.00     0.022 A 
ATOM      6  C   UNL d   1     -47.427  13.792  22.818  0.00  0.00     0.019 C 
ATOM      7  C   UNL d   1     -49.684  12.245  23.464  0.00  0.00     0.019 C 
ENDROOT
BRANCH   1   8
ATOM      8  C   UNL d   1     -46.838  12.228  23.454  0.00  0.00     0.214 C 
ATOM      9  O   UNL d   1     -46.274  12.755  23.670  0.00  0.00    -0.285 OA
BRANCH   8  10
ATOM     10  C   UNL d   1     -46.579  11.409  23.326  0.00  0.00     0.123 C 
BRANCH  10  11
ATOM     11  N   UNL d   1     -45.785  11.179  23.331  0.00  0.00    -0.300 N 
ATOM     12  C   UNL d   1     -45.192  11.621  22.987  0.00  0.00     0.080 A 
ATOM     13  C   UNL d   1     -44.354  11.373  22.994  0.00  0.00     0.019 A 
ATOM     14  C   UNL d   1     -44.179  10.717  23.338  0.00  0.00     0.003 A 
ATOM     15  C   UNL d   1     -44.780  10.249  23.698  0.00  0.00     0.019 A 
ATOM     16  C   UNL d   1     -43.362  10.486  23.339  0.00  0.00     0.000 C 
ATOM     17  C   UNL d   1     -45.577  10.476  23.696  0.00  0.00     0.080 A 
ENDBRANCH  10  11
ENDBRANCH   8  10
ENDBRANCH   1   8
BRANCH   3  18
ATOM     18  C   UNL d   1     -49.305  13.749  22.847  0.00  0.00     0.064 A 
ATOM     19  C   UNL d   1     -49.790  13.651  22.239  0.00  0.00     0.020 A 
ATOM     20  C   UNL d   1     -50.393  14.236  22.005  0.00  0.00     0.031 A 
ATOM     21  C   UNL d   1     -50.462  14.894  22.417  0.00  0.00     0.140 A 
ATOM     22  C   UNL d   1     -49.978  15.029  23.051  0.00  0.00     0.031 A 
ATOM     23  F   UNL d   1     -51.063  15.482  22.186  0.00  0.00    -0.204 F 
ATOM     24  C   UNL d   1     -49.409  14.444  23.247  0.00  0.00     0.020 A 
ENDBRANCH   3  18
TORSDOF 4
ENDMDL
MODEL 2
REMARK VINA RESULT:      -6.4      2.138      5.445
REMARK  4 active torsions:
REMARK  status: ('A' for Active; 'I' for Inactive)
REMARK    1  A    between atoms: C_6  and  C_1 
REMARK    2  A    between atoms: C_8  and  N_3 
REMARK    3  A    between atoms: C_9  and  C_6 
REMARK    4  A    between atoms: N_7  and  C_9 
ROOT
ATOM      1  C   UNL d   1     -47.016  13.028  22.891  0.00  0.00     0.058 A 
ATOM      2  C   UNL d   1     -46.743  12.336  23.207  0.00  0.00     0.067 A 
ATOM      3  N   UNL d   1     -45.975  12.214  22.987  0.00  0.00    -0.306 N 
ATOM      4  C   UNL d   1     -45.792  12.845  22.535  0.00  0.00     0.064 A 
ATOM      5  C   UNL d   1     -46.471  13.355  22.485  0.00  0.00     0.022 A 
ATOM      6  C   UNL d   1     -47.195  11.835  23.682  0.00  0.00     0.019 C 
ATOM      7  C   UNL d   1     -45.089  12.960  22.198  0.00  0.00     0.019 C 
ENDROOT
BRANCH   1   8
ATOM      8  C   UNL d   1     -47.794  13.367  22.981  0.00  0.00     0.214 C 
ATOM      9  O   UNL d   1     -48.361  12.986  23.402  0.00  0.00    -0.285 OA
BRANCH   8  10
ATOM     10  C   UNL d   1     -48.015  14.130  22.631  0.00  0.00     0.123 C 
BRANCH  10  11
ATOM     11  N   UNL d   1     -48.767  14.465  22.710  0.00  0.00    -0.300 N 
ATOM     12  C   UNL d   1     -49.446  14.098  22.445  0.00  0.00     0.080 A 
ATOM     13  C   UNL d   1     -50.239  14.456  22.530  0.00  0.00     0.019 A 
ATOM     14  C   UNL d   1     -50.289  15.138  22.866  0.00  0.00     0.003 A 
ATOM     15  C   UNL d   1     -49.597  15.528  23.145  0.00  0.00     0.019 A 
ATOM     16  C   UNL d   1     -51.064  15.475  22.944  0.00  0.00     0.000 C 
ATOM     17  C   UNL d   1     -48.841  15.197  23.068  0.00  0.00     0.080 A 
ENDBRANCH  10  11
ENDBRANCH   8  10
ENDBRANCH   1   8
BRANCH   3  18
ATOM     18  C   UNL d   1     -45.411  11.616  23.135  0.00  0.00     0.064 A 
ATOM     19  C   UNL d   1     -44.663  11.660  22.908  0.00  0.00     0.020 A 
ATOM     20  C   UNL d   1     -44.075  11.034  23.063  0.00  0.00     0.031 A 
ATOM     21  C   UNL d   1     -44.298  10.393  23.448  0.00  0.00     0.140 A 
ATOM     22  C   UNL d   1     -45.063  10.314  23.698  0.00  0.00     0.031 A 
ATOM     23  F   UNL d   1     -43.714   9.765  23.606  0.00  0.00    -0.204 F 
ATOM     24  C   UNL d   1     -45.601  10.936  23.531  0.00  0.00     0.020 A 
ENDBRANCH   3  18
TORSDOF 4
ENDMDL
MODEL 3
REMARK VINA RESULT:      -6.3      1.737      2.454
REMARK  4 active torsions:
REMARK  status: ('A' for Active; 'I' for Inactive)
REMARK    1  A    between atoms: C_6  and  C_1 
REMARK    2  A    between atoms: C_8  and  N_3 
REMARK    3  A    between atoms: C_9  and  C_6 
REMARK    4  A    between atoms: N_7  and  C_9 
ROOT
ATOM      1  C   UNL d   1     -46.697  13.111  22.492  0.00  0.00     0.058 A 
ATOM      2  C   UNL d   1     -47.226  12.630  22.868  0.00  0.00     0.067 A 
ATOM      3  N   UNL d   1     -47.982  12.857  22.691  0.00  0.00    -0.306 N 
ATOM      4  C   UNL d   1     -47.895  13.483  22.204  0.00  0.00     0.064 A 
ATOM      5  C   UNL d   1     -47.065  13.631  22.089  0.00  0.00     0.022 A 
ATOM      6  C   UNL d   1     -47.012  12.001  23.357  0.00  0.00     0.019 C 
ATOM      7  C   UNL d   1     -48.495  13.887  21.891  0.00  0.00     0.019 C 
ENDROOT
BRANCH   1   8
ATOM      8  C   UNL d   1     -45.844  13.068  22.525  0.00  0.00     0.214 C 
ATOM      9  O   UNL d   1     -45.431  13.521  23.042  0.00  0.00    -0.285 OA
BRANCH   8  10
ATOM     10  C   UNL d   1     -45.382  12.542  22.011  0.00  0.00     0.123 C 
BRANCH  10  11
ATOM     11  N   UNL d   1     -44.583  12.664  21.838  0.00  0.00    -0.300 N 
ATOM     12  C   UNL d   1     -44.315  13.297  21.399  0.00  0.00     0.080 A 
ATOM     13  C   UNL d   1     -43.469  13.422  21.219  0.00  0.00     0.019 A 
ATOM     14  C   UNL d   1     -42.969  12.913  21.486  0.00  0.00     0.003 A 
ATOM     15  C   UNL d   1     -43.230  12.255  21.940  0.00  0.00     0.019 A 
ATOM     16  C   UNL d   1     -42.149  13.045  21.304  0.00  0.00     0.000 C 
ATOM     17  C   UNL d   1     -44.030  12.128  22.116  0.00  0.00     0.080 A 
ENDBRANCH  10  11
ENDBRANCH   8  10
ENDBRANCH   1   8
BRANCH   3  18
ATOM     18  C   UNL d   1     -48.740  12.584  22.905  0.00  0.00     0.064 A 
ATOM     19  C   UNL d   1     -49.172  12.903  23.475  0.00  0.00     0.020 A 
ATOM     20  C   UNL d   1     -49.965  12.615  23.698  0.00  0.00     0.031 A 
ATOM     21  C   UNL d   1     -50.269  12.009  23.314  0.00  0.00     0.140 A 
ATOM     22  C   UNL d   1     -49.851  11.654  22.719  0.00  0.00     0.031 A 
ATOM     23  F   UNL d   1     -51.061  11.718  23.533  0.00  0.00    -0.204 F 
ATOM     24  C   UNL d   1     -49.091  11.957  22.532  0.00  0.00     0.020 A 
ENDBRANCH   3  18
TORSDOF 4
ENDMDL
MODEL 4
REMARK VINA RESULT:      -6.1      9.189     10.375
REMARK  4 active torsions:
REMARK  status: ('A' for Active; 'I' for Inactive)
REMARK    1  A    between atoms: C_6  and  C_1 
REMARK    2  A    between atoms: C_8  and  N_3 
REMARK    3  A    between atoms: C_9  and  C_6 
REMARK    4  A    between atoms: N_7  and  C_9 
ROOT
ATOM      1  C   UNL d   1     -39.312  14.977  19.147  0.00  0.00     0.058 A 
ATOM      2  C   UNL d   1     -38.749  14.826  18.587  0.00  0.00     0.067 A 
ATOM      3  N   UNL d   1     -39.096  14.729  17.863  0.00  0.00    -0.306 N 
ATOM      4  C   UNL d   1     -39.876  14.825  18.000  0.00  0.00     0.064 A 
ATOM      5  C   UNL d   1     -39.995  14.982  18.827  0.00  0.00     0.022 A 
ATOM      6  C   UNL d   1     -37.940  14.781  18.746  0.00  0.00     0.019 C 
ATOM      7  C   UNL d   1     -40.432  14.776  17.444  0.00  0.00     0.019 C 
ENDROOT
BRANCH   1   8
ATOM      8  C   UNL d   1     -39.188  15.114  19.981  0.00  0.00     0.214 C 
ATOM      9  O   UNL d   1     -38.627  15.628  20.233  0.00  0.00    -0.285 OA
BRANCH   8  10
ATOM     10  C   UNL d   1     -39.654  14.712  20.595  0.00  0.00     0.123 C 
BRANCH  10  11
ATOM     11  N   UNL d   1     -39.372  14.573  21.359  0.00  0.00    -0.300 N 
ATOM     12  C   UNL d   1     -39.351  15.148  21.937  0.00  0.00     0.080 A 
ATOM     13  C   UNL d   1     -39.053  14.996  22.744  0.00  0.00     0.019 A 
ATOM     14  C   UNL d   1     -38.804  14.294  22.906  0.00  0.00     0.003 A 
ATOM     15  C   UNL d   1     -38.819  13.690  22.321  0.00  0.00     0.019 A 
ATOM     16  C   UNL d   1     -38.516  14.158  23.693  0.00  0.00     0.000 C 
ATOM     17  C   UNL d   1     -39.101  13.825  21.552  0.00  0.00     0.080 A 
ENDBRANCH  10  11
ENDBRANCH   8  10
ENDBRANCH   1   8
BRANCH   3  18
ATOM     18  C   UNL d   1     -38.813  14.567  17.095  0.00  0.00     0.064 A 
ATOM     19  C   UNL d   1     -38.704  15.117  16.548  0.00  0.00     0.020 A 
ATOM     20  C   UNL d   1     -38.408  14.946  15.746  0.00  0.00     0.031 A 
ATOM     21  C   UNL d   1     -38.239  14.210  15.553  0.00  0.00     0.140 A 
ATOM     22  C   UNL d   1     -38.340  13.616  16.093  0.00  0.00     0.031 A 
ATOM     23  F   UNL d   1     -37.943  14.034  14.752  0.00  0.00    -0.204 F 
ATOM     24  C   UNL d   1     -38.627  13.817  16.856  0.00  0.00     0.020 A 
ENDBRANCH   3  18
TORSDOF 4
ENDMDL
MODEL 5
REMARK VINA RESULT:      -6.1      8.616     10.372
REMARK  4 active torsions:
REMARK  status: ('A' for Active; 'I' for Inactive)
REMARK    1  A    between atoms: C_6  and  C_1 
REMARK    2  A    between atoms: C_8  and  N_3 
REMARK    3  A    between atoms: C_9  and  C_6 
REMARK    4  A    between atoms: N_7  and  C_9 
ROOT
ATOM      1  C   UNL d   1     -39.177  15.384  17.942  0.00  0.00     0.058 A 
ATOM      2  C   UNL d   1     -39.872  15.161  18.290  0.00  0.00     0.067 A 
ATOM      3  N   UNL d   1     -39.854  15.332  19.080  0.00  0.00    -0.306 N 
ATOM      4  C   UNL d   1     -39.138  15.661  19.199  0.00  0.00     0.064 A 
ATOM      5  C   UNL d   1     -38.718  15.686  18.459  0.00  0.00     0.022 A 
ATOM      6  C   UNL d   1     -40.499  14.810  17.884  0.00  0.00     0.019 C 
ATOM      7  C   UNL d   1     -38.878  15.916  19.898  0.00  0.00     0.019 C 
ENDROOT
BRANCH   1   8
ATOM      8  C   UNL d   1     -38.961  15.306  17.119  0.00  0.00     0.214 C 
ATOM      9  O   UNL d   1     -39.423  15.620  16.543  0.00  0.00    -0.285 OA
BRANCH   8  10
ATOM     10  C   UNL d   1     -38.244  14.891  16.862  0.00  0.00     0.123 C 
BRANCH  10  11
ATOM     11  N   UNL d   1     -38.168  14.532  16.121  0.00  0.00    -0.300 N 
ATOM     12  C   UNL d   1     -38.237  13.727  16.008  0.00  0.00     0.080 A 
ATOM     13  C   UNL d   1     -38.157  13.352  15.223  0.00  0.00     0.019 A 
ATOM     14  C   UNL d   1     -38.017  13.803  14.625  0.00  0.00     0.003 A 
ATOM     15  C   UNL d   1     -37.943  14.635  14.725  0.00  0.00     0.019 A 
ATOM     16  C   UNL d   1     -37.941  13.428  13.867  0.00  0.00     0.000 C 
ATOM     17  C   UNL d   1     -38.017  15.000  15.466  0.00  0.00     0.080 A 
ENDBRANCH  10  11
ENDBRANCH   8  10
ENDBRANCH   1   8
BRANCH   3  18
ATOM     18  C   UNL d   1     -40.391  15.234  19.712  0.00  0.00     0.064 A 
ATOM     19  C   UNL d   1     -40.588  14.537  20.010  0.00  0.00     0.020 A 
ATOM     20  C   UNL d   1     -41.149  14.437  20.670  0.00  0.00     0.031 A 
ATOM     21  C   UNL d   1     -41.477  15.069  20.987  0.00  0.00     0.140 A 
ATOM     22  C   UNL d   1     -41.296  15.805  20.705  0.00  0.00     0.031 A 
ATOM     23  F   UNL d   1     -42.038  14.974  21.648  0.00  0.00    -0.204 F 
ATOM     24  C   UNL d   1     -40.752  15.864  20.068  0.00  0.00     0.020 A 
ENDBRANCH   3  18
TORSDOF 4
ENDMDL
MODEL 6
REMARK VINA RESULT:      -5.7      8.605      9.142
REMARK  4 active torsions:
REMARK  status: ('A' for Active; 'I' for Inactive)
REMARK    1  A    between atoms: C_6  and  C_1 
REMARK    2  A    between atoms: C_8  and  N_3 
REMARK    3  A    between atoms: C_9  and  C_6 
REMARK    4  A    between atoms: N_7  and  C_9 
ROOT
ATOM      1  C   UNL d   1     -39.439  14.622  19.637  0.00  0.00     0.058 A 
ATOM      2  C   UNL d   1     -39.956  15.109  19.252  0.00  0.00     0.067 A 
ATOM      3  N   UNL d   1     -40.064  14.855  18.492  0.00  0.00    -0.306 N 
ATOM      4  C   UNL d   1     -39.603  14.207  18.430  0.00  0.00     0.064 A 
ATOM      5  C   UNL d   1     -39.210  14.074  19.172  0.00  0.00     0.022 A 
ATOM      6  C   UNL d   1     -40.314  15.768  19.598  0.00  0.00     0.019 C 
ATOM      7  C   UNL d   1     -39.536  13.774  17.775  0.00  0.00     0.019 C 
ENDROOT
BRANCH   1   8
ATOM      8  C   UNL d   1     -39.169  14.687  20.445  0.00  0.00     0.214 C 
ATOM      9  O   UNL d   1     -38.517  15.118  20.626  0.00  0.00    -0.285 OA
BRANCH   8  10
ATOM     10  C   UNL d   1     -39.576  14.299  21.106  0.00  0.00     0.123 C 
BRANCH  10  11
ATOM     11  N   UNL d   1     -39.179  13.962  21.748  0.00  0.00    -0.300 N 
ATOM     12  C   UNL d   1     -38.537  13.466  21.663  0.00  0.00     0.080 A 
ATOM     13  C   UNL d   1     -38.120  13.112  22.344  0.00  0.00     0.019 A 
ATOM     14  C   UNL d   1     -38.374  13.279  23.043  0.00  0.00     0.003 A 
ATOM     15  C   UNL d   1     -39.035  13.789  23.148  0.00  0.00     0.019 A 
ATOM     16  C   UNL d   1     -37.961  12.929  23.698  0.00  0.00     0.000 C 
ATOM     17  C   UNL d   1     -39.436  14.129  22.507  0.00  0.00     0.080 A 
ENDBRANCH  10  11
ENDBRANCH   8  10
ENDBRANCH   1   8
BRANCH   3  18
ATOM     18  C   UNL d   1     -40.519  15.121  17.846  0.00  0.00     0.064 A 
ATOM     19  C   UNL d   1     -40.242  15.594  17.286  0.00  0.00     0.020 A 
ATOM     20  C   UNL d   1     -40.719  15.871  16.610  0.00  0.00     0.031 A 
ATOM     21  C   UNL d   1     -41.462  15.642  16.551  0.00  0.00     0.140 A 
ATOM     22  C   UNL d   1     -41.781  15.154  17.111  0.00  0.00     0.031 A 
ATOM     23  F   UNL d   1     -41.942  15.917  15.878  0.00  0.00    -0.204 F 
ATOM     24  C   UNL d   1     -41.293  14.907  17.748  0.00  0.00     0.020 A 
ENDBRANCH   3  18
TORSDOF 4
ENDMDL
MODEL 7
REMARK VINA RESULT:      -5.6      8.610      9.847
REMARK  4 active torsions:
REMARK  status: ('A' for Active; 'I' for Inactive)
REMARK    1  A    between atoms: C_6  and  C_1 
REMARK    2  A    between atoms: C_8  and  N_3 
REMARK    3  A    between atoms: C_9  and  C_6 
REMARK    4  A    between atoms: N_7  and  C_9 
ROOT
ATOM      1  C   UNL d   1     -39.902  14.582  19.791  0.00  0.00     0.058 A 
ATOM      2  C   UNL d   1     -39.522  13.993  20.192  0.00  0.00     0.067 A 
ATOM      3  N   UNL d   1     -39.446  14.193  20.972  0.00  0.00    -0.306 N 
ATOM      4  C   UNL d   1     -39.786  14.911  21.029  0.00  0.00     0.064 A 
ATOM      5  C   UNL d   1     -40.073  15.144  20.263  0.00  0.00     0.022 A 
ATOM      6  C   UNL d   1     -39.256  13.293  19.844  0.00  0.00     0.019 C 
ATOM      7  C   UNL d   1     -39.840  15.324  21.699  0.00  0.00     0.019 C 
ENDROOT
BRANCH   1   8
ATOM      8  C   UNL d   1     -40.097  14.599  18.959  0.00  0.00     0.214 C 
ATOM      9  O   UNL d   1     -40.341  13.935  18.582  0.00  0.00    -0.285 OA
BRANCH   8  10
ATOM     10  C   UNL d   1     -40.044  15.322  18.481  0.00  0.00     0.123 C 
BRANCH  10  11
ATOM     11  N   UNL d   1     -40.524  15.468  17.825  0.00  0.00    -0.300 N 
ATOM     12  C   UNL d   1     -41.286  15.753  17.886  0.00  0.00     0.080 A 
ATOM     13  C   UNL d   1     -41.790  15.906  17.189  0.00  0.00     0.019 A 
ATOM     14  C   UNL d   1     -41.498  15.766  16.500  0.00  0.00     0.003 A 
ATOM     15  C   UNL d   1     -40.714  15.472  16.420  0.00  0.00     0.019 A 
ATOM     16  C   UNL d   1     -41.998  15.918  15.830  0.00  0.00     0.000 C 
ATOM     17  C   UNL d   1     -40.228  15.324  17.075  0.00  0.00     0.080 A 
ENDBRANCH  10  11
ENDBRANCH   8  10
ENDBRANCH   1   8
BRANCH   3  18
ATOM     18  C   UNL d   1     -39.113  13.822  21.642  0.00  0.00     0.064 A 
ATOM     19  C   UNL d   1     -39.524  13.634  22.282  0.00  0.00     0.020 A 
ATOM     20  C   UNL d   1     -39.174  13.246  22.981  0.00  0.00     0.031 A 
ATOM     21  C   UNL d   1     -38.414  13.074  22.978  0.00  0.00     0.140 A 
ATOM     22  C   UNL d   1     -37.960  13.254  22.334  0.00  0.00     0.031 A 
ATOM     23  F   UNL d   1     -38.061  12.686  23.675  0.00  0.00    -0.204 F 
ATOM     24  C   UNL d   1     -38.329  13.627  21.679  0.00  0.00     0.020 A 
ENDBRANCH   3  18
TORSDOF 4
ENDMDL
MODEL 8
REMARK VINA RESULT:      -5.4      2.250      5.332
REMARK  4 active torsions:
REMARK  status: ('A' for Active; 'I' for Inactive)
REMARK    1  A    between atoms: C_6  and  C_1 
REMARK    2  A    between atoms: C_8  and  N_3 
REMARK    3  A    between atoms: C_9  and  C_6 
REMARK    4  A    between atoms: N_7  and  C_9 
ROOT
ATOM      1  C   UNL d   1     -47.036  13.485  22.950  0.00  0.00     0.058 A 
ATOM      2  C   UNL d   1     -46.315  13.627  22.615  0.00  0.00     0.067 A 
ATOM      3  N   UNL d   1     -45.868  12.953  22.623  0.00  0.00    -0.306 N 
ATOM      4  C   UNL d   1     -46.335  12.406  22.969  0.00  0.00     0.064 A 
ATOM      5  C   UNL d   1     -47.079  12.765  23.171  0.00  0.00     0.022 A 
ATOM      6  C   UNL d   1     -46.082  14.358  22.312  0.00  0.00     0.019 C 
ATOM      7  C   UNL d   1     -46.122  11.657  23.094  0.00  0.00     0.019 C 
ENDROOT
BRANCH   1   8
ATOM      8  C   UNL d   1     -47.677  14.041  23.055  0.00  0.00     0.214 C 
ATOM      9  O   UNL d   1     -47.532  14.792  23.295  0.00  0.00    -0.285 OA
BRANCH   8  10
ATOM     10  C   UNL d   1     -48.507  13.831  22.910  0.00  0.00     0.123 C 
BRANCH  10  11
ATOM     11  N   UNL d   1     -49.140  14.329  23.095  0.00  0.00    -0.300 N 
ATOM     12  C   UNL d   1     -49.138  15.129  22.934  0.00  0.00     0.080 A 
ATOM     13  C   UNL d   1     -49.810  15.651  23.132  0.00  0.00     0.019 A 
ATOM     14  C   UNL d   1     -50.418  15.339  23.469  0.00  0.00     0.003 A 
ATOM     15  C   UNL d   1     -50.435  14.515  23.641  0.00  0.00     0.019 A 
ATOM     16  C   UNL d   1     -51.064  15.857  23.656  0.00  0.00     0.000 C 
ATOM     17  C   UNL d   1     -49.802  14.012  23.457  0.00  0.00     0.080 A 
ENDBRANCH  10  11
ENDBRANCH   8  10
ENDBRANCH   1   8
BRANCH   3  18
ATOM     18  C   UNL d   1     -45.100  12.757  22.364  0.00  0.00     0.064 A 
ATOM     19  C   UNL d   1     -44.668  12.186  22.681  0.00  0.00     0.020 A 
ATOM     20  C   UNL d   1     -43.864  11.982  22.409  0.00  0.00     0.031 A 
ATOM     21  C   UNL d   1     -43.550  12.385  21.820  0.00  0.00     0.140 A 
ATOM     22  C   UNL d   1     -43.968  12.982  21.469  0.00  0.00     0.031 A 
ATOM     23  F   UNL d   1     -42.748  12.185  21.545  0.00  0.00    -0.204 F 
ATOM     24  C   UNL d   1     -44.738  13.150  21.756  0.00  0.00     0.020 A 
ENDBRANCH   3  18
TORSDOF 4
ENDMDL
