MODEL 1
REMARK VINA RESULT:      80.1      0.000      0.000
REMARK  5 active torsions:
REMARK  status: ('A' for Active; 'I' for Inactive)
REMARK    1  A    between atoms: S_5  and  C_2 
REMARK    2  A    between atoms: C_16  and  S_5 
REMARK    3  A    between atoms: N_13  and  C_10 
REMARK    4  A    between atoms: C_23  and  N_13 
REMARK    5  A    between atoms: C_18  and  C_23 
ROOT
ATOM      1  C   UNL d   1     -51.031  26.650  35.756  0.00  0.00     0.198 A 
ATOM      2  C   UNL d   1     -50.974  26.739  36.572  0.00  0.00     0.227 A 
ATOM      3  N   UNL d   1     -50.436  27.100  35.409  0.00  0.00    -0.192 N 
ATOM      4  N   UNL d   1     -51.549  26.216  35.284  0.00  0.00    -0.205 NA
ATOM      5  N   UNL d   1     -50.348  27.241  36.733  0.00  0.00    -0.115 NA
ATOM      6  N   UNL d   1     -50.010  27.469  36.016  0.00  0.00    -0.058 NA
ATOM      7  C   UNL d   1     -50.358  27.117  34.590  0.00  0.00     0.096 A 
ATOM      8  C   UNL d   1     -50.877  26.683  34.117  0.00  0.00     0.083 A 
ATOM      9  C   UNL d   1     -51.473  26.232  34.458  0.00  0.00     0.172 A 
ATOM     10  S   UNL d   1     -50.668  26.804  33.319  0.00  0.00    -0.082 SA
ATOM     11  C   UNL d   1     -49.820  27.514  34.092  0.00  0.00     0.027 A 
ATOM     12  C   UNL d   1     -50.014  27.319  33.306  0.00  0.00     0.037 A 
ENDROOT
BRANCH   2  13
ATOM     13  S   UNL d   1     -51.468  26.381  37.138  0.00  0.00     0.231 S 
ATOM     14  O   UNL d   1     -51.942  26.047  36.542  0.00  0.00    -0.215 OA
ATOM     15  O   UNL d   1     -50.992  26.716  37.727  0.00  0.00    -0.215 OA
BRANCH  13  16
ATOM     16  C   UNL d   1     -51.937  26.040  37.729  0.00  0.00     0.090 A 
ATOM     17  C   UNL d   1     -52.737  25.901  37.602  0.00  0.00     0.011 A 
ATOM     18  C   UNL d   1     -53.203  25.562  38.190  0.00  0.00     0.001 A 
ATOM     19  C   UNL d   1     -52.865  25.358  38.917  0.00  0.00     0.000 A 
ATOM     20  C   UNL d   1     -52.050  25.498  39.049  0.00  0.00     0.001 A 
ATOM     21  C   UNL d   1     -51.589  25.841  38.449  0.00  0.00     0.011 A 
ENDBRANCH  13  16
ENDBRANCH   2  13
BRANCH   9  22
ATOM     22  N   UNL d   1     -51.996  25.793  33.981  0.00  0.00    -0.223 NA
BRANCH  22  23
ATOM     23  C   UNL d   1     -51.714  25.169  33.523  0.00  0.00     0.125 C 
BRANCH  23  24
ATOM     24  C   UNL d   1     -52.162  24.481  33.440  0.00  0.00     0.119 A 
ATOM     25  O   UNL d   1     -52.981  24.438  33.380  0.00  0.00    -0.304 OA
ATOM     26  C   UNL d   1     -53.193  23.640  33.306  0.00  0.00     0.123 A 
ATOM     27  C   UNL d   1     -52.502  23.188  33.319  0.00  0.00     0.029 A 
ATOM     28  C   UNL d   1     -51.865  23.709  33.403  0.00  0.00     0.028 A 
ENDBRANCH  23  24
ENDBRANCH  22  23
ENDBRANCH   9  22
TORSDOF 5
ENDMDL
