MODEL 1
REMARK VINA RESULT:      48.5      0.000      0.000
REMARK  10 active torsions:
REMARK  status: ('A' for Active; 'I' for Inactive)
REMARK    1  A    between atoms: N_11  and  C_1 
REMARK    2  A    between atoms: C_12  and  C_2 
REMARK    3  A    between atoms: C_4  and  S_15 
REMARK    4  A    between atoms: C_18  and  C_6 
REMARK       I    between atoms: C_16  and  N_11 
REMARK    5  A    between atoms: O_28  and  C_12 
REMARK       I    between atoms: C_13  and  N_17 
REMARK    6  A    between atoms: C_14  and  C_13 
REMARK    7  A    between atoms: S_15  and  C_26 
REMARK    8  A    between atoms: C_26  and  C_16 
REMARK    9  A    between atoms: N_17  and  C_18 
REMARK   10  A    between atoms: C_32  and  O_28 
ROOT
ATOM      1  C   UNL d   1      45.244 -17.253  38.577  0.00  0.00     0.101 C 
ENDROOT
BRANCH   1   2
ATOM      2  S   UNL d   1      45.833 -17.704  38.808  0.00  0.00    -0.043 SA
BRANCH   2   3
ATOM      3  C   UNL d   1      45.894 -17.840  39.630  0.00  0.00     0.202 A 
ATOM      4  N   UNL d   1      46.283 -18.514  39.913  0.00  0.00    -0.265 N 
ATOM      5  C   UNL d   1      46.253 -18.495  40.738  0.00  0.00     0.190 A 
ATOM      6  C   UNL d   1      46.647 -19.119  39.442  0.00  0.00     0.103 C 
ATOM      7  N   UNL d   1      45.845 -17.807  40.971  0.00  0.00    -0.126 NA
ATOM      8  N   UNL d   1      45.624 -17.402  40.288  0.00  0.00    -0.121 NA
BRANCH   5   9
ATOM      9  C   UNL d   1      46.571 -19.059  41.249  0.00  0.00     0.141 C 
BRANCH   9  10
ATOM     10  N   UNL d   1      46.580 -18.926  42.061  0.00  0.00    -0.202 NA
ATOM     11  C   UNL d   1      46.195 -19.445  42.573  0.00  0.00     0.302 C 
ATOM     12  O   UNL d   1      45.798 -20.104  42.264  0.00  0.00    -0.263 OA
BRANCH  11  13
ATOM     13  C   UNL d   1      46.204 -19.310  43.402  0.00  0.00     0.158 A 
ATOM     14  O   UNL d   1      46.635 -19.763  43.983  0.00  0.00    -0.300 OA
ATOM     15  C   UNL d   1      46.479 -19.426  44.745  0.00  0.00     0.123 A 
ATOM     16  C   UNL d   1      45.952 -18.764  44.642  0.00  0.00     0.029 A 
ATOM     17  C   UNL d   1      45.783 -18.693  43.815  0.00  0.00     0.032 A 
ENDBRANCH  11  13
ENDBRANCH   9  10
ENDBRANCH   5   9
ENDBRANCH   2   3
ENDBRANCH   1   2
BRANCH   1  18
ATOM     18  C   UNL d   1      44.520 -17.458  38.133  0.00  0.00     0.286 C 
ATOM     19  N   UNL d   1      44.130 -16.796  37.483  0.00  0.00    -0.201 NA
ATOM     20  O   UNL d   1      44.172 -18.162  38.241  0.00  0.00    -0.265 OA
BRANCH  19  21
ATOM     21  C   UNL d   1      44.500 -16.048  37.369  0.00  0.00     0.119 A 
ATOM     22  C   UNL d   1      44.084 -15.433  37.266  0.00  0.00     0.088 A 
ATOM     23  C   UNL d   1      45.151 -14.708  37.164  0.00  0.00     0.013 A 
ATOM     24  C   UNL d   1      45.462 -14.043  37.062  0.00  0.00     0.001 A 
ATOM     25  C   UNL d   1      45.569 -15.326  37.266  0.00  0.00     0.031 A 
ATOM     26  C   UNL d   1      46.216 -13.980  37.060  0.00  0.00     0.001 A 
ATOM     27  C   UNL d   1      46.636 -14.602  37.164  0.00  0.00     0.006 A 
ATOM     28  S   UNL d   1      45.252 -15.990  37.368  0.00  0.00    -0.068 SA
BRANCH  22  29
ATOM     29  C   UNL d   1      43.300 -15.295  37.235  0.00  0.00     0.302 C 
ATOM     30  O   UNL d   1      42.999 -14.870  37.736  0.00  0.00    -0.259 OA
BRANCH  29  31
ATOM     31  O   UNL d   1      42.853 -15.649  36.622  0.00  0.00    -0.271 OA
BRANCH  31  32
ATOM     32  C   UNL d   1      42.072 -15.597  36.331  0.00  0.00     0.126 C 
ATOM     33  C   UNL d   1      41.322 -15.603  36.662  0.00  0.00     0.029 C 
ENDBRANCH  31  32
ENDBRANCH  29  31
ENDBRANCH  22  29
ENDBRANCH  19  21
ENDBRANCH   1  18
TORSDOF 10
ENDMDL
