MODEL 1
REMARK VINA RESULT:      -0.3      0.000      0.000
REMARK  7 active torsions:
REMARK  status: ('A' for Active; 'I' for Inactive)
REMARK    1  A    between atoms: C_5  and  C_1 
REMARK    2  A    between atoms: N_6  and  C_2 
REMARK    3  A    between atoms: C_7  and  C_5 
REMARK    4  A    between atoms: C_8  and  C_5 
REMARK       I    between atoms: N_13  and  C_7 
REMARK    5  A    between atoms: C_17  and  N_13 
REMARK    6  A    between atoms: C_23  and  C_17 
REMARK    7  A    between atoms: C_18  and  C_23 
ROOT
ATOM      1  C   UNL d   1      30.739  17.727 -23.888  0.00  0.00     0.117 A 
ATOM      2  C   UNL d   1      30.711  16.959 -24.187  0.00  0.00     0.145 A 
ATOM      3  N   UNL d   1      29.986  16.566 -24.245  0.00  0.00    -0.230 NA
ATOM      4  N   UNL d   1      30.041  18.102 -23.646  0.00  0.00    -0.241 NA
ATOM      5  C   UNL d   1      29.293  16.939 -24.004  0.00  0.00     0.100 A 
ATOM      6  C   UNL d   1      29.321  17.708 -23.705  0.00  0.00     0.099 A 
ATOM      7  C   UNL d   1      28.573  16.546 -24.063  0.00  0.00     0.021 A 
ATOM      8  C   UNL d   1      28.629  18.082 -23.464  0.00  0.00     0.021 A 
ATOM      9  C   UNL d   1      27.872  16.920 -23.821  0.00  0.00     0.002 A 
ATOM     10  C   UNL d   1      27.900  17.688 -23.522  0.00  0.00     0.002 A 
ENDROOT
BRANCH   1  11
ATOM     11  C   UNL d   1      31.524  17.971 -23.897  0.00  0.00     0.099 C 
BRANCH  11  12
ATOM     12  C   UNL d   1      32.064  18.135 -23.280  0.00  0.00     0.282 C 
ATOM     13  O   UNL d   1      32.414  17.511 -22.855  0.00  0.00    -0.265 OA
ATOM     14  N   UNL d   1      32.248  18.922 -23.096  0.00  0.00    -0.206 NA
BRANCH  14  15
ATOM     15  C   UNL d   1      32.787  19.083 -22.481  0.00  0.00     0.102 C 
BRANCH  15  16
ATOM     16  C   UNL d   1      33.238  19.765 -22.351  0.00  0.00     0.021 C 
BRANCH  16  17
ATOM     17  C   UNL d   1      33.040  20.283 -21.744  0.00  0.00     0.002 A 
ATOM     18  C   UNL d   1      33.230  20.084 -20.973  0.00  0.00     0.000 A 
ATOM     19  C   UNL d   1      33.031  20.606 -20.362  0.00  0.00     0.000 A 
ATOM     20  C   UNL d   1      32.647  21.315 -20.530  0.00  0.00     0.000 A 
ATOM     21  C   UNL d   1      32.463  21.499 -21.315  0.00  0.00     0.000 A 
ATOM     22  C   UNL d   1      32.659  20.985 -21.916  0.00  0.00     0.000 A 
ENDBRANCH  16  17
ENDBRANCH  15  16
ENDBRANCH  14  15
ENDBRANCH  11  12
BRANCH  11  23
ATOM     23  C   UNL d   1      31.875  18.084 -24.625  0.00  0.00     0.129 C 
ATOM     24  N   UNL d   1      32.429  18.613 -24.933  0.00  0.00    -0.146 N 
ENDBRANCH  11  23
ENDBRANCH   1  11
BRANCH   2  25
ATOM     25  N   UNL d   1      31.478  16.730 -24.381  0.00  0.00    -0.188 NA
ATOM     26  C   UNL d   1      31.648  16.136 -24.920  0.00  0.00     0.083 A 
ATOM     27  C   UNL d   1      32.738  16.247 -24.796  0.00  0.00     0.136 A 
ATOM     28  O   UNL d   1      33.239  15.907 -25.095  0.00  0.00    -0.301 OA
ATOM     29  C   UNL d   1      33.010  16.547 -24.515  0.00  0.00     0.136 A 
ATOM     30  C   UNL d   1      31.999  16.423 -24.650  0.00  0.00     0.083 A 
ENDBRANCH   2  25
TORSDOF 7
ENDMDL
