MODEL 1
REMARK VINA RESULT:      -8.4      0.000      0.000
REMARK  8 active torsions:
REMARK  status: ('A' for Active; 'I' for Inactive)
REMARK    1  A    between atoms: C_2  and  S_1 
REMARK    2  A    between atoms: N_8  and  S_1 
REMARK    3  A    between atoms: C_13  and  N_8 
REMARK    4  A    between atoms: N_9  and  C_14 
REMARK    5  A    between atoms: O_15  and  C_10 
REMARK    6  A    between atoms: C_14  and  C_13 
REMARK    7  A    between atoms: C_22  and  O_15 
REMARK    8  A    between atoms: C_23  and  C_22 
ROOT
ATOM      1  C   UNL d   1      52.203  32.989  53.204  0.00  0.00     0.105 A 
ATOM      2  C   UNL d   1      52.855  33.072  53.703  0.00  0.00     0.014 A 
ATOM      3  C   UNL d   1      53.343  32.424  53.859  0.00  0.00     0.024 A 
ATOM      4  C   UNL d   1      52.038  32.264  52.863  0.00  0.00     0.015 A 
ATOM      5  C   UNL d   1      53.172  31.691  53.511  0.00  0.00     0.100 A 
ATOM      6  C   UNL d   1      52.524  31.614  53.016  0.00  0.00     0.025 A 
ATOM      7  C   UNL d   1      53.019  33.797  54.044  0.00  0.00     0.001 A 
ATOM      8  C   UNL d   1      53.991  32.508  54.354  0.00  0.00     0.002 A 
ATOM      9  C   UNL d   1      53.666  33.884  54.540  0.00  0.00     0.000 A 
ATOM     10  C   UNL d   1      54.158  33.238  54.699  0.00  0.00     0.000 A 
ENDROOT
BRANCH   1  11
ATOM     11  S   UNL d   1      51.717  33.640  53.051  0.00  0.00     0.285 S 
ATOM     12  O   UNL d   1      51.236  33.429  53.681  0.00  0.00    -0.198 OA
ATOM     13  O   UNL d   1      52.203  33.852  52.414  0.00  0.00    -0.198 OA
BRANCH  11  14
ATOM     14  N   UNL d   1      51.233  34.288  52.898  0.00  0.00    -0.155 NA
BRANCH  14  15
ATOM     15  C   UNL d   1      50.517  34.178  52.496  0.00  0.00     0.131 C 
BRANCH  15  16
ATOM     16  C   UNL d   1      49.941  34.769  52.520  0.00  0.00     0.102 C 
BRANCH  16  17
ATOM     17  N   UNL d   1      49.327  34.765  51.976  0.00  0.00    -0.298 N 
ATOM     18  C   UNL d   1      49.444  34.456  51.222  0.00  0.00     0.107 A 
ATOM     19  C   UNL d   1      48.827  34.450  50.673  0.00  0.00     0.142 A 
ATOM     20  O   UNL d   1      48.089  34.756  50.882  0.00  0.00    -0.300 OA
ATOM     21  C   UNL d   1      47.969  35.067  51.640  0.00  0.00     0.142 A 
ATOM     22  C   UNL d   1      48.589  35.071  52.185  0.00  0.00     0.107 A 
ENDBRANCH  16  17
ENDBRANCH  15  16
ENDBRANCH  14  15
ENDBRANCH  11  14
ENDBRANCH   1  11
BRANCH   5  23
ATOM     23  O   UNL d   1      53.657  31.043  53.664  0.00  0.00    -0.305 OA
BRANCH  23  24
ATOM     24  C   UNL d   1      53.361  30.282  53.593  0.00  0.00     0.123 C 
BRANCH  24  25
ATOM     25  C   UNL d   1      53.799  29.641  53.867  0.00  0.00     0.027 C 
ATOM     26  C   UNL d   1      53.422  29.025  54.269  0.00  0.00     0.002 C 
ENDBRANCH  24  25
ENDBRANCH  23  24
ENDBRANCH   5  23
TORSDOF 8
ENDMDL
MODEL 2
REMARK VINA RESULT:      -8.0      1.321      2.426
REMARK  8 active torsions:
REMARK  status: ('A' for Active; 'I' for Inactive)
REMARK    1  A    between atoms: C_2  and  S_1 
REMARK    2  A    between atoms: N_8  and  S_1 
REMARK    3  A    between atoms: C_13  and  N_8 
REMARK    4  A    between atoms: N_9  and  C_14 
REMARK    5  A    between atoms: O_15  and  C_10 
REMARK    6  A    between atoms: C_14  and  C_13 
REMARK    7  A    between atoms: C_22  and  O_15 
REMARK    8  A    between atoms: C_23  and  C_22 
ROOT
ATOM      1  C   UNL d   1      51.776  33.814  53.175  0.00  0.00     0.105 A 
ATOM      2  C   UNL d   1      52.125  33.067  53.133  0.00  0.00     0.014 A 
ATOM      3  C   UNL d   1      52.854  32.928  53.495  0.00  0.00     0.024 A 
ATOM      4  C   UNL d   1      52.154  34.419  53.577  0.00  0.00     0.015 A 
ATOM      5  C   UNL d   1      53.233  33.544  53.900  0.00  0.00     0.100 A 
ATOM      6  C   UNL d   1      52.883  34.284  53.940  0.00  0.00     0.025 A 
ATOM      7  C   UNL d   1      51.748  32.463  52.732  0.00  0.00     0.001 A 
ATOM      8  C   UNL d   1      53.199  32.186  53.452  0.00  0.00     0.002 A 
ATOM      9  C   UNL d   1      52.090  31.719  52.687  0.00  0.00     0.000 A 
ATOM     10  C   UNL d   1      52.821  31.575  53.048  0.00  0.00     0.000 A 
ENDROOT
BRANCH   1  11
ATOM     11  S   UNL d   1      51.047  33.948  52.812  0.00  0.00     0.285 S 
ATOM     12  O   UNL d   1      50.665  33.602  53.449  0.00  0.00    -0.198 OA
ATOM     13  O   UNL d   1      51.433  34.299  52.167  0.00  0.00    -0.198 OA
BRANCH  11  14
ATOM     14  N   UNL d   1      50.319  34.083  52.449  0.00  0.00    -0.155 NA
BRANCH  14  15
ATOM     15  C   UNL d   1      49.827  34.684  52.734  0.00  0.00     0.131 C 
BRANCH  15  16
ATOM     16  C   UNL d   1      49.046  34.731  52.468  0.00  0.00     0.102 C 
BRANCH  16  17
ATOM     17  N   UNL d   1      48.589  35.387  52.651  0.00  0.00    -0.298 N 
ATOM     18  C   UNL d   1      48.582  35.685  53.419  0.00  0.00     0.107 A 
ATOM     19  C   UNL d   1      48.123  36.346  53.606  0.00  0.00     0.142 A 
ATOM     20  O   UNL d   1      47.669  36.709  53.020  0.00  0.00    -0.300 OA
ATOM     21  C   UNL d   1      47.675  36.412  52.247  0.00  0.00     0.142 A 
ATOM     22  C   UNL d   1      48.135  35.751  52.065  0.00  0.00     0.107 A 
ENDBRANCH  16  17
ENDBRANCH  15  16
ENDBRANCH  14  15
ENDBRANCH  11  14
ENDBRANCH   1  11
BRANCH   5  23
ATOM     23  O   UNL d   1      53.960  33.410  54.263  0.00  0.00    -0.305 OA
BRANCH  23  24
ATOM     24  C   UNL d   1      54.230  33.917  54.847  0.00  0.00     0.123 C 
BRANCH  24  25
ATOM     25  C   UNL d   1      54.854  33.693  55.335  0.00  0.00     0.027 C 
ATOM     26  C   UNL d   1      55.601  34.029  55.231  0.00  0.00     0.002 C 
ENDBRANCH  24  25
ENDBRANCH  23  24
ENDBRANCH   5  23
TORSDOF 8
ENDMDL
MODEL 3
REMARK VINA RESULT:      -6.8      1.465      5.683
REMARK  8 active torsions:
REMARK  status: ('A' for Active; 'I' for Inactive)
REMARK    1  A    between atoms: C_2  and  S_1 
REMARK    2  A    between atoms: N_8  and  S_1 
REMARK    3  A    between atoms: C_13  and  N_8 
REMARK    4  A    between atoms: N_9  and  C_14 
REMARK    5  A    between atoms: O_15  and  C_10 
REMARK    6  A    between atoms: C_14  and  C_13 
REMARK    7  A    between atoms: C_22  and  O_15 
REMARK    8  A    between atoms: C_23  and  C_22 
ROOT
ATOM      1  C   UNL d   1      50.224  34.484  52.761  0.00  0.00     0.105 A 
ATOM      2  C   UNL d   1      49.723  34.530  52.108  0.00  0.00     0.014 A 
ATOM      3  C   UNL d   1      49.013  34.949  52.157  0.00  0.00     0.024 A 
ATOM      4  C   UNL d   1      50.018  34.854  53.462  0.00  0.00     0.015 A 
ATOM      5  C   UNL d   1      48.808  35.323  52.869  0.00  0.00     0.100 A 
ATOM      6  C   UNL d   1      49.309  35.274  53.516  0.00  0.00     0.025 A 
ATOM      7  C   UNL d   1      49.929  34.161  51.408  0.00  0.00     0.001 A 
ATOM      8  C   UNL d   1      48.516  34.994  51.508  0.00  0.00     0.002 A 
ATOM      9  C   UNL d   1      49.434  34.203  50.755  0.00  0.00     0.000 A 
ATOM     10  C   UNL d   1      48.721  34.622  50.801  0.00  0.00     0.000 A 
ENDROOT
BRANCH   1  11
ATOM     11  S   UNL d   1      50.933  34.064  52.707  0.00  0.00     0.285 S 
ATOM     12  O   UNL d   1      51.300  34.725  52.389  0.00  0.00    -0.198 OA
ATOM     13  O   UNL d   1      50.562  33.396  53.028  0.00  0.00    -0.198 OA
BRANCH  11  14
ATOM     14  N   UNL d   1      51.641  33.645  52.653  0.00  0.00    -0.155 NA
BRANCH  14  15
ATOM     15  C   UNL d   1      52.137  33.596  53.313  0.00  0.00     0.131 C 
BRANCH  15  16
ATOM     16  C   UNL d   1      52.900  33.290  53.227  0.00  0.00     0.102 C 
BRANCH  16  17
ATOM     17  N   UNL d   1      53.371  33.173  53.889  0.00  0.00    -0.298 N 
ATOM     18  C   UNL d   1      53.705  33.817  54.278  0.00  0.00     0.107 A 
ATOM     19  C   UNL d   1      54.180  33.703  54.944  0.00  0.00     0.142 A 
ATOM     20  O   UNL d   1      54.321  32.937  55.220  0.00  0.00    -0.300 OA
ATOM     21  C   UNL d   1      53.986  32.288  54.830  0.00  0.00     0.142 A 
ATOM     22  C   UNL d   1      53.512  32.408  54.165  0.00  0.00     0.107 A 
ENDBRANCH  16  17
ENDBRANCH  15  16
ENDBRANCH  14  15
ENDBRANCH  11  14
ENDBRANCH   1  11
BRANCH   5  23
ATOM     23  O   UNL d   1      48.101  35.741  52.923  0.00  0.00    -0.305 OA
BRANCH  23  24
ATOM     24  C   UNL d   1      47.889  36.104  53.627  0.00  0.00     0.123 C 
BRANCH  24  25
ATOM     25  C   UNL d   1      47.241  36.610  53.653  0.00  0.00     0.027 C 
ATOM     26  C   UNL d   1      46.821  36.709  54.358  0.00  0.00     0.002 C 
ENDBRANCH  24  25
ENDBRANCH  23  24
ENDBRANCH   5  23
TORSDOF 8
ENDMDL
MODEL 4
REMARK VINA RESULT:      -6.5      1.758      5.027
REMARK  8 active torsions:
REMARK  status: ('A' for Active; 'I' for Inactive)
REMARK    1  A    between atoms: C_2  and  S_1 
REMARK    2  A    between atoms: N_8  and  S_1 
REMARK    3  A    between atoms: C_13  and  N_8 
REMARK    4  A    between atoms: N_9  and  C_14 
REMARK    5  A    between atoms: O_15  and  C_10 
REMARK    6  A    between atoms: C_14  and  C_13 
REMARK    7  A    between atoms: C_22  and  O_15 
REMARK    8  A    between atoms: C_23  and  C_22 
ROOT
ATOM      1  C   UNL d   1      52.243  33.202  53.248  0.00  0.00     0.105 A 
ATOM      2  C   UNL d   1      52.440  33.962  53.503  0.00  0.00     0.014 A 
ATOM      3  C   UNL d   1      51.879  34.567  53.479  0.00  0.00     0.024 A 
ATOM      4  C   UNL d   1      51.489  33.047  52.970  0.00  0.00     0.015 A 
ATOM      5  C   UNL d   1      51.116  34.405  53.196  0.00  0.00     0.100 A 
ATOM      6  C   UNL d   1      50.924  33.650  52.943  0.00  0.00     0.025 A 
ATOM      7  C   UNL d   1      53.193  34.116  53.781  0.00  0.00     0.001 A 
ATOM      8  C   UNL d   1      52.076  35.321  53.732  0.00  0.00     0.002 A 
ATOM      9  C   UNL d   1      53.395  34.869  54.036  0.00  0.00     0.000 A 
ATOM     10  C   UNL d   1      52.835  35.479  54.013  0.00  0.00     0.000 A 
ENDROOT
BRANCH   1  11
ATOM     11  S   UNL d   1      52.807  32.600  53.274  0.00  0.00     0.285 S 
ATOM     12  O   UNL d   1      52.727  32.560  54.089  0.00  0.00    -0.198 OA
ATOM     13  O   UNL d   1      52.889  32.640  52.450  0.00  0.00    -0.198 OA
BRANCH  11  14
ATOM     14  N   UNL d   1      53.370  31.999  53.300  0.00  0.00    -0.155 NA
BRANCH  14  15
ATOM     15  C   UNL d   1      53.124  31.211  53.358  0.00  0.00     0.131 C 
BRANCH  15  16
ATOM     16  C   UNL d   1      53.684  30.617  53.487  0.00  0.00     0.102 C 
BRANCH  16  17
ATOM     17  N   UNL d   1      53.447  29.886  53.776  0.00  0.00    -0.298 N 
ATOM     18  C   UNL d   1      53.748  29.606  54.489  0.00  0.00     0.107 A 
ATOM     19  C   UNL d   1      53.512  28.871  54.782  0.00  0.00     0.142 A 
ATOM     20  O   UNL d   1      52.970  28.415  54.356  0.00  0.00    -0.300 OA
ATOM     21  C   UNL d   1      52.667  28.695  53.639  0.00  0.00     0.142 A 
ATOM     22  C   UNL d   1      52.906  29.430  53.350  0.00  0.00     0.107 A 
ENDBRANCH  16  17
ENDBRANCH  15  16
ENDBRANCH  14  15
ENDBRANCH  11  14
ENDBRANCH   1  11
BRANCH   5  23
ATOM     23  O   UNL d   1      50.553  35.006  53.169  0.00  0.00    -0.305 OA
BRANCH  23  24
ATOM     24  C   UNL d   1      49.784  34.841  52.940  0.00  0.00     0.123 C 
BRANCH  24  25
ATOM     25  C   UNL d   1      49.188  35.395  53.061  0.00  0.00     0.027 C 
ATOM     26  C   UNL d   1      48.501  35.371  52.602  0.00  0.00     0.002 C 
ENDBRANCH  24  25
ENDBRANCH  23  24
ENDBRANCH   5  23
TORSDOF 8
ENDMDL
