MODEL 1
REMARK VINA RESULT:      -4.9      0.000      0.000
REMARK  1 active torsions:
REMARK  status: ('A' for Active; 'I' for Inactive)
REMARK       I    between atoms: N_2  and  C_1 
REMARK       I    between atoms: N_3  and  C_1 
REMARK    1  A    between atoms: C_4  and  N_2 
ROOT
ATOM      1  C   UNL d   1      58.131  -0.348  30.023  0.00  0.00     0.086 A 
ATOM      2  C   UNL d   1      58.506  -0.935  29.574  0.00  0.00     0.018 A 
ATOM      3  C   UNL d   1      59.000  -0.727  28.949  0.00  0.00     0.002 A 
ATOM      4  C   UNL d   1      58.248   0.447  29.847  0.00  0.00     0.019 A 
ATOM      5  C   UNL d   1      58.742   0.655  29.222  0.00  0.00     0.002 A 
ATOM      6  C   UNL d   1      58.384  -1.737  29.754  0.00  0.00     0.002 A 
ATOM      7  C   UNL d   1      59.117   0.069  28.774  0.00  0.00     0.000 A 
ATOM      8  C   UNL d   1      59.365  -1.323  28.512  0.00  0.00     0.000 A 
ATOM      9  C   UNL d   1      58.758  -2.321  29.307  0.00  0.00     0.000 A 
ATOM     10  C   UNL d   1      59.247  -2.118  28.689  0.00  0.00     0.000 A 
ENDROOT
BRANCH   1  11
ATOM     11  N   UNL d   1      57.631  -0.547  30.655  0.00  0.00    -0.192 NA
ATOM     12  C   UNL d   1      57.544  -0.043  31.306  0.00  0.00     0.354 C 
ATOM     13  N   UNL d   1      57.045  -0.261  31.917  0.00  0.00    -0.252 N 
ATOM     14  O   UNL d   1      57.967   0.682  31.328  0.00  0.00    -0.244 OA
ATOM     15  C   UNL d   1      56.957   0.255  32.582  0.00  0.00     0.111 A 
ATOM     16  C   UNL d   1      56.638  -0.979  31.875  0.00  0.00     0.111 A 
ATOM     17  C   UNL d   1      56.445   0.021  33.199  0.00  0.00     0.142 A 
ATOM     18  O   UNL d   1      56.024  -0.721  33.155  0.00  0.00    -0.300 OA
ATOM     19  C   UNL d   1      56.123  -1.207  32.503  0.00  0.00     0.142 A 
ENDBRANCH   1  11
TORSDOF 1
ENDMDL
MODEL 2
REMARK VINA RESULT:      -4.3      1.177      4.244
REMARK  1 active torsions:
REMARK  status: ('A' for Active; 'I' for Inactive)
REMARK       I    between atoms: N_2  and  C_1 
REMARK       I    between atoms: N_3  and  C_1 
REMARK    1  A    between atoms: C_4  and  N_2 
ROOT
ATOM      1  C   UNL d   1      56.930  -0.582  31.992  0.00  0.00     0.086 A 
ATOM      2  C   UNL d   1      56.841  -0.265  32.751  0.00  0.00     0.018 A 
ATOM      3  C   UNL d   1      56.275  -0.570  33.267  0.00  0.00     0.002 A 
ATOM      4  C   UNL d   1      56.454  -1.206  31.745  0.00  0.00     0.019 A 
ATOM      5  C   UNL d   1      55.888  -1.512  32.259  0.00  0.00     0.002 A 
ATOM      6  C   UNL d   1      57.324   0.366  32.998  0.00  0.00     0.002 A 
ATOM      7  C   UNL d   1      55.799  -1.195  33.018  0.00  0.00     0.000 A 
ATOM      8  C   UNL d   1      56.200  -0.243  34.019  0.00  0.00     0.000 A 
ATOM      9  C   UNL d   1      57.235   0.682  33.754  0.00  0.00     0.000 A 
ATOM     10  C   UNL d   1      56.677   0.381  34.264  0.00  0.00     0.000 A 
ENDROOT
BRANCH   1  11
ATOM     11  N   UNL d   1      57.496  -0.281  31.466  0.00  0.00    -0.192 NA
ATOM     12  C   UNL d   1      57.727  -0.709  30.796  0.00  0.00     0.354 C 
ATOM     13  N   UNL d   1      58.288  -0.391  30.291  0.00  0.00    -0.252 N 
ATOM     14  O   UNL d   1      57.383  -1.460  30.644  0.00  0.00    -0.244 OA
ATOM     15  C   UNL d   1      58.524  -0.828  29.607  0.00  0.00     0.111 A 
ATOM     16  C   UNL d   1      58.614   0.351  30.459  0.00  0.00     0.111 A 
ATOM     17  C   UNL d   1      59.097  -0.493  29.100  0.00  0.00     0.142 A 
ATOM     18  O   UNL d   1      59.433   0.272  29.274  0.00  0.00    -0.300 OA
ATOM     19  C   UNL d   1      59.193   0.682  29.941  0.00  0.00     0.142 A 
ENDBRANCH   1  11
TORSDOF 1
ENDMDL
MODEL 3
REMARK VINA RESULT:      -4.1      1.378      3.930
REMARK  1 active torsions:
REMARK  status: ('A' for Active; 'I' for Inactive)
REMARK       I    between atoms: N_2  and  C_1 
REMARK       I    between atoms: N_3  and  C_1 
REMARK    1  A    between atoms: C_4  and  N_2 
ROOT
ATOM      1  C   UNL d   1      57.332   0.077  32.192  0.00  0.00     0.086 A 
ATOM      2  C   UNL d   1      56.763  -0.462  32.459  0.00  0.00     0.018 A 
ATOM      3  C   UNL d   1      56.492  -0.430  33.236  0.00  0.00     0.002 A 
ATOM      4  C   UNL d   1      57.632   0.650  32.701  0.00  0.00     0.019 A 
ATOM      5  C   UNL d   1      57.362   0.682  33.478  0.00  0.00     0.002 A 
ATOM      6  C   UNL d   1      56.461  -1.039  31.941  0.00  0.00     0.002 A 
ATOM      7  C   UNL d   1      56.793   0.143  33.745  0.00  0.00     0.000 A 
ATOM      8  C   UNL d   1      55.925  -0.974  33.486  0.00  0.00     0.000 A 
ATOM      9  C   UNL d   1      55.895  -1.576  32.207  0.00  0.00     0.000 A 
ATOM     10  C   UNL d   1      55.626  -1.546  32.976  0.00  0.00     0.000 A 
ENDROOT
BRANCH   1  11
ATOM     11  N   UNL d   1      57.610   0.053  31.410  0.00  0.00    -0.192 NA
ATOM     12  C   UNL d   1      58.363   0.338  31.216  0.00  0.00     0.354 C 
ATOM     13  N   UNL d   1      58.616   0.304  30.439  0.00  0.00    -0.252 N 
ATOM     14  O   UNL d   1      58.854   0.658  31.819  0.00  0.00    -0.244 OA
ATOM     15  C   UNL d   1      59.385   0.596  30.241  0.00  0.00     0.111 A 
ATOM     16  C   UNL d   1      58.117  -0.014  29.861  0.00  0.00     0.111 A 
ATOM     17  C   UNL d   1      59.632   0.555  29.444  0.00  0.00     0.142 A 
ATOM     18  O   UNL d   1      59.116   0.227  28.848  0.00  0.00    -0.300 OA
ATOM     19  C   UNL d   1      58.374  -0.051  29.058  0.00  0.00     0.142 A 
ENDBRANCH   1  11
TORSDOF 1
ENDMDL
MODEL 4
REMARK VINA RESULT:      -3.8      8.976      9.963
REMARK  1 active torsions:
REMARK  status: ('A' for Active; 'I' for Inactive)
REMARK       I    between atoms: N_2  and  C_1 
REMARK       I    between atoms: N_3  and  C_1 
REMARK    1  A    between atoms: C_4  and  N_2 
ROOT
ATOM      1  C   UNL d   1      59.978  -9.170  34.707  0.00  0.00     0.086 A 
ATOM      2  C   UNL d   1      59.917  -8.522  35.219  0.00  0.00     0.018 A 
ATOM      3  C   UNL d   1      60.461  -8.422  35.830  0.00  0.00     0.002 A 
ATOM      4  C   UNL d   1      60.583  -9.720  34.804  0.00  0.00     0.019 A 
ATOM      5  C   UNL d   1      61.127  -9.620  35.414  0.00  0.00     0.002 A 
ATOM      6  C   UNL d   1      59.304  -7.969  35.119  0.00  0.00     0.002 A 
ATOM      7  C   UNL d   1      61.066  -8.972  35.926  0.00  0.00     0.000 A 
ATOM      8  C   UNL d   1      60.386  -7.771  36.330  0.00  0.00     0.000 A 
ATOM      9  C   UNL d   1      59.244  -7.324  35.628  0.00  0.00     0.000 A 
ATOM     10  C   UNL d   1      59.781  -7.223  36.232  0.00  0.00     0.000 A 
ENDROOT
BRANCH   1  11
ATOM     11  N   UNL d   1      59.435  -9.280  34.089  0.00  0.00    -0.192 NA
ATOM     12  C   UNL d   1      59.692  -9.442  33.319  0.00  0.00     0.354 C 
ATOM     13  N   UNL d   1      59.137  -9.546  32.726  0.00  0.00    -0.252 N 
ATOM     14  O   UNL d   1      60.514  -9.495  33.158  0.00  0.00    -0.244 OA
ATOM     15  C   UNL d   1      59.399  -9.711  31.939  0.00  0.00     0.111 A 
ATOM     16  C   UNL d   1      58.331  -9.489  32.906  0.00  0.00     0.111 A 
ATOM     17  C   UNL d   1      58.824  -9.816  31.343  0.00  0.00     0.142 A 
ATOM     18  O   UNL d   1      57.993  -9.757  31.529  0.00  0.00    -0.300 OA
ATOM     19  C   UNL d   1      57.757  -9.596  32.297  0.00  0.00     0.142 A 
ENDBRANCH   1  11
TORSDOF 1
ENDMDL
MODEL 5
REMARK VINA RESULT:      -3.5      9.416      9.685
REMARK  1 active torsions:
REMARK  status: ('A' for Active; 'I' for Inactive)
REMARK       I    between atoms: N_2  and  C_1 
REMARK       I    between atoms: N_3  and  C_1 
REMARK    1  A    between atoms: C_4  and  N_2 
ROOT
ATOM      1  C   UNL d   1      59.501  -9.795  32.505  0.00  0.00     0.086 A 
ATOM      2  C   UNL d   1      58.821  -9.800  32.033  0.00  0.00     0.018 A 
ATOM      3  C   UNL d   1      58.884  -9.812  31.212  0.00  0.00     0.002 A 
ATOM      4  C   UNL d   1      60.247  -9.800  32.158  0.00  0.00     0.019 A 
ATOM      5  C   UNL d   1      60.312  -9.812  31.337  0.00  0.00     0.002 A 
ATOM      6  C   UNL d   1      58.069  -9.795  32.388  0.00  0.00     0.002 A 
ATOM      7  C   UNL d   1      59.631  -9.818  30.865  0.00  0.00     0.000 A 
ATOM      8  C   UNL d   1      58.197  -9.818  30.757  0.00  0.00     0.000 A 
ATOM      9  C   UNL d   1      57.392  -9.800  31.918  0.00  0.00     0.000 A 
ATOM     10  C   UNL d   1      57.452  -9.812  31.106  0.00  0.00     0.000 A 
ENDROOT
BRANCH   1  11
ATOM     11  N   UNL d   1      59.448  -9.783  33.333  0.00  0.00    -0.192 NA
ATOM     12  C   UNL d   1      60.013  -9.388  33.792  0.00  0.00     0.354 C 
ATOM     13  N   UNL d   1      59.938  -9.390  34.607  0.00  0.00    -0.252 N 
ATOM     14  O   UNL d   1      60.651  -8.993  33.416  0.00  0.00    -0.244 OA
ATOM     15  C   UNL d   1      60.516  -8.987  35.076  0.00  0.00     0.111 A 
ATOM     16  C   UNL d   1      59.302  -9.786  34.958  0.00  0.00     0.111 A 
ATOM     17  C   UNL d   1      60.429  -8.997  35.907  0.00  0.00     0.142 A 
ATOM     18  O   UNL d   1      59.772  -9.405  36.268  0.00  0.00    -0.300 OA
ATOM     19  C   UNL d   1      59.223  -9.791  35.798  0.00  0.00     0.142 A 
ENDBRANCH   1  11
TORSDOF 1
ENDMDL
MODEL 6
REMARK VINA RESULT:      -2.8      9.338      9.611
REMARK  1 active torsions:
REMARK  status: ('A' for Active; 'I' for Inactive)
REMARK       I    between atoms: N_2  and  C_1 
REMARK       I    between atoms: N_3  and  C_1 
REMARK    1  A    between atoms: C_4  and  N_2 
ROOT
ATOM      1  C   UNL d   1      58.384  -9.815  31.299  0.00  0.00     0.086 A 
ATOM      2  C   UNL d   1      58.538  -9.816  30.486  0.00  0.00     0.018 A 
ATOM      3  C   UNL d   1      57.917  -9.816  29.944  0.00  0.00     0.002 A 
ATOM      4  C   UNL d   1      57.608  -9.814  31.574  0.00  0.00     0.019 A 
ATOM      5  C   UNL d   1      56.986  -9.815  31.034  0.00  0.00     0.002 A 
ATOM      6  C   UNL d   1      59.323  -9.817  30.211  0.00  0.00     0.002 A 
ATOM      7  C   UNL d   1      57.141  -9.815  30.221  0.00  0.00     0.000 A 
ATOM      8  C   UNL d   1      58.088  -9.817  29.138  0.00  0.00     0.000 A 
ATOM      9  C   UNL d   1      59.476  -9.818  29.401  0.00  0.00     0.000 A 
ATOM     10  C   UNL d   1      58.863  -9.818  28.865  0.00  0.00     0.000 A 
ENDROOT
BRANCH   1  11
ATOM     11  N   UNL d   1      59.002  -9.815  31.852  0.00  0.00    -0.192 NA
ATOM     12  C   UNL d   1      58.848  -9.803  32.665  0.00  0.00     0.354 C 
ATOM     13  N   UNL d   1      59.475  -9.803  33.191  0.00  0.00    -0.252 N 
ATOM     14  O   UNL d   1      58.054  -9.790  32.937  0.00  0.00    -0.244 OA
ATOM     15  C   UNL d   1      59.318  -9.790  34.023  0.00  0.00     0.111 A 
ATOM     16  C   UNL d   1      60.250  -9.815  32.903  0.00  0.00     0.111 A 
ATOM     17  C   UNL d   1      59.966  -9.791  34.550  0.00  0.00     0.142 A 
ATOM     18  O   UNL d   1      60.765  -9.804  34.250  0.00  0.00    -0.300 OA
ATOM     19  C   UNL d   1      60.899  -9.816  33.442  0.00  0.00     0.142 A 
ENDBRANCH   1  11
TORSDOF 1
ENDMDL
MODEL 7
REMARK VINA RESULT:      -2.7      9.378     10.106
REMARK  1 active torsions:
REMARK  status: ('A' for Active; 'I' for Inactive)
REMARK       I    between atoms: N_2  and  C_1 
REMARK       I    between atoms: N_3  and  C_1 
REMARK    1  A    between atoms: C_4  and  N_2 
ROOT
ATOM      1  C   UNL d   1      59.691  -9.787  33.096  0.00  0.00     0.086 A 
ATOM      2  C   UNL d   1      59.688  -9.793  33.924  0.00  0.00     0.018 A 
ATOM      3  C   UNL d   1      60.398  -9.793  34.342  0.00  0.00     0.002 A 
ATOM      4  C   UNL d   1      60.403  -9.780  32.683  0.00  0.00     0.019 A 
ATOM      5  C   UNL d   1      61.112  -9.780  33.100  0.00  0.00     0.002 A 
ATOM      6  C   UNL d   1      58.967  -9.800  34.338  0.00  0.00     0.002 A 
ATOM      7  C   UNL d   1      61.110  -9.786  33.928  0.00  0.00     0.000 A 
ATOM      8  C   UNL d   1      60.378  -9.799  35.166  0.00  0.00     0.000 A 
ATOM      9  C   UNL d   1      58.965  -9.806  35.162  0.00  0.00     0.000 A 
ATOM     10  C   UNL d   1      59.666  -9.806  35.577  0.00  0.00     0.000 A 
ENDROOT
BRANCH   1  11
ATOM     11  N   UNL d   1      58.981  -9.787  32.666  0.00  0.00    -0.192 NA
ATOM     12  C   UNL d   1      58.983  -9.803  31.839  0.00  0.00     0.354 C 
ATOM     13  N   UNL d   1      58.270  -9.802  31.437  0.00  0.00    -0.252 N 
ATOM     14  O   UNL d   1      59.714  -9.818  31.426  0.00  0.00    -0.244 OA
ATOM     15  C   UNL d   1      58.272  -9.818  30.591  0.00  0.00     0.111 A 
ATOM     16  C   UNL d   1      57.561  -9.787  31.862  0.00  0.00     0.111 A 
ATOM     17  C   UNL d   1      57.538  -9.817  30.192  0.00  0.00     0.142 A 
ATOM     18  O   UNL d   1      56.807  -9.802  30.632  0.00  0.00    -0.300 OA
ATOM     19  C   UNL d   1      56.824  -9.787  31.451  0.00  0.00     0.142 A 
ENDBRANCH   1  11
TORSDOF 1
ENDMDL
MODEL 8
REMARK VINA RESULT:      -2.6      1.795      2.244
REMARK  1 active torsions:
REMARK  status: ('A' for Active; 'I' for Inactive)
REMARK       I    between atoms: N_2  and  C_1 
REMARK       I    between atoms: N_3  and  C_1 
REMARK    1  A    between atoms: C_4  and  N_2 
ROOT
ATOM      1  C   UNL d   1      58.052   0.678  31.710  0.00  0.00     0.086 A 
ATOM      2  C   UNL d   1      58.116   0.678  30.885  0.00  0.00     0.018 A 
ATOM      3  C   UNL d   1      58.857   0.680  30.525  0.00  0.00     0.002 A 
ATOM      4  C   UNL d   1      58.728   0.680  32.179  0.00  0.00     0.019 A 
ATOM      5  C   UNL d   1      59.469   0.681  31.821  0.00  0.00     0.002 A 
ATOM      6  C   UNL d   1      57.430   0.676  30.414  0.00  0.00     0.002 A 
ATOM      7  C   UNL d   1      59.534   0.681  30.995  0.00  0.00     0.000 A 
ATOM      8  C   UNL d   1      58.903   0.680  29.702  0.00  0.00     0.000 A 
ATOM      9  C   UNL d   1      57.494   0.676  29.593  0.00  0.00     0.000 A 
ATOM     10  C   UNL d   1      58.226   0.678  29.235  0.00  0.00     0.000 A 
ENDROOT
BRANCH   1  11
ATOM     11  N   UNL d   1      57.310   0.676  32.082  0.00  0.00    -0.192 NA
ATOM     12  C   UNL d   1      57.245   0.632  32.906  0.00  0.00     0.354 C 
ATOM     13  N   UNL d   1      56.502   0.632  33.250  0.00  0.00    -0.252 N 
ATOM     14  O   UNL d   1      57.940   0.589  33.375  0.00  0.00    -0.244 OA
ATOM     15  C   UNL d   1      56.436   0.587  34.092  0.00  0.00     0.111 A 
ATOM     16  C   UNL d   1      55.830   0.676  32.769  0.00  0.00     0.111 A 
ATOM     17  C   UNL d   1      55.672   0.588  34.431  0.00  0.00     0.142 A 
ATOM     18  O   UNL d   1      54.979   0.633  33.934  0.00  0.00    -0.300 OA
ATOM     19  C   UNL d   1      55.062   0.676  33.120  0.00  0.00     0.142 A 
ENDBRANCH   1  11
TORSDOF 1
ENDMDL
MODEL 9
REMARK VINA RESULT:      -2.5      9.271      9.839
REMARK  1 active torsions:
REMARK  status: ('A' for Active; 'I' for Inactive)
REMARK       I    between atoms: N_2  and  C_1 
REMARK       I    between atoms: N_3  and  C_1 
REMARK    1  A    between atoms: C_4  and  N_2 
ROOT
ATOM      1  C   UNL d   1      58.790  -9.742  32.244  0.00  0.00     0.086 A 
ATOM      2  C   UNL d   1      59.527  -9.655  32.610  0.00  0.00     0.018 A 
ATOM      3  C   UNL d   1      59.584  -9.640  33.432  0.00  0.00     0.002 A 
ATOM      4  C   UNL d   1      58.106  -9.814  32.697  0.00  0.00     0.019 A 
ATOM      5  C   UNL d   1      58.162  -9.799  33.518  0.00  0.00     0.002 A 
ATOM      6  C   UNL d   1      60.215  -9.582  32.149  0.00  0.00     0.002 A 
ATOM      7  C   UNL d   1      58.899  -9.712  33.885  0.00  0.00     0.000 A 
ATOM      8  C   UNL d   1      60.325  -9.553  33.781  0.00  0.00     0.000 A 
ATOM      9  C   UNL d   1      60.949  -9.496  32.514  0.00  0.00     0.000 A 
ATOM     10  C   UNL d   1      61.007  -9.481  33.326  0.00  0.00     0.000 A 
ENDROOT
BRANCH   1  11
ATOM     11  N   UNL d   1      58.722  -9.758  31.417  0.00  0.00    -0.192 NA
ATOM     12  C   UNL d   1      57.983  -9.705  31.047  0.00  0.00     0.354 C 
ATOM     13  N   UNL d   1      57.942  -9.724  30.230  0.00  0.00    -0.252 N 
ATOM     14  O   UNL d   1      57.289  -9.634  31.515  0.00  0.00    -0.244 OA
ATOM     15  C   UNL d   1      57.187  -9.669  29.853  0.00  0.00     0.111 A 
ATOM     16  C   UNL d   1      58.638  -9.794  29.788  0.00  0.00     0.111 A 
ATOM     17  C   UNL d   1      57.158  -9.689  29.018  0.00  0.00     0.142 A 
ATOM     18  O   UNL d   1      57.876  -9.762  28.563  0.00  0.00    -0.300 OA
ATOM     19  C   UNL d   1      58.599  -9.814  28.945  0.00  0.00     0.142 A 
ENDBRANCH   1  11
TORSDOF 1
ENDMDL
