MODEL 1
REMARK VINA RESULT:       9.6      0.000      0.000
REMARK  3 active torsions:
REMARK  status: ('A' for Active; 'I' for Inactive)
REMARK    1  A    between atoms: S_6  and  C_1 
REMARK    2  A    between atoms: C_9  and  S_6 
REMARK    3  A    between atoms: C_7  and  C_9 
ROOT
ATOM      1  C   UNL d   1     -54.711-102.064 -37.865  0.00  0.00     0.137 A 
ATOM      2  N   UNL d   1     -54.711-101.398 -38.344  0.00  0.00    -0.232 NA
ATOM      3  S   UNL d   1     -54.711-102.728 -38.343  0.00  0.00    -0.060 SA
ATOM      4  C   UNL d   1     -54.712-101.642 -39.119  0.00  0.00     0.088 A 
ATOM      5  C   UNL d   1     -54.711-102.474 -39.118  0.00  0.00     0.049 A 
ATOM      6  C   UNL d   1     -54.712-101.235 -39.825  0.00  0.00     0.020 A 
ATOM      7  C   UNL d   1     -54.711-102.880 -39.822  0.00  0.00     0.008 A 
ATOM      8  C   UNL d   1     -54.712-102.476 -40.548  0.00  0.00     0.001 A 
ATOM      9  C   UNL d   1     -54.712-101.663 -40.549  0.00  0.00     0.002 A 
ENDROOT
BRANCH   1  10
ATOM     10  S   UNL d   1     -54.711-102.044 -37.049  0.00  0.00    -0.077 SA
BRANCH  10  11
ATOM     11  C   UNL d   1     -55.124-102.640 -36.643  0.00  0.00     0.161 C 
BRANCH  11  12
ATOM     12  C   UNL d   1     -55.458-102.472 -35.899  0.00  0.00     0.197 C 
ATOM     13  O   UNL d   1     -55.094-101.922 -35.386  0.00  0.00    -0.647 OA
ATOM     14  O   UNL d   1     -56.143-102.845 -35.669  0.00  0.00    -0.647 OA
ENDBRANCH  11  12
ENDBRANCH  10  11
ENDBRANCH   1  10
TORSDOF 3
ENDMDL
MODEL 2
REMARK VINA RESULT:      10.4      2.025      3.604
REMARK  3 active torsions:
REMARK  status: ('A' for Active; 'I' for Inactive)
REMARK    1  A    between atoms: S_6  and  C_1 
REMARK    2  A    between atoms: C_9  and  S_6 
REMARK    3  A    between atoms: C_7  and  C_9 
ROOT
ATOM      1  C   UNL d   1     -55.238-102.697 -37.930  0.00  0.00     0.137 A 
ATOM      2  N   UNL d   1     -54.711-102.290 -37.451  0.00  0.00    -0.232 NA
ATOM      3  S   UNL d   1     -55.903-102.879 -37.490  0.00  0.00    -0.060 SA
ATOM      4  C   UNL d   1     -55.043-102.216 -36.713  0.00  0.00     0.088 A 
ATOM      5  C   UNL d   1     -55.788-102.585 -36.737  0.00  0.00     0.049 A 
ATOM      6  C   UNL d   1     -54.781-101.870 -36.024  0.00  0.00     0.020 A 
ATOM      7  C   UNL d   1     -56.254-102.599 -36.072  0.00  0.00     0.008 A 
ATOM      8  C   UNL d   1     -55.998-102.250 -35.363  0.00  0.00     0.001 A 
ATOM      9  C   UNL d   1     -55.270-101.890 -35.340  0.00  0.00     0.002 A 
ENDROOT
BRANCH   1  10
ATOM     10  S   UNL d   1     -55.102-102.880 -38.714  0.00  0.00    -0.077 SA
BRANCH  10  11
ATOM     11  C   UNL d   1     -55.029-102.253 -39.255  0.00  0.00     0.161 C 
BRANCH  11  12
ATOM     12  C   UNL d   1     -55.226-102.377 -40.054  0.00  0.00     0.197 C 
ATOM     13  O   UNL d   1     -54.797-101.993 -40.661  0.00  0.00    -0.647 OA
ATOM     14  O   UNL d   1     -55.839-102.875 -40.247  0.00  0.00    -0.647 OA
ENDBRANCH  11  12
ENDBRANCH  10  11
ENDBRANCH   1  10
TORSDOF 3
ENDMDL
MODEL 3
REMARK VINA RESULT:      10.7      7.170      7.897
REMARK  3 active torsions:
REMARK  status: ('A' for Active; 'I' for Inactive)
REMARK    1  A    between atoms: S_6  and  C_1 
REMARK    2  A    between atoms: C_9  and  S_6 
REMARK    3  A    between atoms: C_7  and  C_9 
ROOT
ATOM      1  C   UNL d   1     -57.188 -98.755 -44.306  0.00  0.00     0.137 A 
ATOM      2  N   UNL d   1     -57.771 -98.755 -44.883  0.00  0.00    -0.232 NA
ATOM      3  S   UNL d   1     -57.548 -98.755 -43.572  0.00  0.00    -0.060 SA
ATOM      4  C   UNL d   1     -58.495 -98.755 -44.513  0.00  0.00     0.088 A 
ATOM      5  C   UNL d   1     -58.355 -98.755 -43.693  0.00  0.00     0.049 A 
ATOM      6  C   UNL d   1     -59.258 -98.755 -44.797  0.00  0.00     0.020 A 
ATOM      7  C   UNL d   1     -58.982 -98.755 -43.175  0.00  0.00     0.008 A 
ATOM      8  C   UNL d   1     -59.764 -98.755 -43.453  0.00  0.00     0.001 A 
ATOM      9  C   UNL d   1     -59.901 -98.755 -44.254  0.00  0.00     0.002 A 
ENDROOT
BRANCH   1  10
ATOM     10  S   UNL d   1     -56.387 -98.755 -44.462  0.00  0.00    -0.077 SA
BRANCH  10  11
ATOM     11  C   UNL d   1     -56.020 -99.482 -44.629  0.00  0.00     0.161 C 
BRANCH  11  12
ATOM     12  C   UNL d   1     -55.193 -99.548 -44.567  0.00  0.00     0.197 C 
ATOM     13  O   UNL d   1     -54.840-100.276 -44.354  0.00  0.00    -0.647 OA
ATOM     14  O   UNL d   1     -54.723 -98.900 -44.712  0.00  0.00    -0.647 OA
ENDBRANCH  11  12
ENDBRANCH  10  11
ENDBRANCH   1  10
TORSDOF 3
ENDMDL
