MODEL 1
REMARK VINA RESULT:      69.1      0.000      0.000
REMARK  9 active torsions:
REMARK  status: ('A' for Active; 'I' for Inactive)
REMARK    1  A    between atoms: N_3  and  C_1 
REMARK    2  A    between atoms: C_20  and  N_2 
REMARK       I    between atoms: C_7  and  N_3 
REMARK    3  A    between atoms: C_10  and  C_7 
REMARK    4  A    between atoms: C_9  and  C_10 
REMARK    5  A    between atoms: C_15  and  C_9 
REMARK       I    between atoms: C_12  and  N_13 
REMARK    6  A    between atoms: N_13  and  C_14 
REMARK    7  A    between atoms: C_26  and  C_20 
REMARK    8  A    between atoms: O_22  and  C_26 
REMARK    9  A    between atoms: C_27  and  O_22 
ROOT
ATOM      1  C   UNL d   1     -50.465  26.022  33.598  0.00  0.00     0.182 A 
ATOM      2  N   UNL d   1     -50.414  25.207  33.511  0.00  0.00    -0.283 N 
ATOM      3  S   UNL d   1     -51.263  26.228  33.591  0.00  0.00    -0.048 SA
ATOM      4  C   UNL d   1     -51.707  25.536  33.500  0.00  0.00     0.050 A 
ATOM      5  C   UNL d   1     -51.180  24.901  33.450  0.00  0.00     0.072 A 
ATOM      6  C   UNL d   1     -52.518  25.402  33.455  0.00  0.00     0.027 A 
ATOM      7  C   UNL d   1     -51.465  24.134  33.357  0.00  0.00     0.020 A 
ATOM      8  C   UNL d   1     -52.804  24.635  33.362  0.00  0.00     0.085 A 
ATOM      9  C   UNL d   1     -52.277  24.001  33.313  0.00  0.00     0.021 A 
ENDROOT
BRANCH   1  10
ATOM     10  N   UNL d   1     -49.825  26.537  33.677  0.00  0.00    -0.184 NA
ATOM     11  C   UNL d   1     -49.930  27.259  34.059  0.00  0.00     0.281 C 
ATOM     12  O   UNL d   1     -50.670  27.460  34.359  0.00  0.00    -0.265 OA
BRANCH  11  13
ATOM     13  C   UNL d   1     -49.294  27.780  34.143  0.00  0.00     0.063 C 
BRANCH  13  14
ATOM     14  C   UNL d   1     -48.872  27.806  34.844  0.00  0.00     0.006 C 
BRANCH  14  15
ATOM     15  C   UNL d   1     -48.299  28.376  34.971  0.00  0.00     0.011 A 
ATOM     16  C   UNL d   1     -48.304  28.818  35.673  0.00  0.00     0.058 A 
ATOM     17 CL   UNL d   1     -48.896  28.678  36.245  0.00  0.00    -0.082 Cl
ATOM     18  C   UNL d   1     -47.717  29.402  35.805  0.00  0.00     0.011 A 
ATOM     19  C   UNL d   1     -47.137  29.543  35.251  0.00  0.00     0.001 A 
ATOM     20  C   UNL d   1     -47.129  29.103  34.549  0.00  0.00     0.000 A 
ATOM     21  C   UNL d   1     -47.708  28.525  34.416  0.00  0.00     0.001 A 
ENDBRANCH  14  15
ENDBRANCH  13  14
ENDBRANCH  11  13
ENDBRANCH   1  10
BRANCH   2  22
ATOM     22  C   UNL d   1     -49.719  24.760  33.489  0.00  0.00     0.109 C 
BRANCH  22  23
ATOM     23  C   UNL d   1     -49.695  24.008  33.823  0.00  0.00     0.142 C 
BRANCH  23  24
ATOM     24  O   UNL d   1     -49.004  23.571  33.801  0.00  0.00    -0.302 OA
BRANCH  24  25
ATOM     25  C   UNL d   1     -48.261  23.934  33.868  0.00  0.00     0.123 C 
ATOM     26  C   UNL d   1     -47.619  23.530  34.195  0.00  0.00     0.029 C 
ENDBRANCH  24  25
ENDBRANCH  23  24
ENDBRANCH  22  23
ENDBRANCH   2  22
BRANCH   8  27
ATOM     27  N   UNL d   1     -53.628  24.497  33.317  0.00  0.00    -0.208 NA
ATOM     28  C   UNL d   1     -53.935  23.790  33.585  0.00  0.00     0.279 C 
ATOM     29  O   UNL d   1     -54.747  23.656  33.539  0.00  0.00    -0.265 OA
ATOM     30  C   UNL d   1     -53.444  23.206  33.901  0.00  0.00     0.068 C 
ENDBRANCH   8  27
TORSDOF 9
ENDMDL
