MODEL 1
REMARK VINA RESULT:      18.1      0.000      0.000
REMARK  4 active torsions:
REMARK  status: ('A' for Active; 'I' for Inactive)
REMARK    1  A    between atoms: C_2  and  S_1 
REMARK    2  A    between atoms: N_3  and  S_1 
REMARK    3  A    between atoms: C_10  and  N_3 
REMARK    4  A    between atoms: C_5  and  C_10 
ROOT
ATOM      1  S   UNL d   1     -56.537 -98.758 -44.687  0.00  0.00     0.285 S 
ATOM      2  O   UNL d   1     -56.561 -98.761 -45.507  0.00  0.00    -0.198 OA
ATOM      3  O   UNL d   1     -56.516 -98.755 -43.842  0.00  0.00    -0.198 OA
ENDROOT
BRANCH   1   4
ATOM      4  C   UNL d   1     -57.391 -98.758 -44.663  0.00  0.00     0.105 A 
ATOM      5  C   UNL d   1     -57.787 -98.758 -43.935  0.00  0.00     0.013 A 
ATOM      6  C   UNL d   1     -58.609 -98.758 -43.920  0.00  0.00     0.001 A 
ATOM      7  C   UNL d   1     -59.002 -98.757 -43.175  0.00  0.00     0.000 C 
ATOM      8  C   UNL d   1     -59.037 -98.758 -44.622  0.00  0.00     0.000 A 
ATOM      9  C   UNL d   1     -58.639 -98.759 -45.339  0.00  0.00     0.001 A 
ATOM     10  C   UNL d   1     -59.888 -98.759 -44.599  0.00  0.00     0.000 C 
ATOM     11  C   UNL d   1     -57.814 -98.759 -45.366  0.00  0.00     0.013 A 
ENDBRANCH   1   4
BRANCH   1  12
ATOM     12  N   UNL d   1     -55.692 -98.758 -44.712  0.00  0.00    -0.155 NA
BRANCH  12  13
ATOM     13  C   UNL d   1     -55.172 -99.274 -45.063  0.00  0.00     0.137 C 
BRANCH  13  14
ATOM     14  C   UNL d   1     -55.012-100.004 -44.708  0.00  0.00     0.120 A 
ATOM     15  O   UNL d   1     -54.843-100.156 -43.885  0.00  0.00    -0.304 OA
ATOM     16  C   UNL d   1     -54.723-100.971 -43.818  0.00  0.00     0.123 A 
ATOM     17  C   UNL d   1     -54.817-101.315 -44.594  0.00  0.00     0.029 A 
ATOM     18  C   UNL d   1     -54.989-100.704 -45.099  0.00  0.00     0.028 A 
ENDBRANCH  13  14
ENDBRANCH  12  13
ENDBRANCH   1  12
TORSDOF 4
ENDMDL
