MODEL 1
REMARK VINA RESULT:      27.8      0.000      0.000
REMARK  3 active torsions:
REMARK  status: ('A' for Active; 'I' for Inactive)
REMARK       I    between atoms: N_2  and  C_1 
REMARK    1  A    between atoms: C_4  and  C_1 
REMARK    2  A    between atoms: C_3  and  N_2 
REMARK    3  A    between atoms: S_11  and  C_7 
ROOT
ATOM      1  C   UNL d   1      59.975  49.678  50.725  0.00  0.00     0.064 A 
ATOM      2  C   UNL d   1      60.732  49.656  51.048  0.00  0.00     0.030 A 
ATOM      3  C   UNL d   1      59.311  49.703  51.223  0.00  0.00     0.005 A 
ATOM      4  C   UNL d   1      60.834  49.660  51.866  0.00  0.00     0.006 A 
ATOM      5  C   UNL d   1      59.412  49.706  52.042  0.00  0.00     0.000 A 
ATOM      6  C   UNL d   1      60.178  49.684  52.362  0.00  0.00     0.001 A 
ENDROOT
BRANCH   1   7
ATOM      7  C   UNL d   1      59.874  49.675  49.906  0.00  0.00     0.281 C 
ATOM      8  N   UNL d   1      59.108  49.673  49.586  0.00  0.00    -0.183 NA
ATOM      9  O   UNL d   1      60.530  49.673  49.410  0.00  0.00    -0.265 OA
BRANCH   8  10
ATOM     10  C   UNL d   1      58.459  49.675  50.073  0.00  0.00     0.197 A 
ATOM     11  N   UNL d   1      57.666  49.669  49.829  0.00  0.00    -0.219 NA
ATOM     12  C   UNL d   1      57.185  49.674  50.506  0.00  0.00     0.108 A 
ATOM     13  C   UNL d   1      57.677  49.682  51.175  0.00  0.00     0.059 A 
ATOM     14  S   UNL d   1      58.460  49.683  50.904  0.00  0.00    -0.046 SA
ENDBRANCH   8  10
ENDBRANCH   1   7
BRANCH   2  15
ATOM     15  S   UNL d   1      61.389  49.631  50.550  0.00  0.00    -0.113 SA
ATOM     16  C   UNL d   1      62.135  49.484  50.865  0.00  0.00     0.074 C 
ENDBRANCH   2  15
TORSDOF 3
ENDMDL
