MODEL 1
REMARK VINA RESULT:      -2.8      0.000      0.000
REMARK  3 active torsions:
REMARK  status: ('A' for Active; 'I' for Inactive)
REMARK    1  A    between atoms: C_6  and  C_1 
REMARK    2  A    between atoms: C_4  and  C_8 
REMARK       I    between atoms: N_11  and  C_6 
REMARK       I    between atoms: C_8  and  N_12 
REMARK    3  A    between atoms: N_12  and  N_11 
ROOT
ATOM      1  C   UNL d   1      33.160  20.043 -23.250  0.00  0.00     0.302 C 
ATOM      2  N   UNL d   1      33.137  20.056 -22.426  0.00  0.00    -0.102 NA
ATOM      3  O   UNL d   1      33.236  20.745 -23.680  0.00  0.00    -0.263 OA
ENDROOT
BRANCH   1   4
ATOM      4  C   UNL d   1      33.108  19.324 -23.660  0.00  0.00     0.123 A 
ATOM      5  C   UNL d   1      33.032  19.320 -24.471  0.00  0.00     0.305 A 
ATOM      6  O   UNL d   1      32.980  18.592 -24.873  0.00  0.00    -0.273 OA
ATOM      7  O   UNL d   1      33.006  20.027 -24.890  0.00  0.00    -0.259 OA
ATOM      8  C   UNL d   1      33.006  17.885 -24.455  0.00  0.00     0.103 A 
ATOM      9  C   UNL d   1      33.083  17.893 -23.630  0.00  0.00     0.024 A 
ATOM     10  C   UNL d   1      32.955  17.170 -24.857  0.00  0.00     0.025 A 
ATOM     11  C   UNL d   1      33.134  18.617 -23.234  0.00  0.00     0.012 A 
ATOM     12  C   UNL d   1      33.109  17.187 -23.213  0.00  0.00     0.009 A 
ATOM     13  C   UNL d   1      33.059  16.467 -23.606  0.00  0.00     0.035 A 
ATOM     14  C   UNL d   1      32.981  16.459 -24.434  0.00  0.00     0.009 A 
ATOM     15 BR   UNL d   1      33.084  15.760 -23.187  0.00  0.00    -0.049 Br
ENDBRANCH   1   4
BRANCH   2  16
ATOM     16  N   UNL d   1      33.190  20.780 -22.034  0.00  0.00    -0.102 NA
ATOM     17  C   UNL d   1      32.917  20.838 -21.258  0.00  0.00     0.300 C 
ATOM     18  O   UNL d   1      32.595  20.181 -20.876  0.00  0.00    -0.264 OA
BRANCH  17  19
ATOM     19  C   UNL d   1      32.966  21.558 -20.857  0.00  0.00     0.098 A 
ATOM     20  C   UNL d   1      33.128  21.565 -20.049  0.00  0.00     0.203 A 
ATOM     21  C   UNL d   1      33.178  22.275 -19.646  0.00  0.00     0.084 A 
ATOM     22  O   UNL d   1      33.241  20.856 -19.644  0.00  0.00    -0.286 OA
ATOM     23  C   UNL d   1      33.066  22.986 -20.047  0.00  0.00     0.199 A 
ATOM     24  C   UNL d   1      32.903  22.982 -20.857  0.00  0.00     0.042 A 
ATOM     25  O   UNL d   1      33.115  23.702 -19.643  0.00  0.00    -0.286 OA
ATOM     26  C   UNL d   1      32.854  22.260 -21.262  0.00  0.00     0.011 A 
ENDBRANCH  17  19
ENDBRANCH   2  16
TORSDOF 3
ENDMDL
MODEL 2
REMARK VINA RESULT:      -1.5      1.012      1.512
REMARK  3 active torsions:
REMARK  status: ('A' for Active; 'I' for Inactive)
REMARK    1  A    between atoms: C_6  and  C_1 
REMARK    2  A    between atoms: C_4  and  C_8 
REMARK       I    between atoms: N_11  and  C_6 
REMARK       I    between atoms: C_8  and  N_12 
REMARK    3  A    between atoms: N_12  and  N_11 
ROOT
ATOM      1  C   UNL d   1      32.940  20.132 -22.229  0.00  0.00     0.302 C 
ATOM      2  N   UNL d   1      32.728  20.926 -22.172  0.00  0.00    -0.102 NA
ATOM      3  O   UNL d   1      33.220  19.724 -21.567  0.00  0.00    -0.263 OA
ENDROOT
BRANCH   1   4
ATOM      4  C   UNL d   1      32.875  19.730 -22.951  0.00  0.00     0.123 A 
ATOM      5  C   UNL d   1      32.975  20.132 -23.653  0.00  0.00     0.305 A 
ATOM      6  O   UNL d   1      32.908  19.719 -24.374  0.00  0.00    -0.273 OA
ATOM      7  O   UNL d   1      33.140  20.937 -23.652  0.00  0.00    -0.259 OA
ATOM      8  C   UNL d   1      32.743  18.914 -24.375  0.00  0.00     0.103 A 
ATOM      9  C   UNL d   1      32.642  18.509 -23.660  0.00  0.00     0.024 A 
ATOM     10  C   UNL d   1      32.678  18.512 -25.089  0.00  0.00     0.025 A 
ATOM     11  C   UNL d   1      32.710  18.921 -22.946  0.00  0.00     0.012 A 
ATOM     12  C   UNL d   1      32.478  17.705 -23.663  0.00  0.00     0.009 A 
ATOM     13  C   UNL d   1      32.411  17.294 -24.371  0.00  0.00     0.035 A 
ATOM     14  C   UNL d   1      32.512  17.700 -25.090  0.00  0.00     0.009 A 
ATOM     15 BR   UNL d   1      32.246  16.489 -24.373  0.00  0.00    -0.049 Br
ENDBRANCH   1   4
BRANCH   2  16
ATOM     16  N   UNL d   1      32.798  21.312 -21.446  0.00  0.00    -0.102 NA
ATOM     17  C   UNL d   1      32.471  22.062 -21.356  0.00  0.00     0.300 C 
ATOM     18  O   UNL d   1      32.077  22.427 -21.983  0.00  0.00    -0.264 OA
BRANCH  17  19
ATOM     19  C   UNL d   1      32.536  22.456 -20.633  0.00  0.00     0.098 A 
ATOM     20  C   UNL d   1      32.106  23.147 -20.503  0.00  0.00     0.203 A 
ATOM     21  C   UNL d   1      32.166  23.540 -19.789  0.00  0.00     0.084 A 
ATOM     22  O   UNL d   1      31.612  23.442 -21.093  0.00  0.00    -0.286 OA
ATOM     23  C   UNL d   1      32.659  23.248 -19.197  0.00  0.00     0.199 A 
ATOM     24  C   UNL d   1      33.092  22.556 -19.323  0.00  0.00     0.042 A 
ATOM     25  O   UNL d   1      32.721  23.643 -18.476  0.00  0.00    -0.286 OA
ATOM     26  C   UNL d   1      33.028  22.159 -20.049  0.00  0.00     0.011 A 
ENDBRANCH  17  19
ENDBRANCH   2  16
TORSDOF 3
ENDMDL
