MODEL 1
REMARK VINA RESULT:      69.1      0.000      0.000
REMARK  2 active torsions:
REMARK  status: ('A' for Active; 'I' for Inactive)
REMARK    1  A    between atoms: C_4  and  C_1 
REMARK    2  A    between atoms: C_8  and  C_2 
REMARK       I    between atoms: N_7  and  C_4 
ROOT
ATOM      1  C   UNL d   1     -51.488  24.659  33.995  0.00  0.00     0.081 A 
ATOM      2  C   UNL d   1     -52.005  24.144  33.641  0.00  0.00     0.104 A 
ATOM      3  C   UNL d   1     -50.724  24.364  33.952  0.00  0.00     0.033 A 
ATOM      4  O   UNL d   1     -51.558  23.493  33.359  0.00  0.00    -0.307 OA
ATOM      5  C   UNL d   1     -50.768  23.634  33.553  0.00  0.00     0.100 A 
ATOM      6  C   UNL d   1     -49.994  24.644  34.212  0.00  0.00     0.044 A 
ATOM      7  C   UNL d   1     -50.081  23.196  33.422  0.00  0.00     0.028 A 
ATOM      8  C   UNL d   1     -49.301  24.207  34.081  0.00  0.00     0.196 A 
ATOM      9  C   UNL d   1     -49.345  23.477  33.683  0.00  0.00     0.044 A 
ATOM     10  O   UNL d   1     -48.585  24.490  34.340  0.00  0.00    -0.287 OA
ENDROOT
BRANCH   1  11
ATOM     11  C   UNL d   1     -51.697  25.387  34.355  0.00  0.00     0.267 C 
ATOM     12  N   UNL d   1     -51.322  26.075  34.136  0.00  0.00    -0.268 N 
ATOM     13  C   UNL d   1     -51.530  26.803  34.494  0.00  0.00     0.110 A 
ATOM     14  C   UNL d   1     -50.725  26.072  33.553  0.00  0.00     0.110 A 
ATOM     15  C   UNL d   1     -51.145  27.495  34.266  0.00  0.00     0.142 A 
ATOM     16  O   UNL d   1     -50.559  27.490  33.693  0.00  0.00    -0.300 OA
ATOM     17  C   UNL d   1     -50.347  26.767  33.332  0.00  0.00     0.142 A 
ATOM     18  O   UNL d   1     -52.283  25.392  34.928  0.00  0.00    -0.267 OA
ENDBRANCH   1  11
BRANCH   2  19
ATOM     19  C   UNL d   1     -52.830  24.234  33.566  0.00  0.00     0.023 A 
ATOM     20  C   UNL d   1     -53.308  23.589  33.662  0.00  0.00     0.002 A 
ATOM     21  C   UNL d   1     -54.133  23.680  33.587  0.00  0.00     0.000 A 
ATOM     22  C   UNL d   1     -54.460  24.414  33.418  0.00  0.00     0.000 A 
ATOM     23  C   UNL d   1     -53.966  25.068  33.322  0.00  0.00     0.000 A 
ATOM     24  C   UNL d   1     -53.146  24.978  33.396  0.00  0.00     0.002 A 
ENDBRANCH   2  19
TORSDOF 2
ENDMDL
MODEL 2
REMARK VINA RESULT:      70.7      1.115      3.234
REMARK  2 active torsions:
REMARK  status: ('A' for Active; 'I' for Inactive)
REMARK    1  A    between atoms: C_4  and  C_1 
REMARK    2  A    between atoms: C_8  and  C_2 
REMARK       I    between atoms: N_7  and  C_4 
ROOT
ATOM      1  C   UNL d   1     -51.988  24.715  33.694  0.00  0.00     0.081 A 
ATOM      2  C   UNL d   1     -51.477  24.107  33.528  0.00  0.00     0.104 A 
ATOM      3  C   UNL d   1     -52.763  24.456  33.629  0.00  0.00     0.033 A 
ATOM      4  O   UNL d   1     -51.940  23.431  33.351  0.00  0.00    -0.307 OA
ATOM      5  C   UNL d   1     -52.733  23.652  33.415  0.00  0.00     0.100 A 
ATOM      6  C   UNL d   1     -53.493  24.825  33.732  0.00  0.00     0.044 A 
ATOM      7  C   UNL d   1     -53.434  23.230  33.306  0.00  0.00     0.028 A 
ATOM      8  C   UNL d   1     -54.200  24.404  33.624  0.00  0.00     0.196 A 
ATOM      9  C   UNL d   1     -54.170  23.600  33.410  0.00  0.00     0.044 A 
ATOM     10  O   UNL d   1     -54.915  24.774  33.727  0.00  0.00    -0.287 OA
ENDROOT
BRANCH   1  11
ATOM     11  C   UNL d   1     -51.762  25.496  33.901  0.00  0.00     0.267 C 
ATOM     12  N   UNL d   1     -51.767  25.731  34.680  0.00  0.00    -0.268 N 
ATOM     13  C   UNL d   1     -51.541  26.511  34.888  0.00  0.00     0.110 A 
ATOM     14  C   UNL d   1     -51.994  25.204  35.287  0.00  0.00     0.110 A 
ATOM     15  C   UNL d   1     -51.549  26.740  35.680  0.00  0.00     0.142 A 
ATOM     16  O   UNL d   1     -51.772  26.221  36.273  0.00  0.00    -0.300 OA
ATOM     17  C   UNL d   1     -51.998  25.443  36.073  0.00  0.00     0.142 A 
ATOM     18  O   UNL d   1     -51.539  26.015  33.307  0.00  0.00    -0.267 OA
ENDBRANCH   1  11
BRANCH   2  19
ATOM     19  C   UNL d   1     -50.644  24.137  33.531  0.00  0.00     0.023 A 
ATOM     20  C   UNL d   1     -50.226  23.465  33.697  0.00  0.00     0.002 A 
ATOM     21  C   UNL d   1     -49.393  23.495  33.700  0.00  0.00     0.000 A 
ATOM     22  C   UNL d   1     -48.999  24.196  33.537  0.00  0.00     0.000 A 
ATOM     23  C   UNL d   1     -49.432  24.878  33.369  0.00  0.00     0.000 A 
ATOM     24  C   UNL d   1     -50.260  24.848  33.366  0.00  0.00     0.002 A 
ENDBRANCH   2  19
TORSDOF 2
ENDMDL
