MODEL 1
REMARK VINA RESULT:      20.6      0.000      0.000
REMARK  3 active torsions:
REMARK  status: ('A' for Active; 'I' for Inactive)
REMARK    1  A    between atoms: C_11  and  N_2 
REMARK    2  A    between atoms: N_7  and  C_4 
REMARK    3  A    between atoms: C_14  and  C_11 
ROOT
ATOM      1  C   UNL d   1      46.177 -17.700  43.514  0.00  0.00     0.091 A 
ATOM      2  N   UNL d   1      45.908 -16.478  44.201  0.00  0.00    -0.211 N 
ATOM      3  C   UNL d   1      46.114 -17.273  44.216  0.00  0.00     0.170 A 
ATOM      4  C   UNL d   1      46.384 -18.494  43.537  0.00  0.00     0.154 A 
ATOM      5  N   UNL d   1      45.765 -16.107  43.480  0.00  0.00    -0.162 NA
ATOM      6  C   UNL d   1      45.829 -16.536  42.776  0.00  0.00     0.127 A 
ATOM      7  N   UNL d   1      46.257 -17.644  44.937  0.00  0.00    -0.205 NA
ATOM      8  N   UNL d   1      46.527 -18.868  44.248  0.00  0.00    -0.206 NA
ATOM      9  C   UNL d   1      46.463 -18.438  44.955  0.00  0.00     0.202 A 
ENDROOT
BRANCH   2  10
ATOM     10  C   UNL d   1      45.845 -16.052  44.903  0.00  0.00     0.102 C 
BRANCH  10  11
ATOM     11  C   UNL d   1      45.719 -15.242  44.883  0.00  0.00     0.019 A 
ATOM     12  C   UNL d   1      46.358 -14.724  44.853  0.00  0.00     0.002 A 
ATOM     13  C   UNL d   1      46.230 -13.911  44.833  0.00  0.00     0.011 A 
ATOM     14  C   UNL d   1      45.461 -13.616  44.843  0.00  0.00     0.058 A 
ATOM     15  C   UNL d   1      44.813 -14.140  44.873  0.00  0.00     0.011 A 
ATOM     16 CL   UNL d   1      45.328 -12.797  44.822  0.00  0.00    -0.082 Cl
ATOM     17  C   UNL d   1      44.947 -14.949  44.893  0.00  0.00     0.002 A 
ENDBRANCH  10  11
ENDBRANCH   2  10
BRANCH   4  18
ATOM     18  N   UNL d   1      46.449 -18.937  42.810  0.00  0.00    -0.289 N 
ATOM     19  C   UNL d   1      46.401 -19.795  42.840  0.00  0.00     0.082 A 
ATOM     20  C   UNL d   1      46.466 -20.247  42.114  0.00  0.00     0.019 A 
ATOM     21  C   UNL d   1      46.579 -19.836  41.368  0.00  0.00     0.003 A 
ATOM     22  C   UNL d   1      46.626 -18.987  41.340  0.00  0.00     0.019 A 
ATOM     23  C   UNL d   1      46.643 -20.286  40.646  0.00  0.00     0.000 C 
ATOM     24  C   UNL d   1      46.561 -18.538  42.062  0.00  0.00     0.082 A 
ENDBRANCH   4  18
TORSDOF 3
ENDMDL
