MODEL 1
REMARK VINA RESULT:      -4.3      0.000      0.000
REMARK  4 active torsions:
REMARK  status: ('A' for Active; 'I' for Inactive)
REMARK    1  A    between atoms: C_13  and  N_1 
REMARK    2  A    between atoms: N_6  and  C_15 
REMARK    3  A    between atoms: C_14  and  C_13 
REMARK    4  A    between atoms: C_15  and  C_14 
ROOT
ATOM      1  C   UNL d   1     -41.123-122.627 -52.424  0.00  0.00     0.087 C 
ENDROOT
BRANCH   1   2
ATOM      2  N   UNL d   1     -41.286-122.380 -51.652  0.00  0.00    -0.248 N 
ATOM      3  C   UNL d   1     -41.509-122.860 -51.045  0.00  0.00     0.208 A 
ATOM      4  N   UNL d   1     -41.611-122.399 -50.394  0.00  0.00    -0.212 NA
ATOM      5  S   UNL d   1     -41.634-123.612 -50.967  0.00  0.00    -0.038 SA
ATOM      6  C   UNL d   1     -41.453-121.641 -50.597  0.00  0.00     0.162 A 
ATOM      7  C   UNL d   1     -41.252-121.635 -51.381  0.00  0.00     0.286 A 
ATOM      8  O   UNL d   1     -41.123-121.007 -51.542  0.00  0.00    -0.265 OA
ENDBRANCH   1   2
BRANCH   1   9
ATOM      9  C   UNL d   1     -41.610-122.387 -53.047  0.00  0.00     0.038 C 
BRANCH   9  10
ATOM     10  C   UNL d   1     -41.548-122.753 -53.785  0.00  0.00     0.083 C 
BRANCH  10  11
ATOM     11  N   UNL d   1     -41.855-122.384 -54.454  0.00  0.00    -0.285 N 
ATOM     12  C   UNL d   1     -42.578-121.995 -54.502  0.00  0.00     0.183 A 
ATOM     13  N   UNL d   1     -42.661-121.708 -55.277  0.00  0.00    -0.222 NA
ATOM     14  C   UNL d   1     -41.994-121.920 -55.703  0.00  0.00     0.120 A 
ATOM     15  C   UNL d   1     -41.496-122.338 -55.194  0.00  0.00     0.102 A 
ENDBRANCH  10  11
ENDBRANCH   9  10
ENDBRANCH   1   9
TORSDOF 4
ENDMDL
MODEL 2
REMARK VINA RESULT:      -4.1      1.221      1.638
REMARK  4 active torsions:
REMARK  status: ('A' for Active; 'I' for Inactive)
REMARK    1  A    between atoms: C_13  and  N_1 
REMARK    2  A    between atoms: N_6  and  C_15 
REMARK    3  A    between atoms: C_14  and  C_13 
REMARK    4  A    between atoms: C_15  and  C_14 
ROOT
ATOM      1  C   UNL d   1     -41.366-122.457 -50.994  0.00  0.00     0.087 C 
ENDROOT
BRANCH   1   2
ATOM      2  N   UNL d   1     -41.869-122.667 -50.373  0.00  0.00    -0.248 N 
ATOM      3  C   UNL d   1     -41.711-123.220 -49.808  0.00  0.00     0.208 A 
ATOM      4  N   UNL d   1     -42.343-123.251 -49.313  0.00  0.00    -0.212 NA
ATOM      5  S   UNL d   1     -41.123-123.687 -49.659  0.00  0.00    -0.038 SA
ATOM      6  C   UNL d   1     -42.887-122.723 -49.568  0.00  0.00     0.162 A 
ATOM      7  C   UNL d   1     -42.588-122.362 -50.228  0.00  0.00     0.286 A 
ATOM      8  O   UNL d   1     -43.042-121.927 -50.434  0.00  0.00    -0.265 OA
ENDBRANCH   1   2
BRANCH   1   9
ATOM      9  C   UNL d   1     -41.640-122.477 -51.773  0.00  0.00     0.038 C 
BRANCH   9  10
ATOM     10  C   UNL d   1     -41.124-122.315 -52.398  0.00  0.00     0.083 C 
BRANCH  10  11
ATOM     11  N   UNL d   1     -41.339-122.504 -53.170  0.00  0.00    -0.285 N 
ATOM     12  C   UNL d   1     -41.796-122.039 -53.670  0.00  0.00     0.183 A 
ATOM     13  N   UNL d   1     -41.875-122.444 -54.391  0.00  0.00    -0.222 NA
ATOM     14  C   UNL d   1     -41.468-123.153 -54.334  0.00  0.00     0.120 A 
ATOM     15  C   UNL d   1     -41.137-123.190 -53.578  0.00  0.00     0.102 A 
ENDBRANCH  10  11
ENDBRANCH   9  10
ENDBRANCH   1   9
TORSDOF 4
ENDMDL
MODEL 3
REMARK VINA RESULT:      -2.8      1.973      2.873
REMARK  4 active torsions:
REMARK  status: ('A' for Active; 'I' for Inactive)
REMARK    1  A    between atoms: C_13  and  N_1 
REMARK    2  A    between atoms: N_6  and  C_15 
REMARK    3  A    between atoms: C_14  and  C_13 
REMARK    4  A    between atoms: C_15  and  C_14 
ROOT
ATOM      1  C   UNL d   1     -42.230-122.626 -49.903  0.00  0.00     0.087 C 
ENDROOT
BRANCH   1   2
ATOM      2  N   UNL d   1     -42.271-123.043 -49.190  0.00  0.00    -0.248 N 
ATOM      3  C   UNL d   1     -42.885-123.510 -48.957  0.00  0.00     0.208 A 
ATOM      4  N   UNL d   1     -42.702-123.809 -48.233  0.00  0.00    -0.212 NA
ATOM      5  S   UNL d   1     -43.558-123.713 -49.262  0.00  0.00    -0.038 SA
ATOM      6  C   UNL d   1     -41.983-123.529 -48.021  0.00  0.00     0.162 A 
ATOM      7  C   UNL d   1     -41.719-123.053 -48.620  0.00  0.00     0.286 A 
ATOM      8  O   UNL d   1     -41.126-122.825 -48.439  0.00  0.00    -0.265 OA
ENDBRANCH   1   2
BRANCH   1   9
ATOM      9  C   UNL d   1     -41.712-122.873 -50.497  0.00  0.00     0.038 C 
BRANCH   9  10
ATOM     10  C   UNL d   1     -41.487-122.349 -51.095  0.00  0.00     0.083 C 
BRANCH  10  11
ATOM     11  N   UNL d   1     -41.397-122.619 -51.867  0.00  0.00    -0.285 N 
ATOM     12  C   UNL d   1     -41.562-122.193 -52.550  0.00  0.00     0.183 A 
ATOM     13  N   UNL d   1     -41.391-122.680 -53.201  0.00  0.00    -0.222 NA
ATOM     14  C   UNL d   1     -41.123-123.400 -52.920  0.00  0.00     0.120 A 
ATOM     15  C   UNL d   1     -41.126-123.363 -52.095  0.00  0.00     0.102 A 
ENDBRANCH  10  11
ENDBRANCH   9  10
ENDBRANCH   1   9
TORSDOF 4
ENDMDL
MODEL 4
REMARK VINA RESULT:      -2.6      1.367      3.686
REMARK  4 active torsions:
REMARK  status: ('A' for Active; 'I' for Inactive)
REMARK    1  A    between atoms: C_13  and  N_1 
REMARK    2  A    between atoms: N_6  and  C_15 
REMARK    3  A    between atoms: C_14  and  C_13 
REMARK    4  A    between atoms: C_15  and  C_14 
ROOT
ATOM      1  C   UNL d   1     -41.210-122.321 -53.181  0.00  0.00     0.087 C 
ENDROOT
BRANCH   1   2
ATOM      2  N   UNL d   1     -41.570-122.448 -53.914  0.00  0.00    -0.248 N 
ATOM      3  C   UNL d   1     -41.539-123.132 -54.338  0.00  0.00     0.208 A 
ATOM      4  N   UNL d   1     -41.962-123.020 -55.013  0.00  0.00    -0.212 NA
ATOM      5  S   UNL d   1     -41.213-123.818 -54.237  0.00  0.00    -0.038 SA
ATOM      6  C   UNL d   1     -42.251-122.274 -55.006  0.00  0.00     0.162 A 
ATOM      7  C   UNL d   1     -42.005-121.922 -54.320  0.00  0.00     0.286 A 
ATOM      8  O   UNL d   1     -42.247-121.307 -54.321  0.00  0.00    -0.265 OA
ENDBRANCH   1   2
BRANCH   1   9
ATOM      9  C   UNL d   1     -41.632-122.452 -52.483  0.00  0.00     0.038 C 
BRANCH   9  10
ATOM     10  C   UNL d   1     -41.288-122.278 -51.752  0.00  0.00     0.083 C 
BRANCH  10  11
ATOM     11  N   UNL d   1     -41.687-122.464 -51.056  0.00  0.00    -0.285 N 
ATOM     12  C   UNL d   1     -42.334-122.062 -50.748  0.00  0.00     0.183 A 
ATOM     13  N   UNL d   1     -42.554-122.439 -50.041  0.00  0.00    -0.222 NA
ATOM     14  C   UNL d   1     -42.046-123.068 -49.916  0.00  0.00     0.120 A 
ATOM     15  C   UNL d   1     -41.509-123.084 -50.544  0.00  0.00     0.102 A 
ENDBRANCH  10  11
ENDBRANCH   9  10
ENDBRANCH   1   9
TORSDOF 4
ENDMDL
