MODEL 1
REMARK VINA RESULT:      16.9      0.000      0.000
REMARK  1 active torsions:
REMARK  status: ('A' for Active; 'I' for Inactive)
REMARK       I    between atoms: C_2  and  N_1 
REMARK    1  A    between atoms: C_4  and  C_2 
ROOT
ATOM      1  N   UNL d   1      13.762  12.555  -2.659  0.00  0.00    -0.272 N 
ATOM      2  C   UNL d   1      14.280  12.849  -2.085  0.00  0.00     0.287 C 
ATOM      3  C   UNL d   1      13.593  12.898  -3.392  0.00  0.00     0.067 A 
ATOM      4  C   UNL d   1      13.335  11.872  -2.584  0.00  0.00     0.083 A 
ATOM      5  O   UNL d   1      14.687  13.554  -2.222  0.00  0.00    -0.264 OA
ATOM      6  C   UNL d   1      13.053  12.422  -3.780  0.00  0.00     0.018 A 
ATOM      7  C   UNL d   1      12.886  11.780  -3.284  0.00  0.00     0.021 A 
ATOM      8  C   UNL d   1      13.861  13.579  -3.752  0.00  0.00     0.018 A 
ATOM      9  C   UNL d   1      12.774  12.620  -4.531  0.00  0.00     0.002 A 
ATOM     10  C   UNL d   1      13.591  13.789  -4.503  0.00  0.00     0.002 A 
ATOM     11  C   UNL d   1      13.048  13.308  -4.890  0.00  0.00     0.000 A 
ENDROOT
BRANCH   2  12
ATOM     12  C   UNL d   1      14.390  12.438  -1.374  0.00  0.00     0.156 A 
ATOM     13  O   UNL d   1      13.864  12.145  -0.804  0.00  0.00    -0.300 OA
ATOM     14  C   UNL d   1      14.302  11.784  -0.216  0.00  0.00     0.123 A 
ATOM     15  C   UNL d   1      15.093  11.844  -0.406  0.00  0.00     0.029 A 
ATOM     16  C   UNL d   1      15.157  12.247  -1.120  0.00  0.00     0.032 A 
ENDBRANCH   2  12
TORSDOF 1
ENDMDL
