MODEL 1
REMARK VINA RESULT:      -7.4      0.000      0.000
REMARK  6 active torsions:
REMARK  status: ('A' for Active; 'I' for Inactive)
REMARK    1  A    between atoms: C_14  and  N_1 
REMARK    2  A    between atoms: S_12  and  C_3 
REMARK    3  A    between atoms: C_4  and  N_11 
REMARK    4  A    between atoms: C_15  and  C_8 
REMARK       I    between atoms: N_11  and  C_13 
REMARK    5  A    between atoms: C_17  and  S_12 
REMARK    6  A    between atoms: C_13  and  C_17 
ROOT
ATOM      1  N   UNL d   1     -46.788  13.778  23.139  0.00  0.00    -0.018 NA
ATOM      2  C   UNL d   1     -47.332  13.938  22.538  0.00  0.00     0.302 C 
ATOM      3  O   UNL d   1     -47.274  13.564  21.819  0.00  0.00    -0.264 OA
ENDROOT
BRANCH   2   4
ATOM      4  C   UNL d   1     -47.934  14.481  22.669  0.00  0.00     0.101 C 
BRANCH   4   5
ATOM      5  S   UNL d   1     -48.719  14.233  22.688  0.00  0.00    -0.041 SA
BRANCH   5   6
ATOM      6  C   UNL d   1     -49.323  14.779  22.802  0.00  0.00     0.219 A 
ATOM      7  N   UNL d   1     -50.106  14.516  22.920  0.00  0.00    -0.186 N 
ATOM      8  N   UNL d   1     -50.583  15.172  23.017  0.00  0.00    -0.038 NA
ATOM      9  N   UNL d   1     -50.111  15.841  22.962  0.00  0.00    -0.022 NA
ATOM     10  N   UNL d   1     -49.329  15.601  22.829  0.00  0.00    -0.101 NA
BRANCH   7  11
ATOM     11  C   UNL d   1     -50.384  13.736  22.940  0.00  0.00     0.087 A 
ATOM     12  C   UNL d   1     -50.536  13.331  22.241  0.00  0.00     0.019 A 
ATOM     13  C   UNL d   1     -50.813  12.553  22.264  0.00  0.00     0.002 A 
ATOM     14  C   UNL d   1     -50.937  12.181  22.989  0.00  0.00     0.000 A 
ATOM     15  C   UNL d   1     -50.782  12.593  23.697  0.00  0.00     0.002 A 
ATOM     16  C   UNL d   1     -50.504  13.373  23.662  0.00  0.00     0.019 A 
ENDBRANCH   7  11
ENDBRANCH   5   6
ENDBRANCH   4   5
ENDBRANCH   2   4
BRANCH   1  17
ATOM     17  C   UNL d   1     -46.175  13.229  23.011  0.00  0.00     0.760 A 
ATOM     18  N   UNL d   1     -46.086  12.486  23.376  0.00  0.00    -0.051 NA
ATOM     19  C   UNL d   1     -45.400  12.142  23.077  0.00  0.00     0.147 A 
ATOM     20  S   UNL d   1     -45.071  12.659  22.540  0.00  0.00     0.052 SA
ATOM     21  N   UNL d   1     -45.551  13.325  22.503  0.00  0.00    -0.019 NA
BRANCH  19  22
ATOM     22  C   UNL d   1     -45.036  11.411  23.235  0.00  0.00     0.026 A 
ATOM     23  C   UNL d   1     -45.481  10.783  23.536  0.00  0.00     0.002 A 
ATOM     24  C   UNL d   1     -45.114  10.060  23.691  0.00  0.00     0.000 A 
ATOM     25  C   UNL d   1     -44.323   9.966  23.549  0.00  0.00     0.000 A 
ATOM     26  C   UNL d   1     -43.865  10.591  23.246  0.00  0.00     0.000 A 
ATOM     27  C   UNL d   1     -44.231  11.316  23.091  0.00  0.00     0.002 A 
ENDBRANCH  19  22
ENDBRANCH   1  17
TORSDOF 6
ENDMDL
MODEL 2
REMARK VINA RESULT:      -6.3      1.049      1.448
REMARK  6 active torsions:
REMARK  status: ('A' for Active; 'I' for Inactive)
REMARK    1  A    between atoms: C_14  and  N_1 
REMARK    2  A    between atoms: S_12  and  C_3 
REMARK    3  A    between atoms: C_4  and  N_11 
REMARK    4  A    between atoms: C_15  and  C_8 
REMARK       I    between atoms: N_11  and  C_13 
REMARK    5  A    between atoms: C_17  and  S_12 
REMARK    6  A    between atoms: C_13  and  C_17 
ROOT
ATOM      1  N   UNL d   1     -46.951  13.947  23.055  0.00  0.00    -0.018 NA
ATOM      2  C   UNL d   1     -47.496  14.162  22.473  0.00  0.00     0.302 C 
ATOM      3  O   UNL d   1     -47.427  13.875  21.717  0.00  0.00    -0.264 OA
ENDROOT
BRANCH   2   4
ATOM      4  C   UNL d   1     -48.112  14.671  22.663  0.00  0.00     0.101 C 
BRANCH   4   5
ATOM      5  S   UNL d   1     -48.874  14.378  22.771  0.00  0.00    -0.041 SA
BRANCH   5   6
ATOM      6  C   UNL d   1     -49.498  14.891  22.923  0.00  0.00     0.219 A 
ATOM      7  N   UNL d   1     -50.268  14.590  23.035  0.00  0.00    -0.186 N 
ATOM      8  N   UNL d   1     -50.769  15.219  23.175  0.00  0.00    -0.038 NA
ATOM      9  N   UNL d   1     -50.325  15.909  23.151  0.00  0.00    -0.022 NA
ATOM     10  N   UNL d   1     -49.536  15.709  22.995  0.00  0.00    -0.101 NA
BRANCH   7  11
ATOM     11  C   UNL d   1     -50.514  13.799  23.016  0.00  0.00     0.087 A 
ATOM     12  C   UNL d   1     -50.796  13.469  22.318  0.00  0.00     0.019 A 
ATOM     13  C   UNL d   1     -51.040  12.680  22.301  0.00  0.00     0.002 A 
ATOM     14  C   UNL d   1     -51.001  12.223  22.986  0.00  0.00     0.000 A 
ATOM     15  C   UNL d   1     -50.714  12.559  23.693  0.00  0.00     0.002 A 
ATOM     16  C   UNL d   1     -50.472  13.351  23.698  0.00  0.00     0.019 A 
ENDBRANCH   7  11
ENDBRANCH   5   6
ENDBRANCH   4   5
ENDBRANCH   2   4
BRANCH   1  17
ATOM     17  C   UNL d   1     -46.323  13.431  22.869  0.00  0.00     0.760 A 
ATOM     18  N   UNL d   1     -45.623  13.623  22.463  0.00  0.00    -0.051 NA
ATOM     19  C   UNL d   1     -45.169  12.938  22.409  0.00  0.00     0.147 A 
ATOM     20  S   UNL d   1     -45.579  12.335  22.774  0.00  0.00     0.052 SA
ATOM     21  N   UNL d   1     -46.287  12.643  23.055  0.00  0.00    -0.019 NA
BRANCH  19  22
ATOM     22  C   UNL d   1     -44.425  12.795  22.067  0.00  0.00     0.026 A 
ATOM     23  C   UNL d   1     -43.966  12.159  22.324  0.00  0.00     0.002 A 
ATOM     24  C   UNL d   1     -43.228  12.021  21.980  0.00  0.00     0.000 A 
ATOM     25  C   UNL d   1     -42.955  12.508  21.394  0.00  0.00     0.000 A 
ATOM     26  C   UNL d   1     -43.409  13.152  21.128  0.00  0.00     0.000 A 
ATOM     27  C   UNL d   1     -44.148  13.291  21.471  0.00  0.00     0.002 A 
ENDBRANCH  19  22
ENDBRANCH   1  17
TORSDOF 6
ENDMDL
MODEL 3
REMARK VINA RESULT:      -5.5      1.698      2.451
REMARK  6 active torsions:
REMARK  status: ('A' for Active; 'I' for Inactive)
REMARK    1  A    between atoms: C_14  and  N_1 
REMARK    2  A    between atoms: S_12  and  C_3 
REMARK    3  A    between atoms: C_4  and  N_11 
REMARK    4  A    between atoms: C_15  and  C_8 
REMARK       I    between atoms: N_11  and  C_13 
REMARK    5  A    between atoms: C_17  and  S_12 
REMARK    6  A    between atoms: C_13  and  C_17 
ROOT
ATOM      1  N   UNL d   1     -47.110  12.174  23.650  0.00  0.00    -0.018 NA
ATOM      2  C   UNL d   1     -47.722  11.668  23.424  0.00  0.00     0.302 C 
ATOM      3  O   UNL d   1     -47.576  11.034  22.938  0.00  0.00    -0.264 OA
ENDROOT
BRANCH   2   4
ATOM      4  C   UNL d   1     -48.485  11.807  23.696  0.00  0.00     0.101 C 
BRANCH   4   5
ATOM      5  S   UNL d   1     -48.970  12.350  23.311  0.00  0.00    -0.041 SA
BRANCH   5   6
ATOM      6  C   UNL d   1     -49.786  12.310  23.397  0.00  0.00     0.219 A 
ATOM      7  N   UNL d   1     -50.254  12.987  23.259  0.00  0.00    -0.186 N 
ATOM      8  N   UNL d   1     -51.036  12.787  23.385  0.00  0.00    -0.038 NA
ATOM      9  N   UNL d   1     -51.064  11.995  23.600  0.00  0.00    -0.022 NA
ATOM     10  N   UNL d   1     -50.291  11.696  23.608  0.00  0.00    -0.101 NA
BRANCH   7  11
ATOM     11  C   UNL d   1     -50.002  13.743  23.033  0.00  0.00     0.087 A 
ATOM     12  C   UNL d   1     -49.693  13.870  22.282  0.00  0.00     0.019 A 
ATOM     13  C   UNL d   1     -49.442  14.625  22.059  0.00  0.00     0.002 A 
ATOM     14  C   UNL d   1     -49.501  15.252  22.591  0.00  0.00     0.000 A 
ATOM     15  C   UNL d   1     -49.815  15.122  23.353  0.00  0.00     0.002 A 
ATOM     16  C   UNL d   1     -50.063  14.360  23.565  0.00  0.00     0.019 A 
ENDBRANCH   7  11
ENDBRANCH   5   6
ENDBRANCH   4   5
ENDBRANCH   2   4
BRANCH   1  17
ATOM     17  C   UNL d   1     -46.334  12.038  23.377  0.00  0.00     0.760 A 
ATOM     18  N   UNL d   1     -45.914  12.491  22.821  0.00  0.00    -0.051 NA
ATOM     19  C   UNL d   1     -45.172  12.146  22.727  0.00  0.00     0.147 A 
ATOM     20  S   UNL d   1     -45.134  11.493  23.214  0.00  0.00     0.052 SA
ATOM     21  N   UNL d   1     -45.850  11.431  23.611  0.00  0.00    -0.019 NA
BRANCH  19  22
ATOM     22  C   UNL d   1     -44.523  12.354  22.250  0.00  0.00     0.026 A 
ATOM     23  C   UNL d   1     -44.565  13.018  21.761  0.00  0.00     0.002 A 
ATOM     24  C   UNL d   1     -43.918  13.220  21.289  0.00  0.00     0.000 A 
ATOM     25  C   UNL d   1     -43.246  12.770  21.306  0.00  0.00     0.000 A 
ATOM     26  C   UNL d   1     -43.193  12.099  21.796  0.00  0.00     0.000 A 
ATOM     27  C   UNL d   1     -43.840  11.896  22.268  0.00  0.00     0.002 A 
ENDBRANCH  19  22
ENDBRANCH   1  17
TORSDOF 6
ENDMDL
MODEL 4
REMARK VINA RESULT:      -5.3      3.422      5.007
REMARK  6 active torsions:
REMARK  status: ('A' for Active; 'I' for Inactive)
REMARK    1  A    between atoms: C_14  and  N_1 
REMARK    2  A    between atoms: S_12  and  C_3 
REMARK    3  A    between atoms: C_4  and  N_11 
REMARK    4  A    between atoms: C_15  and  C_8 
REMARK       I    between atoms: N_11  and  C_13 
REMARK    5  A    between atoms: C_17  and  S_12 
REMARK    6  A    between atoms: C_13  and  C_17 
ROOT
ATOM      1  N   UNL d   1     -43.056  12.661  21.390  0.00  0.00    -0.018 NA
ATOM      2  C   UNL d   1     -43.797  12.975  21.578  0.00  0.00     0.302 C 
ATOM      3  O   UNL d   1     -43.942  13.769  21.494  0.00  0.00    -0.264 OA
ENDROOT
BRANCH   2   4
ATOM      4  C   UNL d   1     -44.391  12.477  21.852  0.00  0.00     0.101 C 
BRANCH   4   5
ATOM      5  S   UNL d   1     -45.024  12.783  22.279  0.00  0.00    -0.041 SA
BRANCH   5   6
ATOM      6  C   UNL d   1     -45.424  12.312  22.822  0.00  0.00     0.219 A 
ATOM      7  N   UNL d   1     -46.195  12.517  23.064  0.00  0.00    -0.186 N 
ATOM      8  N   UNL d   1     -46.452  11.956  23.600  0.00  0.00    -0.038 NA
ATOM      9  N   UNL d   1     -45.852  11.404  23.697  0.00  0.00    -0.022 NA
ATOM     10  N   UNL d   1     -45.213  11.622  23.216  0.00  0.00    -0.101 NA
BRANCH   7  11
ATOM     11  C   UNL d   1     -46.649  13.167  22.823  0.00  0.00     0.087 A 
ATOM     12  C   UNL d   1     -46.548  13.899  23.181  0.00  0.00     0.019 A 
ATOM     13  C   UNL d   1     -47.002  14.546  22.938  0.00  0.00     0.002 A 
ATOM     14  C   UNL d   1     -47.557  14.455  22.335  0.00  0.00     0.000 A 
ATOM     15  C   UNL d   1     -47.659  13.711  21.973  0.00  0.00     0.002 A 
ATOM     16  C   UNL d   1     -47.198  13.070  22.225  0.00  0.00     0.019 A 
ENDBRANCH   7  11
ENDBRANCH   5   6
ENDBRANCH   4   5
ENDBRANCH   2   4
BRANCH   1  17
ATOM     17  C   UNL d   1     -42.450  13.161  21.112  0.00  0.00     0.760 A 
ATOM     18  N   UNL d   1     -41.876  13.552  21.570  0.00  0.00    -0.051 NA
ATOM     19  C   UNL d   1     -41.396  13.981  21.056  0.00  0.00     0.147 A 
ATOM     20  S   UNL d   1     -41.668  13.859  20.297  0.00  0.00     0.052 SA
ATOM     21  N   UNL d   1     -42.315  13.355  20.336  0.00  0.00    -0.019 NA
BRANCH  19  22
ATOM     22  C   UNL d   1     -40.740  14.472  21.195  0.00  0.00     0.026 A 
ATOM     23  C   UNL d   1     -40.765  15.269  20.981  0.00  0.00     0.002 A 
ATOM     24  C   UNL d   1     -40.110  15.752  21.121  0.00  0.00     0.000 A 
ATOM     25  C   UNL d   1     -39.446  15.445  21.467  0.00  0.00     0.000 A 
ATOM     26  C   UNL d   1     -39.409  14.643  21.687  0.00  0.00     0.000 A 
ATOM     27  C   UNL d   1     -40.064  14.159  21.546  0.00  0.00     0.002 A 
ENDBRANCH  19  22
ENDBRANCH   1  17
TORSDOF 6
ENDMDL
MODEL 5
REMARK VINA RESULT:      -5.2      1.360      2.132
REMARK  6 active torsions:
REMARK  status: ('A' for Active; 'I' for Inactive)
REMARK    1  A    between atoms: C_14  and  N_1 
REMARK    2  A    between atoms: S_12  and  C_3 
REMARK    3  A    between atoms: C_4  and  N_11 
REMARK    4  A    between atoms: C_15  and  C_8 
REMARK       I    between atoms: N_11  and  C_13 
REMARK    5  A    between atoms: C_17  and  S_12 
REMARK    6  A    between atoms: C_13  and  C_17 
ROOT
ATOM      1  N   UNL d   1     -47.310  12.139  23.638  0.00  0.00    -0.018 NA
ATOM      2  C   UNL d   1     -47.951  11.700  23.357  0.00  0.00     0.302 C 
ATOM      3  O   UNL d   1     -47.833  11.062  22.870  0.00  0.00    -0.264 OA
ENDROOT
BRANCH   2   4
ATOM      4  C   UNL d   1     -48.714  11.913  23.574  0.00  0.00     0.101 C 
BRANCH   4   5
ATOM      5  S   UNL d   1     -49.039  12.623  23.310  0.00  0.00    -0.041 SA
BRANCH   5   6
ATOM      6  C   UNL d   1     -49.811  12.647  23.032  0.00  0.00     0.219 A 
ATOM      7  N   UNL d   1     -50.135  13.366  22.759  0.00  0.00    -0.186 N 
ATOM      8  N   UNL d   1     -50.902  13.226  22.519  0.00  0.00    -0.038 NA
ATOM      9  N   UNL d   1     -51.064  12.430  22.637  0.00  0.00    -0.022 NA
ATOM     10  N   UNL d   1     -50.390  12.068  22.955  0.00  0.00    -0.101 NA
BRANCH   7  11
ATOM     11  C   UNL d   1     -49.768  14.109  22.725  0.00  0.00     0.087 A 
ATOM     12  C   UNL d   1     -49.203  14.267  22.150  0.00  0.00     0.019 A 
ATOM     13  C   UNL d   1     -48.840  15.008  22.119  0.00  0.00     0.002 A 
ATOM     14  C   UNL d   1     -49.043  15.590  22.665  0.00  0.00     0.000 A 
ATOM     15  C   UNL d   1     -49.616  15.428  23.249  0.00  0.00     0.002 A 
ATOM     16  C   UNL d   1     -49.975  14.681  23.271  0.00  0.00     0.019 A 
ENDBRANCH   7  11
ENDBRANCH   5   6
ENDBRANCH   4   5
ENDBRANCH   2   4
BRANCH   1  17
ATOM     17  C   UNL d   1     -46.534  11.928  23.421  0.00  0.00     0.760 A 
ATOM     18  N   UNL d   1     -46.098  11.276  23.698  0.00  0.00    -0.051 NA
ATOM     19  C   UNL d   1     -45.361  11.293  23.330  0.00  0.00     0.147 A 
ATOM     20  S   UNL d   1     -45.340  11.942  22.837  0.00  0.00     0.052 SA
ATOM     21  N   UNL d   1     -46.063  12.329  22.896  0.00  0.00    -0.019 NA
BRANCH  19  22
ATOM     22  C   UNL d   1     -44.703  10.788  23.390  0.00  0.00     0.026 A 
ATOM     23  C   UNL d   1     -43.949  11.067  23.203  0.00  0.00     0.002 A 
ATOM     24  C   UNL d   1     -43.299  10.561  23.264  0.00  0.00     0.000 A 
ATOM     25  C   UNL d   1     -43.401   9.795  23.506  0.00  0.00     0.000 A 
ATOM     26  C   UNL d   1     -44.156   9.504  23.698  0.00  0.00     0.000 A 
ATOM     27  C   UNL d   1     -44.807  10.010  23.637  0.00  0.00     0.002 A 
ENDBRANCH  19  22
ENDBRANCH   1  17
TORSDOF 6
ENDMDL
MODEL 6
REMARK VINA RESULT:      -5.1      4.298      7.542
REMARK  6 active torsions:
REMARK  status: ('A' for Active; 'I' for Inactive)
REMARK    1  A    between atoms: C_14  and  N_1 
REMARK    2  A    between atoms: S_12  and  C_3 
REMARK    3  A    between atoms: C_4  and  N_11 
REMARK    4  A    between atoms: C_15  and  C_8 
REMARK       I    between atoms: N_11  and  C_13 
REMARK    5  A    between atoms: C_17  and  S_12 
REMARK    6  A    between atoms: C_13  and  C_17 
ROOT
ATOM      1  N   UNL d   1     -43.273  12.798  20.976  0.00  0.00    -0.018 NA
ATOM      2  C   UNL d   1     -42.626  13.287  21.134  0.00  0.00     0.302 C 
ATOM      3  O   UNL d   1     -42.579  13.694  21.836  0.00  0.00    -0.264 OA
ENDROOT
BRANCH   2   4
ATOM      4  C   UNL d   1     -42.027  13.361  20.577  0.00  0.00     0.101 C 
BRANCH   4   5
ATOM      5  S   UNL d   1     -41.445  13.937  20.667  0.00  0.00    -0.041 SA
BRANCH   5   6
ATOM      6  C   UNL d   1     -40.963  14.141  20.034  0.00  0.00     0.219 A 
ATOM      7  N   UNL d   1     -40.269  14.585  20.164  0.00  0.00    -0.186 N 
ATOM      8  N   UNL d   1     -39.903  14.705  19.444  0.00  0.00    -0.038 NA
ATOM      9  N   UNL d   1     -40.358  14.342  18.865  0.00  0.00    -0.022 NA
ATOM     10  N   UNL d   1     -41.016  13.992  19.227  0.00  0.00    -0.101 NA
BRANCH   7  11
ATOM     11  C   UNL d   1     -39.974  14.870  20.884  0.00  0.00     0.087 A 
ATOM     12  C   UNL d   1     -39.485  14.400  21.348  0.00  0.00     0.019 A 
ATOM     13  C   UNL d   1     -39.193  14.687  22.066  0.00  0.00     0.002 A 
ATOM     14  C   UNL d   1     -39.392  15.446  22.317  0.00  0.00     0.000 A 
ATOM     15  C   UNL d   1     -39.888  15.922  21.846  0.00  0.00     0.002 A 
ATOM     16  C   UNL d   1     -40.175  15.624  21.128  0.00  0.00     0.019 A 
ENDBRANCH   7  11
ENDBRANCH   5   6
ENDBRANCH   4   5
ENDBRANCH   2   4
BRANCH   1  17
ATOM     17  C   UNL d   1     -43.884  12.719  21.537  0.00  0.00     0.760 A 
ATOM     18  N   UNL d   1     -44.571  13.184  21.595  0.00  0.00    -0.051 NA
ATOM     19  C   UNL d   1     -45.010  12.901  22.232  0.00  0.00     0.147 A 
ATOM     20  S   UNL d   1     -44.604  12.276  22.561  0.00  0.00     0.052 SA
ATOM     21  N   UNL d   1     -43.913  12.168  22.130  0.00  0.00    -0.019 NA
BRANCH  19  22
ATOM     22  C   UNL d   1     -45.739  13.145  22.550  0.00  0.00     0.026 A 
ATOM     23  C   UNL d   1     -46.237  12.595  22.912  0.00  0.00     0.002 A 
ATOM     24  C   UNL d   1     -46.960  12.843  23.227  0.00  0.00     0.000 A 
ATOM     25  C   UNL d   1     -47.178  13.621  23.181  0.00  0.00     0.000 A 
ATOM     26  C   UNL d   1     -46.683  14.183  22.819  0.00  0.00     0.000 A 
ATOM     27  C   UNL d   1     -45.960  13.936  22.503  0.00  0.00     0.002 A 
ENDBRANCH  19  22
ENDBRANCH   1  17
TORSDOF 6
ENDMDL
MODEL 7
REMARK VINA RESULT:      -4.7      8.780      9.821
REMARK  6 active torsions:
REMARK  status: ('A' for Active; 'I' for Inactive)
REMARK    1  A    between atoms: C_14  and  N_1 
REMARK    2  A    between atoms: S_12  and  C_3 
REMARK    3  A    between atoms: C_4  and  N_11 
REMARK    4  A    between atoms: C_15  and  C_8 
REMARK       I    between atoms: N_11  and  C_13 
REMARK    5  A    between atoms: C_17  and  S_12 
REMARK    6  A    between atoms: C_13  and  C_17 
ROOT
ATOM      1  N   UNL d   1     -39.866  15.488  19.858  0.00  0.00    -0.018 NA
ATOM      2  C   UNL d   1     -40.276  14.874  19.487  0.00  0.00     0.302 C 
ATOM      3  O   UNL d   1     -40.231  14.116  19.774  0.00  0.00    -0.264 OA
ENDROOT
BRANCH   2   4
ATOM      4  C   UNL d   1     -40.732  15.034  18.823  0.00  0.00     0.101 C 
BRANCH   4   5
ATOM      5  S   UNL d   1     -40.374  15.148  18.091  0.00  0.00    -0.041 SA
BRANCH   5   6
ATOM      6  C   UNL d   1     -40.824  15.363  17.438  0.00  0.00     0.219 A 
ATOM      7  N   UNL d   1     -40.468  15.422  16.686  0.00  0.00    -0.186 N 
ATOM      8  N   UNL d   1     -41.042  15.642  16.148  0.00  0.00    -0.038 NA
ATOM      9  N   UNL d   1     -41.752  15.721  16.552  0.00  0.00    -0.022 NA
ATOM     10  N   UNL d   1     -41.621  15.548  17.352  0.00  0.00    -0.101 NA
BRANCH   7  11
ATOM     11  C   UNL d   1     -39.675  15.289  16.486  0.00  0.00     0.087 A 
ATOM     12  C   UNL d   1     -39.166  15.922  16.359  0.00  0.00     0.019 A 
ATOM     13  C   UNL d   1     -38.376  15.786  16.160  0.00  0.00     0.002 A 
ATOM     14  C   UNL d   1     -38.097  15.014  16.089  0.00  0.00     0.000 A 
ATOM     15  C   UNL d   1     -38.613  14.372  16.219  0.00  0.00     0.002 A 
ATOM     16  C   UNL d   1     -39.404  14.521  16.418  0.00  0.00     0.019 A 
ENDBRANCH   7  11
ENDBRANCH   5   6
ENDBRANCH   4   5
ENDBRANCH   2   4
BRANCH   1  17
ATOM     17  C   UNL d   1     -39.401  15.332  20.532  0.00  0.00     0.760 A 
ATOM     18  N   UNL d   1     -39.470  14.682  21.046  0.00  0.00    -0.051 NA
ATOM     19  C   UNL d   1     -38.895  14.763  21.630  0.00  0.00     0.147 A 
ATOM     20  S   UNL d   1     -38.479  15.448  21.481  0.00  0.00     0.052 SA
ATOM     21  N   UNL d   1     -38.794  15.794  20.805  0.00  0.00    -0.019 NA
BRANCH  19  22
ATOM     22  C   UNL d   1     -38.703  14.287  22.284  0.00  0.00     0.026 A 
ATOM     23  C   UNL d   1     -38.808  14.575  23.051  0.00  0.00     0.002 A 
ATOM     24  C   UNL d   1     -38.615  14.098  23.698  0.00  0.00     0.000 A 
ATOM     25  C   UNL d   1     -38.324  13.352  23.580  0.00  0.00     0.000 A 
ATOM     26  C   UNL d   1     -38.214  13.052  22.812  0.00  0.00     0.000 A 
ATOM     27  C   UNL d   1     -38.407  13.529  22.164  0.00  0.00     0.002 A 
ENDBRANCH  19  22
ENDBRANCH   1  17
TORSDOF 6
ENDMDL
