MODEL 1
REMARK VINA RESULT:      -7.7      0.000      0.000
REMARK  3 active torsions:
REMARK  status: ('A' for Active; 'I' for Inactive)
REMARK    1  A    between atoms: N_7  and  C_4 
REMARK    2  A    between atoms: N_9  and  N_7 
REMARK       I    between atoms: C_8  and  N_9 
REMARK    3  A    between atoms: C_10  and  C_8 
ROOT
ATOM      1  N   UNL d   1     -47.124  13.716  22.707  0.00  0.00    -0.127 NA
ENDROOT
BRANCH   1   2
ATOM      2  C   UNL d   1     -46.896  12.958  22.953  0.00  0.00     0.178 A 
ATOM      3  N   UNL d   1     -46.101  12.744  22.952  0.00  0.00    -0.240 N 
ATOM      4  C   UNL d   1     -45.875  11.995  23.195  0.00  0.00     0.343 A 
ATOM      5  C   UNL d   1     -45.529  13.287  22.703  0.00  0.00     0.105 C 
ATOM      6  N   UNL d   1     -46.447  11.452  23.444  0.00  0.00    -0.224 N 
ATOM      7  O   UNL d   1     -45.075  11.781  23.193  0.00  0.00    -0.245 OA
ATOM      8  C   UNL d   1     -47.251  11.652  23.451  0.00  0.00     0.271 A 
ATOM      9  C   UNL d   1     -46.218  10.695  23.690  0.00  0.00     0.107 C 
ATOM     10  C   UNL d   1     -47.468  12.415  23.202  0.00  0.00     0.101 A 
ATOM     11  O   UNL d   1     -47.816  11.115  23.697  0.00  0.00    -0.266 OA
ENDBRANCH   1   2
BRANCH   1  12
ATOM     12  N   UNL d   1     -47.849  14.027  22.949  0.00  0.00    -0.104 NA
ATOM     13  C   UNL d   1     -48.162  14.686  22.563  0.00  0.00     0.297 C 
ATOM     14  O   UNL d   1     -47.751  15.033  21.937  0.00  0.00    -0.264 OA
BRANCH  13  15
ATOM     15  C   UNL d   1     -48.888  14.996  22.805  0.00  0.00     0.059 A 
ATOM     16  C   UNL d   1     -49.583  14.714  22.470  0.00  0.00     0.005 A 
ATOM     17  C   UNL d   1     -50.308  15.019  22.706  0.00  0.00     0.000 A 
ATOM     18  C   UNL d   1     -51.007  14.733  22.367  0.00  0.00     0.000 C 
ATOM     19  C   UNL d   1     -50.339  15.617  23.288  0.00  0.00     0.000 A 
ATOM     20  C   UNL d   1     -49.639  15.898  23.623  0.00  0.00     0.000 A 
ATOM     21  C   UNL d   1     -51.064  15.917  23.520  0.00  0.00     0.000 C 
ATOM     22  C   UNL d   1     -48.914  15.582  23.375  0.00  0.00     0.005 A 
ENDBRANCH  13  15
ENDBRANCH   1  12
TORSDOF 3
ENDMDL
MODEL 2
REMARK VINA RESULT:      -7.0      1.477      4.609
REMARK  3 active torsions:
REMARK  status: ('A' for Active; 'I' for Inactive)
REMARK    1  A    between atoms: N_7  and  C_4 
REMARK    2  A    between atoms: N_9  and  N_7 
REMARK       I    between atoms: C_8  and  N_9 
REMARK    3  A    between atoms: C_10  and  C_8 
ROOT
ATOM      1  N   UNL d   1     -47.990  14.313  22.611  0.00  0.00    -0.127 NA
ENDROOT
BRANCH   1   2
ATOM      2  C   UNL d   1     -48.761  14.246  22.315  0.00  0.00     0.178 A 
ATOM      3  N   UNL d   1     -49.322  14.823  22.486  0.00  0.00    -0.240 N 
ATOM      4  C   UNL d   1     -50.084  14.757  22.193  0.00  0.00     0.343 A 
ATOM      5  C   UNL d   1     -49.115  15.472  22.955  0.00  0.00     0.105 C 
ATOM      6  N   UNL d   1     -50.292  14.108  21.724  0.00  0.00    -0.224 N 
ATOM      7  O   UNL d   1     -50.648  15.339  22.367  0.00  0.00    -0.245 OA
ATOM      8  C   UNL d   1     -49.739  13.519  21.543  0.00  0.00     0.271 A 
ATOM      9  C   UNL d   1     -51.063  14.042  21.429  0.00  0.00     0.107 C 
ATOM     10  C   UNL d   1     -48.968  13.597  21.846  0.00  0.00     0.101 A 
ATOM     11  O   UNL d   1     -49.944  12.878  21.079  0.00  0.00    -0.266 OA
ENDBRANCH   1   2
BRANCH   1  12
ATOM     12  N   UNL d   1     -47.496  13.652  22.628  0.00  0.00    -0.104 NA
ATOM     13  C   UNL d   1     -46.721  13.726  22.901  0.00  0.00     0.297 C 
ATOM     14  O   UNL d   1     -46.440  14.459  23.158  0.00  0.00    -0.264 OA
BRANCH  13  15
ATOM     15  C   UNL d   1     -46.227  13.065  22.917  0.00  0.00     0.059 A 
ATOM     16  C   UNL d   1     -46.478  12.379  23.295  0.00  0.00     0.005 A 
ATOM     17  C   UNL d   1     -45.991  11.718  23.315  0.00  0.00     0.000 A 
ATOM     18  C   UNL d   1     -46.245  11.029  23.696  0.00  0.00     0.000 C 
ATOM     19  C   UNL d   1     -45.240  11.743  22.951  0.00  0.00     0.000 A 
ATOM     20  C   UNL d   1     -44.991  12.432  22.572  0.00  0.00     0.000 A 
ATOM     21  C   UNL d   1     -44.759  11.081  22.973  0.00  0.00     0.000 C 
ATOM     22  C   UNL d   1     -45.492  13.093  22.559  0.00  0.00     0.005 A 
ENDBRANCH  13  15
ENDBRANCH   1  12
TORSDOF 3
ENDMDL
MODEL 3
REMARK VINA RESULT:      -6.7      1.510      1.745
REMARK  3 active torsions:
REMARK  status: ('A' for Active; 'I' for Inactive)
REMARK    1  A    between atoms: N_7  and  C_4 
REMARK    2  A    between atoms: N_9  and  N_7 
REMARK       I    between atoms: C_8  and  N_9 
REMARK    3  A    between atoms: C_10  and  C_8 
ROOT
ATOM      1  N   UNL d   1     -46.532  13.358  22.702  0.00  0.00    -0.127 NA
ENDROOT
BRANCH   1   2
ATOM      2  C   UNL d   1     -46.005  12.725  22.792  0.00  0.00     0.178 A 
ATOM      3  N   UNL d   1     -45.246  12.770  22.479  0.00  0.00    -0.240 N 
ATOM      4  C   UNL d   1     -44.725  12.144  22.568  0.00  0.00     0.343 A 
ATOM      5  C   UNL d   1     -45.009  13.450  22.072  0.00  0.00     0.105 C 
ATOM      6  N   UNL d   1     -44.962  11.464  22.974  0.00  0.00    -0.224 N 
ATOM      7  O   UNL d   1     -43.960  12.192  22.251  0.00  0.00    -0.245 OA
ATOM      8  C   UNL d   1     -45.722  11.403  23.296  0.00  0.00     0.271 A 
ATOM      9  C   UNL d   1     -44.434  10.832  23.064  0.00  0.00     0.107 C 
ATOM     10  C   UNL d   1     -46.242  12.045  23.199  0.00  0.00     0.101 A 
ATOM     11  O   UNL d   1     -45.957  10.731  23.698  0.00  0.00    -0.266 OA
ENDBRANCH   1   2
BRANCH   1  12
ATOM     12  N   UNL d   1     -47.327  13.212  22.535  0.00  0.00    -0.104 NA
ATOM     13  C   UNL d   1     -47.872  13.831  22.559  0.00  0.00     0.297 C 
ATOM     14  O   UNL d   1     -47.623  14.595  22.750  0.00  0.00    -0.264 OA
BRANCH  13  15
ATOM     15  C   UNL d   1     -48.667  13.685  22.392  0.00  0.00     0.059 A 
ATOM     16  C   UNL d   1     -49.187  13.516  23.005  0.00  0.00     0.005 A 
ATOM     17  C   UNL d   1     -49.979  13.369  22.845  0.00  0.00     0.000 A 
ATOM     18  C   UNL d   1     -50.502  13.200  23.464  0.00  0.00     0.000 C 
ATOM     19  C   UNL d   1     -50.256  13.392  22.058  0.00  0.00     0.000 A 
ATOM     20  C   UNL d   1     -49.732  13.561  21.444  0.00  0.00     0.000 A 
ATOM     21  C   UNL d   1     -51.047  13.245  21.904  0.00  0.00     0.000 C 
ATOM     22  C   UNL d   1     -48.935  13.708  21.619  0.00  0.00     0.005 A 
ENDBRANCH  13  15
ENDBRANCH   1  12
TORSDOF 3
ENDMDL
MODEL 4
REMARK VINA RESULT:      -6.3      8.403      9.704
REMARK  3 active torsions:
REMARK  status: ('A' for Active; 'I' for Inactive)
REMARK    1  A    between atoms: N_7  and  C_4 
REMARK    2  A    between atoms: N_9  and  N_7 
REMARK       I    between atoms: C_8  and  N_9 
REMARK    3  A    between atoms: C_10  and  C_8 
ROOT
ATOM      1  N   UNL d   1     -40.487  14.641  19.143  0.00  0.00    -0.127 NA
ENDROOT
BRANCH   1   2
ATOM      2  C   UNL d   1     -40.122  14.549  18.405  0.00  0.00     0.178 A 
ATOM      3  N   UNL d   1     -40.268  15.088  17.800  0.00  0.00    -0.240 N 
ATOM      4  C   UNL d   1     -39.907  14.997  17.070  0.00  0.00     0.343 A 
ATOM      5  C   UNL d   1     -40.780  15.724  17.931  0.00  0.00     0.105 C 
ATOM      6  N   UNL d   1     -39.394  14.362  16.939  0.00  0.00    -0.224 N 
ATOM      7  O   UNL d   1     -40.055  15.541  16.463  0.00  0.00    -0.245 OA
ATOM      8  C   UNL d   1     -39.237  13.811  17.537  0.00  0.00     0.271 A 
ATOM      9  C   UNL d   1     -39.030  14.270  16.201  0.00  0.00     0.107 C 
ATOM     10  C   UNL d   1     -39.609  13.914  18.274  0.00  0.00     0.101 A 
ATOM     11  O   UNL d   1     -38.730  13.182  17.408  0.00  0.00    -0.266 OA
ENDBRANCH   1   2
BRANCH   1  12
ATOM     12  N   UNL d   1     -40.026  14.712  19.824  0.00  0.00    -0.104 NA
ATOM     13  C   UNL d   1     -40.384  14.677  20.567  0.00  0.00     0.297 C 
ATOM     14  O   UNL d   1     -41.201  14.571  20.629  0.00  0.00    -0.264 OA
BRANCH  13  15
ATOM     15  C   UNL d   1     -39.923  14.748  21.248  0.00  0.00     0.059 A 
ATOM     16  C   UNL d   1     -39.626  14.073  21.610  0.00  0.00     0.005 A 
ATOM     17  C   UNL d   1     -39.166  14.137  22.288  0.00  0.00     0.000 A 
ATOM     18  C   UNL d   1     -38.868  13.456  22.651  0.00  0.00     0.000 C 
ATOM     19  C   UNL d   1     -39.002  14.889  22.610  0.00  0.00     0.000 A 
ATOM     20  C   UNL d   1     -39.301  15.565  22.245  0.00  0.00     0.000 A 
ATOM     21  C   UNL d   1     -38.543  14.947  23.285  0.00  0.00     0.000 C 
ATOM     22  C   UNL d   1     -39.763  15.487  21.560  0.00  0.00     0.005 A 
ENDBRANCH  13  15
ENDBRANCH   1  12
TORSDOF 3
ENDMDL
MODEL 5
REMARK VINA RESULT:      -6.3      8.494     10.112
REMARK  3 active torsions:
REMARK  status: ('A' for Active; 'I' for Inactive)
REMARK    1  A    between atoms: N_7  and  C_4 
REMARK    2  A    between atoms: N_9  and  N_7 
REMARK       I    between atoms: C_8  and  N_9 
REMARK    3  A    between atoms: C_10  and  C_8 
ROOT
ATOM      1  N   UNL d   1     -40.138  14.476  19.831  0.00  0.00    -0.127 NA
ENDROOT
BRANCH   1   2
ATOM      2  C   UNL d   1     -39.786  14.557  20.577  0.00  0.00     0.178 A 
ATOM      3  N   UNL d   1     -39.976  15.197  21.058  0.00  0.00    -0.240 N 
ATOM      4  C   UNL d   1     -39.627  15.277  21.795  0.00  0.00     0.343 A 
ATOM      5  C   UNL d   1     -40.521  15.761  20.796  0.00  0.00     0.105 C 
ATOM      6  N   UNL d   1     -39.082  14.713  22.058  0.00  0.00    -0.224 N 
ATOM      7  O   UNL d   1     -39.820  15.922  22.278  0.00  0.00    -0.245 OA
ATOM      8  C   UNL d   1     -38.880  14.063  21.585  0.00  0.00     0.271 A 
ATOM      9  C   UNL d   1     -38.730  14.794  22.803  0.00  0.00     0.107 C 
ATOM     10  C   UNL d   1     -39.241  13.993  20.839  0.00  0.00     0.101 A 
ATOM     11  O   UNL d   1     -38.341  13.506  21.845  0.00  0.00    -0.266 OA
ENDBRANCH   1   2
BRANCH   1  12
ATOM     12  N   UNL d   1     -39.667  14.386  19.160  0.00  0.00    -0.104 NA
ATOM     13  C   UNL d   1     -40.008  14.144  18.448  0.00  0.00     0.297 C 
ATOM     14  O   UNL d   1     -40.819  13.993  18.408  0.00  0.00    -0.264 OA
BRANCH  13  15
ATOM     15  C   UNL d   1     -39.536  14.054  17.777  0.00  0.00     0.059 A 
ATOM     16  C   UNL d   1     -39.061  13.388  17.700  0.00  0.00     0.005 A 
ATOM     17  C   UNL d   1     -38.590  13.292  17.035  0.00  0.00     0.000 A 
ATOM     18  C   UNL d   1     -38.112  12.621  16.959  0.00  0.00     0.000 C 
ATOM     19  C   UNL d   1     -38.592  13.874  16.436  0.00  0.00     0.000 A 
ATOM     20  C   UNL d   1     -39.069  14.542  16.515  0.00  0.00     0.000 A 
ATOM     21  C   UNL d   1     -38.120  13.774  15.775  0.00  0.00     0.000 C 
ATOM     22  C   UNL d   1     -39.541  14.626  17.192  0.00  0.00     0.005 A 
ENDBRANCH  13  15
ENDBRANCH   1  12
TORSDOF 3
ENDMDL
MODEL 6
REMARK VINA RESULT:      -6.2      1.747      4.381
REMARK  3 active torsions:
REMARK  status: ('A' for Active; 'I' for Inactive)
REMARK    1  A    between atoms: N_7  and  C_4 
REMARK    2  A    between atoms: N_9  and  N_7 
REMARK       I    between atoms: C_8  and  N_9 
REMARK    3  A    between atoms: C_10  and  C_8 
ROOT
ATOM      1  N   UNL d   1     -48.220  13.599  22.993  0.00  0.00    -0.127 NA
ENDROOT
BRANCH   1   2
ATOM      2  C   UNL d   1     -48.904  13.158  23.149  0.00  0.00     0.178 A 
ATOM      3  N   UNL d   1     -49.643  13.520  23.129  0.00  0.00    -0.240 N 
ATOM      4  C   UNL d   1     -50.320  13.084  23.283  0.00  0.00     0.343 A 
ATOM      5  C   UNL d   1     -49.702  14.325  22.951  0.00  0.00     0.105 C 
ATOM      6  N   UNL d   1     -50.261  12.279  23.461  0.00  0.00    -0.224 N 
ATOM      7  O   UNL d   1     -51.063  13.451  23.262  0.00  0.00    -0.245 OA
ATOM      8  C   UNL d   1     -49.525  11.901  23.486  0.00  0.00     0.271 A 
ATOM      9  C   UNL d   1     -50.946  11.840  23.617  0.00  0.00     0.107 C 
ATOM     10  C   UNL d   1     -48.845  12.353  23.327  0.00  0.00     0.101 A 
ATOM     11  O   UNL d   1     -49.467  11.104  23.662  0.00  0.00    -0.266 OA
ENDBRANCH   1   2
BRANCH   1  12
ATOM     12  N   UNL d   1     -47.515  13.212  22.807  0.00  0.00    -0.104 NA
ATOM     13  C   UNL d   1     -46.802  13.628  22.823  0.00  0.00     0.297 C 
ATOM     14  O   UNL d   1     -46.795  14.429  23.024  0.00  0.00    -0.264 OA
BRANCH  13  15
ATOM     15  C   UNL d   1     -46.097  13.241  22.637  0.00  0.00     0.059 A 
ATOM     16  C   UNL d   1     -45.922  12.522  22.994  0.00  0.00     0.005 A 
ATOM     17  C   UNL d   1     -45.222  12.132  22.813  0.00  0.00     0.000 A 
ATOM     18  C   UNL d   1     -45.046  11.408  23.173  0.00  0.00     0.000 C 
ATOM     19  C   UNL d   1     -44.688  12.467  22.265  0.00  0.00     0.000 A 
ATOM     20  C   UNL d   1     -44.867  13.189  21.908  0.00  0.00     0.000 A 
ATOM     21  C   UNL d   1     -43.992  12.074  22.088  0.00  0.00     0.000 C 
ATOM     22  C   UNL d   1     -45.577  13.572  22.100  0.00  0.00     0.005 A 
ENDBRANCH  13  15
ENDBRANCH   1  12
TORSDOF 3
ENDMDL
