MODEL 1
REMARK VINA RESULT:      -6.0      0.000      0.000
REMARK  2 active torsions:
REMARK  status: ('A' for Active; 'I' for Inactive)
REMARK    1  A    between atoms: C_6  and  C_2 
REMARK    2  A    between atoms: C_7  and  C_6 
ROOT
ATOM      1  N   UNL d   1      56.321  -1.341  32.219  0.00  0.00    -0.193 NA
ATOM      2  C   UNL d   1      56.789  -0.168  31.791  0.00  0.00     0.153 A 
ATOM      3  N   UNL d   1      56.278  -0.021  32.419  0.00  0.00    -0.306 N 
ATOM      4  C   UNL d   1      55.988  -0.746  32.683  0.00  0.00     0.147 A 
ATOM      5  C   UNL d   1      56.820  -0.982  31.662  0.00  0.00     0.276 A 
ATOM      6  C   UNL d   1      56.034   0.680  32.789  0.00  0.00     0.077 A 
ATOM      7  C   UNL d   1      55.451  -0.779  33.321  0.00  0.00     0.037 A 
ATOM      8  O   UNL d   1      57.266  -1.370  31.086  0.00  0.00    -0.268 OA
ATOM      9  C   UNL d   1      55.506   0.651  33.417  0.00  0.00     0.019 A 
ATOM     10  C   UNL d   1      55.213  -0.082  33.685  0.00  0.00     0.005 A 
ATOM     11  C   UNL d   1      56.818   0.655  31.850  0.00  0.00     0.033 C 
ENDROOT
BRANCH   2  12
ATOM     12  C   UNL d   1      57.300  -0.341  31.161  0.00  0.00     0.128 C 
BRANCH  12  13
ATOM     13  C   UNL d   1      57.680   0.274  30.766  0.00  0.00     0.188 C 
ATOM     14  O   UNL d   1      58.406   0.555  31.027  0.00  0.00    -0.647 OA
ATOM     15  O   UNL d   1      57.323   0.612  30.098  0.00  0.00    -0.647 OA
ENDBRANCH  12  13
ENDBRANCH   2  12
TORSDOF 2
ENDMDL
MODEL 2
REMARK VINA RESULT:      -5.8      1.697      2.740
REMARK  2 active torsions:
REMARK  status: ('A' for Active; 'I' for Inactive)
REMARK    1  A    between atoms: C_6  and  C_2 
REMARK    2  A    between atoms: C_7  and  C_6 
ROOT
ATOM      1  N   UNL d   1      56.570  -1.412  32.076  0.00  0.00    -0.193 NA
ATOM      2  C   UNL d   1      56.137  -0.284  32.639  0.00  0.00     0.153 A 
ATOM      3  N   UNL d   1      56.636  -0.080  32.017  0.00  0.00    -0.306 N 
ATOM      4  C   UNL d   1      56.904  -0.778  31.669  0.00  0.00     0.147 A 
ATOM      5  C   UNL d   1      56.092  -1.107  32.681  0.00  0.00     0.276 A 
ATOM      6  C   UNL d   1      56.885   0.652  31.717  0.00  0.00     0.077 A 
ATOM      7  C   UNL d   1      57.424  -0.751  31.018  0.00  0.00     0.037 A 
ATOM      8  O   UNL d   1      55.653  -1.546  33.224  0.00  0.00    -0.268 OA
ATOM      9  C   UNL d   1      57.397   0.681  31.076  0.00  0.00     0.019 A 
ATOM     10  C   UNL d   1      57.668  -0.024  30.725  0.00  0.00     0.005 A 
ATOM     11  C   UNL d   1      56.124   0.540  32.669  0.00  0.00     0.033 C 
ENDROOT
BRANCH   2  12
ATOM     12  C   UNL d   1      55.638  -0.515  33.259  0.00  0.00     0.128 C 
BRANCH  12  13
ATOM     13  C   UNL d   1      55.301   0.061  33.745  0.00  0.00     0.188 C 
ATOM     14  O   UNL d   1      54.562   0.375  33.570  0.00  0.00    -0.647 OA
ATOM     15  O   UNL d   1      55.714   0.323  34.414  0.00  0.00    -0.647 OA
ENDBRANCH  12  13
ENDBRANCH   2  12
TORSDOF 2
ENDMDL
MODEL 3
REMARK VINA RESULT:      -4.4      0.949      1.501
REMARK  2 active torsions:
REMARK  status: ('A' for Active; 'I' for Inactive)
REMARK    1  A    between atoms: C_6  and  C_2 
REMARK    2  A    between atoms: C_7  and  C_6 
ROOT
ATOM      1  N   UNL d   1      57.447   0.682  33.559  0.00  0.00    -0.193 NA
ATOM      2  C   UNL d   1      56.908   0.253  32.417  0.00  0.00     0.153 A 
ATOM      3  N   UNL d   1      56.324   0.229  32.996  0.00  0.00    -0.306 N 
ATOM      4  C   UNL d   1      56.657   0.494  33.702  0.00  0.00     0.147 A 
ATOM      5  C   UNL d   1      57.605   0.533  32.759  0.00  0.00     0.276 A 
ATOM      6  C   UNL d   1      55.527  -0.001  32.978  0.00  0.00     0.077 A 
ATOM      7  C   UNL d   1      56.198   0.532  34.397  0.00  0.00     0.037 A 
ATOM      8  O   UNL d   1      58.328   0.645  32.376  0.00  0.00    -0.268 OA
ATOM      9  C   UNL d   1      55.072   0.036  33.660  0.00  0.00     0.019 A 
ATOM     10  C   UNL d   1      55.409   0.303  34.373  0.00  0.00     0.005 A 
ATOM     11  C   UNL d   1      56.258  -0.032  31.996  0.00  0.00     0.033 C 
ENDROOT
BRANCH   2  12
ATOM     12  C   UNL d   1      57.513   0.288  31.851  0.00  0.00     0.128 C 
BRANCH  12  13
ATOM     13  C   UNL d   1      57.343   0.111  31.064  0.00  0.00     0.188 C 
ATOM     14  O   UNL d   1      57.022   0.680  30.567  0.00  0.00    -0.647 OA
ATOM     15  O   UNL d   1      57.499  -0.650  30.774  0.00  0.00    -0.647 OA
ENDBRANCH  12  13
ENDBRANCH   2  12
TORSDOF 2
ENDMDL
