MODEL 1
REMARK VINA RESULT:      -6.3      0.000      0.000
REMARK  4 active torsions:
REMARK  status: ('A' for Active; 'I' for Inactive)
REMARK    1  A    between atoms: C_2  and  N_1 
REMARK       I    between atoms: C_3  and  N_1 
REMARK    2  A    between atoms: C_6  and  C_3 
REMARK    3  A    between atoms: O_7  and  C_6 
REMARK    4  A    between atoms: C_9  and  O_7 
ROOT
ATOM      1  C   UNL d   1     -48.104  13.906  22.884  0.00  0.00     0.158 C 
ATOM      2  C   UNL d   1     -47.902  14.563  22.444  0.00  0.00     0.032 C 
ENDROOT
BRANCH   1   3
ATOM      3  C   UNL d   1     -47.604  13.251  22.901  0.00  0.00     0.304 C 
ATOM      4  N   UNL d   1     -47.427  12.883  23.611  0.00  0.00    -0.181 NA
ATOM      5  O   UNL d   1     -47.280  12.965  22.198  0.00  0.00    -0.263 OA
BRANCH   4   6
ATOM      6  C   UNL d   1     -46.928  12.229  23.628  0.00  0.00     0.197 A 
ATOM      7  N   UNL d   1     -46.100  12.250  23.591  0.00  0.00    -0.219 NA
ATOM      8  C   UNL d   1     -45.824  11.476  23.626  0.00  0.00     0.108 A 
ATOM      9  C   UNL d   1     -46.483  10.968  23.685  0.00  0.00     0.059 A 
ATOM     10  S   UNL d   1     -47.161  11.436  23.686  0.00  0.00    -0.046 SA
ENDBRANCH   4   6
ENDBRANCH   1   3
BRANCH   1  11
ATOM     11  O   UNL d   1     -48.810  13.900  23.311  0.00  0.00    -0.302 OA
BRANCH  11  12
ATOM     12  C   UNL d   1     -49.434  14.387  23.086  0.00  0.00     0.100 A 
ATOM     13  C   UNL d   1     -49.504  15.150  23.408  0.00  0.00     0.025 A 
ATOM     14  C   UNL d   1     -50.133  15.635  23.178  0.00  0.00     0.002 A 
ATOM     15  C   UNL d   1     -50.690  15.368  22.630  0.00  0.00     0.000 A 
ATOM     16  C   UNL d   1     -50.624  14.613  22.308  0.00  0.00     0.002 A 
ATOM     17  C   UNL d   1     -49.996  14.118  22.533  0.00  0.00     0.025 A 
ENDBRANCH  11  12
ENDBRANCH   1  11
TORSDOF 4
ENDMDL
MODEL 2
REMARK VINA RESULT:      -6.3      1.875      4.206
REMARK  4 active torsions:
REMARK  status: ('A' for Active; 'I' for Inactive)
REMARK    1  A    between atoms: C_2  and  N_1 
REMARK       I    between atoms: C_3  and  N_1 
REMARK    2  A    between atoms: C_6  and  C_3 
REMARK    3  A    between atoms: O_7  and  C_6 
REMARK    4  A    between atoms: C_9  and  O_7 
ROOT
ATOM      1  C   UNL d   1     -48.178  13.686  22.723  0.00  0.00     0.158 C 
ATOM      2  C   UNL d   1     -48.064  13.350  21.988  0.00  0.00     0.032 C 
ENDROOT
BRANCH   1   3
ATOM      3  C   UNL d   1     -48.909  14.013  22.918  0.00  0.00     0.304 C 
ATOM      4  N   UNL d   1     -49.046  14.813  22.811  0.00  0.00    -0.181 NA
ATOM      5  O   UNL d   1     -49.504  13.531  23.223  0.00  0.00    -0.263 OA
BRANCH   4   6
ATOM      6  C   UNL d   1     -49.776  15.141  23.006  0.00  0.00     0.197 A 
ATOM      7  N   UNL d   1     -50.461  15.109  22.540  0.00  0.00    -0.219 NA
ATOM      8  C   UNL d   1     -51.060  15.504  22.942  0.00  0.00     0.108 A 
ATOM      9  C   UNL d   1     -50.747  15.784  23.663  0.00  0.00     0.059 A 
ATOM     10  S   UNL d   1     -49.956  15.558  23.698  0.00  0.00    -0.046 SA
ENDBRANCH   4   6
ENDBRANCH   1   3
BRANCH   1  11
ATOM     11  O   UNL d   1     -47.559  13.697  23.269  0.00  0.00    -0.302 OA
BRANCH  11  12
ATOM     12  C   UNL d   1     -46.898  13.220  23.154  0.00  0.00     0.100 A 
ATOM     13  C   UNL d   1     -46.234  13.516  22.753  0.00  0.00     0.025 A 
ATOM     14  C   UNL d   1     -45.573  13.031  22.642  0.00  0.00     0.002 A 
ATOM     15  C   UNL d   1     -45.569  12.256  22.926  0.00  0.00     0.000 A 
ATOM     16  C   UNL d   1     -46.225  11.959  23.324  0.00  0.00     0.002 A 
ATOM     17  C   UNL d   1     -46.893  12.437  23.441  0.00  0.00     0.025 A 
ENDBRANCH  11  12
ENDBRANCH   1  11
TORSDOF 4
ENDMDL
MODEL 3
REMARK VINA RESULT:      -5.6      1.445      2.219
REMARK  4 active torsions:
REMARK  status: ('A' for Active; 'I' for Inactive)
REMARK    1  A    between atoms: C_2  and  N_1 
REMARK       I    between atoms: C_3  and  N_1 
REMARK    2  A    between atoms: C_6  and  C_3 
REMARK    3  A    between atoms: O_7  and  C_6 
REMARK    4  A    between atoms: C_9  and  O_7 
ROOT
ATOM      1  C   UNL d   1     -46.384  12.941  22.902  0.00  0.00     0.158 C 
ATOM      2  C   UNL d   1     -46.233  13.732  22.776  0.00  0.00     0.032 C 
ENDROOT
BRANCH   1   3
ATOM      3  C   UNL d   1     -45.762  12.401  22.936  0.00  0.00     0.304 C 
ATOM      4  N   UNL d   1     -45.818  11.735  23.410  0.00  0.00    -0.181 NA
ATOM      5  O   UNL d   1     -45.081  12.534  22.491  0.00  0.00    -0.263 OA
BRANCH   4   6
ATOM      6  C   UNL d   1     -45.197  11.196  23.444  0.00  0.00     0.197 A 
ATOM      7  N   UNL d   1     -44.410  11.348  23.230  0.00  0.00    -0.219 NA
ATOM      8  C   UNL d   1     -43.976  10.660  23.351  0.00  0.00     0.108 A 
ATOM      9  C   UNL d   1     -44.494  10.075  23.642  0.00  0.00     0.059 A 
ATOM     10  S   UNL d   1     -45.245  10.409  23.697  0.00  0.00    -0.046 SA
ENDBRANCH   4   6
ENDBRANCH   1   3
BRANCH   1  11
ATOM     11  O   UNL d   1     -47.163  12.683  22.995  0.00  0.00    -0.302 OA
BRANCH  11  12
ATOM     12  C   UNL d   1     -47.781  13.100  22.646  0.00  0.00     0.100 A 
ATOM     13  C   UNL d   1     -48.033  12.906  21.878  0.00  0.00     0.025 A 
ATOM     14  C   UNL d   1     -48.654  13.329  21.533  0.00  0.00     0.002 A 
ATOM     15  C   UNL d   1     -49.026  13.940  21.944  0.00  0.00     0.000 A 
ATOM     16  C   UNL d   1     -48.780  14.135  22.705  0.00  0.00     0.002 A 
ATOM     17  C   UNL d   1     -48.157  13.717  23.061  0.00  0.00     0.025 A 
ENDBRANCH  11  12
ENDBRANCH   1  11
TORSDOF 4
ENDMDL
MODEL 4
REMARK VINA RESULT:      -5.0      2.226      3.783
REMARK  4 active torsions:
REMARK  status: ('A' for Active; 'I' for Inactive)
REMARK    1  A    between atoms: C_2  and  N_1 
REMARK       I    between atoms: C_3  and  N_1 
REMARK    2  A    between atoms: C_6  and  C_3 
REMARK    3  A    between atoms: O_7  and  C_6 
REMARK    4  A    between atoms: C_9  and  O_7 
ROOT
ATOM      1  C   UNL d   1     -47.500  12.295  23.215  0.00  0.00     0.158 C 
ATOM      2  C   UNL d   1     -46.879  12.001  23.655  0.00  0.00     0.032 C 
ENDROOT
BRANCH   1   3
ATOM      3  C   UNL d   1     -48.264  12.013  23.340  0.00  0.00     0.304 C 
ATOM      4  N   UNL d   1     -48.901  12.528  23.335  0.00  0.00    -0.181 NA
ATOM      5  O   UNL d   1     -48.388  11.208  23.472  0.00  0.00    -0.263 OA
BRANCH   4   6
ATOM      6  C   UNL d   1     -49.665  12.248  23.460  0.00  0.00     0.197 A 
ATOM      7  N   UNL d   1     -49.874  11.458  23.605  0.00  0.00    -0.219 NA
ATOM      8  C   UNL d   1     -50.691  11.424  23.698  0.00  0.00     0.108 A 
ATOM      9  C   UNL d   1     -50.993  12.197  23.611  0.00  0.00     0.059 A 
ATOM     10  S   UNL d   1     -50.358  12.700  23.465  0.00  0.00    -0.046 SA
ENDBRANCH   4   6
ENDBRANCH   1   3
BRANCH   1  11
ATOM     11  O   UNL d   1     -47.360  12.875  22.644  0.00  0.00    -0.302 OA
BRANCH  11  12
ATOM     12  C   UNL d   1     -46.591  13.124  22.489  0.00  0.00     0.100 A 
ATOM     13  C   UNL d   1     -46.091  12.663  22.012  0.00  0.00     0.025 A 
ATOM     14  C   UNL d   1     -45.320  12.920  21.860  0.00  0.00     0.002 A 
ATOM     15  C   UNL d   1     -45.043  13.629  22.178  0.00  0.00     0.000 A 
ATOM     16  C   UNL d   1     -45.535  14.089  22.651  0.00  0.00     0.002 A 
ATOM     17  C   UNL d   1     -46.311  13.841  22.810  0.00  0.00     0.025 A 
ENDBRANCH  11  12
ENDBRANCH   1  11
TORSDOF 4
ENDMDL
MODEL 5
REMARK VINA RESULT:      -4.9      8.623      9.763
REMARK  4 active torsions:
REMARK  status: ('A' for Active; 'I' for Inactive)
REMARK    1  A    between atoms: C_2  and  N_1 
REMARK       I    between atoms: C_3  and  N_1 
REMARK    2  A    between atoms: C_6  and  C_3 
REMARK    3  A    between atoms: O_7  and  C_6 
REMARK    4  A    between atoms: C_9  and  O_7 
ROOT
ATOM      1  C   UNL d   1     -40.304  14.836  19.910  0.00  0.00     0.158 C 
ATOM      2  C   UNL d   1     -40.884  14.480  20.360  0.00  0.00     0.032 C 
ENDROOT
BRANCH   1   3
ATOM      3  C   UNL d   1     -40.498  15.194  19.194  0.00  0.00     0.304 C 
ATOM      4  N   UNL d   1     -40.299  14.836  18.485  0.00  0.00    -0.181 NA
ATOM      5  O   UNL d   1     -40.895  15.917  19.192  0.00  0.00    -0.263 OA
BRANCH   4   6
ATOM      6  C   UNL d   1     -40.493  15.193  17.769  0.00  0.00     0.197 A 
ATOM      7  N   UNL d   1     -41.218  15.123  17.373  0.00  0.00    -0.219 NA
ATOM      8  C   UNL d   1     -41.174  15.567  16.682  0.00  0.00     0.108 A 
ATOM      9  C   UNL d   1     -40.417  15.916  16.646  0.00  0.00     0.059 A 
ATOM     10  S   UNL d   1     -40.001  15.683  17.317  0.00  0.00    -0.046 SA
ENDBRANCH   4   6
ENDBRANCH   1   3
BRANCH   1  11
ATOM     11  O   UNL d   1     -39.522  14.836  20.176  0.00  0.00    -0.302 OA
BRANCH  11  12
ATOM     12  C   UNL d   1     -39.359  14.762  20.979  0.00  0.00     0.100 A 
ATOM     13  C   UNL d   1     -39.239  14.010  21.312  0.00  0.00     0.025 A 
ATOM     14  C   UNL d   1     -39.075  13.942  22.120  0.00  0.00     0.002 A 
ATOM     15  C   UNL d   1     -39.029  14.614  22.597  0.00  0.00     0.000 A 
ATOM     16  C   UNL d   1     -39.147  15.361  22.271  0.00  0.00     0.002 A 
ATOM     17  C   UNL d   1     -39.312  15.440  21.461  0.00  0.00     0.025 A 
ENDBRANCH  11  12
ENDBRANCH   1  11
TORSDOF 4
ENDMDL
MODEL 6
REMARK VINA RESULT:      -4.8      9.032     10.539
REMARK  4 active torsions:
REMARK  status: ('A' for Active; 'I' for Inactive)
REMARK    1  A    between atoms: C_2  and  N_1 
REMARK       I    between atoms: C_3  and  N_1 
REMARK    2  A    between atoms: C_6  and  C_3 
REMARK    3  A    between atoms: O_7  and  C_6 
REMARK    4  A    between atoms: C_9  and  O_7 
ROOT
ATOM      1  C   UNL d   1     -39.887  14.620  17.855  0.00  0.00     0.158 C 
ATOM      2  C   UNL d   1     -40.347  14.562  17.184  0.00  0.00     0.032 C 
ENDROOT
BRANCH   1   3
ATOM      3  C   UNL d   1     -40.243  14.666  18.597  0.00  0.00     0.304 C 
ATOM      4  N   UNL d   1     -40.044  15.267  19.115  0.00  0.00    -0.181 NA
ATOM      5  O   UNL d   1     -40.803  14.101  18.817  0.00  0.00    -0.263 OA
BRANCH   4   6
ATOM      6  C   UNL d   1     -40.399  15.314  19.856  0.00  0.00     0.197 A 
ATOM      7  N   UNL d   1     -40.295  14.776  20.479  0.00  0.00    -0.219 NA
ATOM      8  C   UNL d   1     -40.750  15.031  21.115  0.00  0.00     0.108 A 
ATOM      9  C   UNL d   1     -41.141  15.732  20.888  0.00  0.00     0.059 A 
ATOM     10  S   UNL d   1     -40.922  15.902  20.113  0.00  0.00    -0.046 SA
ENDBRANCH   4   6
ENDBRANCH   1   3
BRANCH   1  11
ATOM     11  O   UNL d   1     -39.064  14.633  17.788  0.00  0.00    -0.302 OA
BRANCH  11  12
ATOM     12  C   UNL d   1     -38.695  14.252  17.159  0.00  0.00     0.100 A 
ATOM     13  C   UNL d   1     -38.561  14.658  16.447  0.00  0.00     0.025 A 
ATOM     14  C   UNL d   1     -38.189  14.269  15.818  0.00  0.00     0.002 A 
ATOM     15  C   UNL d   1     -37.950  13.483  15.893  0.00  0.00     0.000 A 
ATOM     16  C   UNL d   1     -38.081  13.077  16.597  0.00  0.00     0.002 A 
ATOM     17  C   UNL d   1     -38.454  13.458  17.234  0.00  0.00     0.025 A 
ENDBRANCH  11  12
ENDBRANCH   1  11
TORSDOF 4
ENDMDL
MODEL 7
REMARK VINA RESULT:      -4.6      9.249     10.319
REMARK  4 active torsions:
REMARK  status: ('A' for Active; 'I' for Inactive)
REMARK    1  A    between atoms: C_2  and  N_1 
REMARK       I    between atoms: C_3  and  N_1 
REMARK    2  A    between atoms: C_6  and  C_3 
REMARK    3  A    between atoms: O_7  and  C_6 
REMARK    4  A    between atoms: C_9  and  O_7 
ROOT
ATOM      1  C   UNL d   1     -40.147  15.026  18.246  0.00  0.00     0.158 C 
ATOM      2  C   UNL d   1     -40.642  14.445  18.534  0.00  0.00     0.032 C 
ENDROOT
BRANCH   1   3
ATOM      3  C   UNL d   1     -39.781  14.931  17.514  0.00  0.00     0.304 C 
ATOM      4  N   UNL d   1     -39.038  14.589  17.464  0.00  0.00    -0.181 NA
ATOM      5  O   UNL d   1     -40.166  15.181  16.829  0.00  0.00    -0.263 OA
BRANCH   4   6
ATOM      6  C   UNL d   1     -38.672  14.494  16.732  0.00  0.00     0.197 A 
ATOM      7  N   UNL d   1     -38.694  13.810  16.265  0.00  0.00    -0.219 NA
ATOM      8  C   UNL d   1     -38.257  13.953  15.583  0.00  0.00     0.108 A 
ATOM      9  C   UNL d   1     -37.960  14.732  15.625  0.00  0.00     0.059 A 
ATOM     10  S   UNL d   1     -38.218  15.061  16.334  0.00  0.00    -0.046 SA
ENDBRANCH   4   6
ENDBRANCH   1   3
BRANCH   1  11
ATOM     11  O   UNL d   1     -40.014  15.708  18.692  0.00  0.00    -0.302 OA
BRANCH  11  12
ATOM     12  C   UNL d   1     -40.225  15.730  19.487  0.00  0.00     0.100 A 
ATOM     13  C   UNL d   1     -39.656  15.584  20.074  0.00  0.00     0.025 A 
ATOM     14  C   UNL d   1     -39.875  15.608  20.871  0.00  0.00     0.002 A 
ATOM     15  C   UNL d   1     -40.653  15.776  21.088  0.00  0.00     0.000 A 
ATOM     16  C   UNL d   1     -41.221  15.922  20.509  0.00  0.00     0.002 A 
ATOM     17  C   UNL d   1     -41.011  15.900  19.705  0.00  0.00     0.025 A 
ENDBRANCH  11  12
ENDBRANCH   1  11
TORSDOF 4
ENDMDL
MODEL 8
REMARK VINA RESULT:      -4.5      8.481      9.201
REMARK  4 active torsions:
REMARK  status: ('A' for Active; 'I' for Inactive)
REMARK    1  A    between atoms: C_2  and  N_1 
REMARK       I    between atoms: C_3  and  N_1 
REMARK    2  A    between atoms: C_6  and  C_3 
REMARK    3  A    between atoms: O_7  and  C_6 
REMARK    4  A    between atoms: C_9  and  O_7 
ROOT
ATOM      1  C   UNL d   1     -40.182  14.959  20.358  0.00  0.00     0.158 C 
ATOM      2  C   UNL d   1     -40.899  15.345  20.405  0.00  0.00     0.032 C 
ENDROOT
BRANCH   1   3
ATOM      3  C   UNL d   1     -39.906  14.522  20.999  0.00  0.00     0.304 C 
ATOM      4  N   UNL d   1     -39.137  14.617  21.264  0.00  0.00    -0.181 NA
ATOM      5  O   UNL d   1     -40.407  13.985  21.374  0.00  0.00    -0.263 OA
BRANCH   4   6
ATOM      6  C   UNL d   1     -38.860  14.180  21.905  0.00  0.00     0.197 A 
ATOM      7  N   UNL d   1     -38.631  13.383  21.885  0.00  0.00    -0.219 NA
ATOM      8  C   UNL d   1     -38.392  13.169  22.643  0.00  0.00     0.108 A 
ATOM      9  C   UNL d   1     -38.472  13.835  23.138  0.00  0.00     0.059 A 
ATOM     10  S   UNL d   1     -38.761  14.456  22.679  0.00  0.00    -0.046 SA
ENDBRANCH   4   6
ENDBRANCH   1   3
BRANCH   1  11
ATOM     11  O   UNL d   1     -39.735  15.009  19.665  0.00  0.00    -0.302 OA
BRANCH  11  12
ATOM     12  C   UNL d   1     -40.109  15.087  18.936  0.00  0.00     0.100 A 
ATOM     13  C   UNL d   1     -40.305  15.842  18.647  0.00  0.00     0.025 A 
ATOM     14  C   UNL d   1     -40.680  15.913  17.914  0.00  0.00     0.002 A 
ATOM     15  C   UNL d   1     -40.862  15.243  17.468  0.00  0.00     0.000 A 
ATOM     16  C   UNL d   1     -40.670  14.494  17.750  0.00  0.00     0.002 A 
ATOM     17  C   UNL d   1     -40.293  14.411  18.486  0.00  0.00     0.025 A 
ENDBRANCH  11  12
ENDBRANCH   1  11
TORSDOF 4
ENDMDL
