MODEL 1
REMARK VINA RESULT:      23.6      0.000      0.000
REMARK  4 active torsions:
REMARK  status: ('A' for Active; 'I' for Inactive)
REMARK    1  A    between atoms: N_7  and  C_1 
REMARK    2  A    between atoms: C_8  and  C_2 
REMARK    3  A    between atoms: C_11  and  N_7 
REMARK    4  A    between atoms: C_19  and  C_12 
ROOT
ATOM      1  C   UNL d   1      45.467 -15.181  44.640  0.00  0.00     0.189 A 
ATOM      2  C   UNL d   1      45.512 -14.379  44.451  0.00  0.00     0.119 A 
ATOM      3  C   UNL d   1      44.823 -13.924  44.428  0.00  0.00     0.204 A 
ATOM      4  O   UNL d   1      44.735 -15.525  44.804  0.00  0.00    -0.289 OA
ATOM      5  C   UNL d   1      44.099 -14.268  44.592  0.00  0.00     0.067 A 
ATOM      6  C   UNL d   1      44.055 -15.070  44.781  0.00  0.00     0.105 A 
ATOM      7  O   UNL d   1      44.868 -13.119  44.239  0.00  0.00    -0.286 OA
ATOM      8  C   UNL d   1      43.322 -15.436  44.951  0.00  0.00     0.027 C 
ENDROOT
BRANCH   1   9
ATOM      9  N   UNL d   1      46.173 -15.660  44.666  0.00  0.00    -0.222 NA
BRANCH   9  10
ATOM     10  C   UNL d   1      46.159 -16.438  44.404  0.00  0.00     0.084 A 
ATOM     11  C   UNL d   1      46.170 -17.063  44.949  0.00  0.00     0.019 A 
ATOM     12  C   UNL d   1      46.156 -17.845  44.686  0.00  0.00     0.002 A 
ATOM     13  C   UNL d   1      46.132 -18.006  43.876  0.00  0.00     0.000 A 
ATOM     14  C   UNL d   1      46.121 -17.390  43.337  0.00  0.00     0.002 A 
ATOM     15  C   UNL d   1      46.135 -16.608  43.600  0.00  0.00     0.019 A 
BRANCH  13  16
ATOM     16  C   UNL d   1      46.118 -18.791  43.612  0.00  0.00     0.000 C 
ATOM     17  C   UNL d   1      45.839 -18.967  42.863  0.00  0.00     0.000 C 
ENDBRANCH  13  16
ENDBRANCH   9  10
ENDBRANCH   1   9
BRANCH   2  18
ATOM     18  C   UNL d   1      46.263 -14.037  44.284  0.00  0.00     0.202 C 
ATOM     19  O   UNL d   1      46.612 -14.168  43.545  0.00  0.00    -0.286 OA
ATOM     20  C   UNL d   1      46.647 -13.579  44.844  0.00  0.00     0.046 C 
ENDBRANCH   2  18
TORSDOF 4
ENDMDL
