MODEL 1
REMARK VINA RESULT:      -4.5      0.000      0.000
REMARK  4 active torsions:
REMARK  status: ('A' for Active; 'I' for Inactive)
REMARK    1  A    between atoms: C_15  and  C_2 
REMARK    2  A    between atoms: C_5  and  S_13 
REMARK       I    between atoms: C_11  and  N_8 
REMARK    3  A    between atoms: C_18  and  C_11 
REMARK    4  A    between atoms: S_13  and  C_18 
ROOT
ATOM      1  N   UNL d   1     -41.415-122.346 -51.254  0.00  0.00    -0.272 N 
ATOM      2  C   UNL d   1     -41.427-122.125 -50.470  0.00  0.00     0.271 C 
ATOM      3  C   UNL d   1     -41.395-122.816 -52.835  0.00  0.00     0.023 A 
ATOM      4  C   UNL d   1     -41.233-121.807 -51.849  0.00  0.00     0.083 A 
ATOM      5  C   UNL d   1     -41.590-123.133 -51.456  0.00  0.00     0.083 A 
ATOM      6  O   UNL d   1     -41.257-121.357 -50.262  0.00  0.00    -0.266 OA
ATOM      7  C   UNL d   1     -41.223-122.042 -52.640  0.00  0.00     0.021 A 
ATOM      8  C   UNL d   1     -41.578-123.361 -52.251  0.00  0.00     0.021 A 
ENDROOT
BRANCH   2   9
ATOM      9  C   UNL d   1     -41.613-122.681 -49.880  0.00  0.00     0.099 C 
BRANCH   9  10
ATOM     10  S   UNL d   1     -41.963-122.430 -49.175  0.00  0.00    -0.054 SA
BRANCH  10  11
ATOM     11  C   UNL d   1     -41.958-122.922 -48.498  0.00  0.00     0.164 A 
ATOM     12  S   UNL d   1     -42.577-123.018 -47.961  0.00  0.00    -0.039 SA
ATOM     13  C   UNL d   1     -42.326-123.557 -47.379  0.00  0.00     0.134 A 
ATOM     14  C   UNL d   1     -42.778-123.815 -46.726  0.00  0.00     0.030 C 
ATOM     15  N   UNL d   1     -41.547-123.792 -47.561  0.00  0.00    -0.140 NA
ATOM     16  N   UNL d   1     -41.316-123.397 -48.259  0.00  0.00    -0.134 NA
ENDBRANCH  10  11
ENDBRANCH   9  10
ENDBRANCH   2   9
BRANCH   3  17
ATOM     17  C   UNL d   1     -41.387-123.054 -53.615  0.00  0.00     0.110 A 
ATOM     18  N   UNL d   1     -41.128-123.775 -53.890  0.00  0.00    -0.126 NA
ATOM     19  O   UNL d   1     -41.214-123.790 -54.712  0.00  0.00    -0.211 OA
ATOM     20  C   UNL d   1     -41.526-123.075 -54.938  0.00  0.00     0.127 A 
ATOM     21  C   UNL d   1     -41.733-122.764 -55.673  0.00  0.00     0.029 A 
ATOM     22  C   UNL d   1     -41.635-122.614 -54.258  0.00  0.00     0.047 A 
ATOM     23  C   UNL d   1     -42.040-122.016 -55.732  0.00  0.00     0.032 A 
ATOM     24  C   UNL d   1     -42.154-121.544 -55.057  0.00  0.00     0.140 A 
ATOM     25  C   UNL d   1     -41.943-121.866 -54.316  0.00  0.00     0.033 A 
ATOM     26  F   UNL d   1     -42.462-120.796 -55.115  0.00  0.00    -0.204 F 
ENDBRANCH   3  17
TORSDOF 4
ENDMDL
