MODEL 1
REMARK VINA RESULT:      -2.3      0.000      0.000
REMARK  5 active torsions:
REMARK  status: ('A' for Active; 'I' for Inactive)
REMARK    1  A    between atoms: N_6  and  S_1 
REMARK    2  A    between atoms: C_16  and  S_1 
REMARK    3  A    between atoms: N_2  and  C_15 
REMARK       I    between atoms: C_9  and  N_8 
REMARK    4  A    between atoms: C_10  and  C_9 
REMARK    5  A    between atoms: C_15  and  C_10 
ROOT
ATOM      1  N   UNL d   1     -41.780-122.540 -49.719  0.00  0.00    -0.226 N 
ATOM      2  N   UNL d   1     -41.470-121.915 -51.209  0.00  0.00    -0.269 N 
ATOM      3  C   UNL d   1     -41.316-121.610 -51.960  0.00  0.00     0.267 C 
ATOM      4  C   UNL d   1     -41.585-121.729 -49.793  0.00  0.00     0.111 A 
ATOM      5  C   UNL d   1     -41.817-123.023 -50.384  0.00  0.00     0.111 A 
ATOM      6  C   UNL d   1     -41.662-122.710 -51.131  0.00  0.00     0.103 A 
ATOM      7  C   UNL d   1     -41.429-121.416 -50.540  0.00  0.00     0.103 A 
ATOM      8  O   UNL d   1     -41.123-120.812 -52.044  0.00  0.00    -0.267 OA
ENDROOT
BRANCH   3   9
ATOM      9  C   UNL d   1     -41.356-122.099 -52.619  0.00  0.00     0.082 C 
BRANCH   9  10
ATOM     10  C   UNL d   1     -41.249-121.776 -53.371  0.00  0.00     0.105 C 
BRANCH  10  11
ATOM     11  N   UNL d   1     -41.560-122.168 -54.031  0.00  0.00    -0.228 N 
ATOM     12  N   UNL d   1     -41.398-122.940 -54.267  0.00  0.00    -0.165 NA
ATOM     13  C   UNL d   1     -41.827-123.103 -54.953  0.00  0.00     0.103 A 
ATOM     14  C   UNL d   1     -41.827-123.816 -55.377  0.00  0.00     0.022 C 
ATOM     15  C   UNL d   1     -42.260-122.429 -55.145  0.00  0.00     0.037 A 
ATOM     16  C   UNL d   1     -42.097-121.848 -54.577  0.00  0.00     0.084 A 
ATOM     17  C   UNL d   1     -42.765-122.344 -55.788  0.00  0.00     0.003 C 
ATOM     18  C   UNL d   1     -42.417-121.087 -54.564  0.00  0.00     0.021 C 
ENDBRANCH  10  11
ENDBRANCH   9  10
ENDBRANCH   3   9
BRANCH   1  19
ATOM     19  S   UNL d   1     -41.936-122.854 -48.968  0.00  0.00     0.271 S 
ATOM     20  O   UNL d   1     -42.753-122.834 -49.129  0.00  0.00    -0.200 OA
ATOM     21  O   UNL d   1     -41.128-122.875 -48.808  0.00  0.00    -0.200 OA
BRANCH  19  22
ATOM     22  C   UNL d   1     -42.093-123.171 -48.213  0.00  0.00     0.104 A 
ATOM     23  C   UNL d   1     -41.461-123.449 -47.753  0.00  0.00     0.013 A 
ATOM     24  C   UNL d   1     -41.618-123.765 -46.998  0.00  0.00     0.001 A 
ATOM     25  C   UNL d   1     -42.404-123.797 -46.719  0.00  0.00     0.000 A 
ATOM     26  C   UNL d   1     -43.024-123.514 -47.194  0.00  0.00     0.001 A 
ATOM     27  C   UNL d   1     -42.864-123.201 -47.941  0.00  0.00     0.013 A 
ENDBRANCH  19  22
ENDBRANCH   1  19
TORSDOF 5
ENDMDL
MODEL 2
REMARK VINA RESULT:      -1.8      1.508      6.047
REMARK  5 active torsions:
REMARK  status: ('A' for Active; 'I' for Inactive)
REMARK    1  A    between atoms: N_6  and  S_1 
REMARK    2  A    between atoms: C_16  and  S_1 
REMARK    3  A    between atoms: N_2  and  C_15 
REMARK       I    between atoms: C_9  and  N_8 
REMARK    4  A    between atoms: C_10  and  C_9 
REMARK    5  A    between atoms: C_15  and  C_10 
ROOT
ATOM      1  N   UNL d   1     -41.791-122.618 -53.033  0.00  0.00    -0.226 N 
ATOM      2  N   UNL d   1     -41.677-123.016 -51.441  0.00  0.00    -0.269 N 
ATOM      3  C   UNL d   1     -41.625-123.209 -50.641  0.00  0.00     0.267 C 
ATOM      4  C   UNL d   1     -41.278-123.237 -52.799  0.00  0.00     0.111 A 
ATOM      5  C   UNL d   1     -42.236-122.210 -52.474  0.00  0.00     0.111 A 
ATOM      6  C   UNL d   1     -42.179-122.409 -51.675  0.00  0.00     0.103 A 
ATOM      7  C   UNL d   1     -41.221-123.437 -52.001  0.00  0.00     0.103 A 
ATOM      8  O   UNL d   1     -41.123-123.817 -50.399  0.00  0.00    -0.267 OA
ENDROOT
BRANCH   3   9
ATOM      9  C   UNL d   1     -42.073-122.796 -50.088  0.00  0.00     0.082 C 
BRANCH   9  10
ATOM     10  C   UNL d   1     -42.586-123.209 -49.592  0.00  0.00     0.105 C 
BRANCH  10  11
ATOM     11  N   UNL d   1     -42.466-123.190 -48.773  0.00  0.00    -0.228 N 
ATOM     12  N   UNL d   1     -41.803-122.899 -48.379  0.00  0.00    -0.165 NA
ATOM     13  C   UNL d   1     -41.917-122.988 -47.567  0.00  0.00     0.103 A 
ATOM     14  C   UNL d   1     -41.387-122.768 -46.968  0.00  0.00     0.022 C 
ATOM     15  C   UNL d   1     -42.655-123.337 -47.453  0.00  0.00     0.037 A 
ATOM     16  C   UNL d   1     -42.998-123.463 -48.197  0.00  0.00     0.084 A 
ATOM     17  C   UNL d   1     -42.995-123.527 -46.729  0.00  0.00     0.003 C 
ATOM     18  C   UNL d   1     -43.738-123.802 -48.332  0.00  0.00     0.021 C 
ENDBRANCH  10  11
ENDBRANCH   9  10
ENDBRANCH   3   9
BRANCH   1  19
ATOM     19  S   UNL d   1     -41.849-122.418 -53.836  0.00  0.00     0.271 S 
ATOM     20  O   UNL d   1     -42.330-123.085 -53.968  0.00  0.00    -0.200 OA
ATOM     21  O   UNL d   1     -41.373-121.758 -53.705  0.00  0.00    -0.200 OA
BRANCH  19  22
ATOM     22  C   UNL d   1     -41.907-122.216 -54.642  0.00  0.00     0.104 A 
ATOM     23  C   UNL d   1     -42.658-122.118 -54.981  0.00  0.00     0.013 A 
ATOM     24  C   UNL d   1     -42.716-121.916 -55.787  0.00  0.00     0.001 A 
ATOM     25  C   UNL d   1     -42.021-121.818 -56.239  0.00  0.00     0.000 A 
ATOM     26  C   UNL d   1     -41.278-121.921 -55.883  0.00  0.00     0.001 A 
ATOM     27  C   UNL d   1     -41.225-122.120 -55.084  0.00  0.00     0.013 A 
ENDBRANCH  19  22
ENDBRANCH   1  19
TORSDOF 5
ENDMDL
