MODEL 1
REMARK VINA RESULT:      22.3      0.000      0.000
REMARK  5 active torsions:
REMARK  status: ('A' for Active; 'I' for Inactive)
REMARK    1  A    between atoms: O_8  and  S_1 
REMARK    2  A    between atoms: C_13  and  S_1 
REMARK    3  A    between atoms: C_7  and  C_2 
REMARK    4  A    between atoms: C_18  and  C_7 
REMARK    5  A    between atoms: C_14  and  O_8 
ROOT
ATOM      1  C   UNL d   1      45.365 -14.383  44.913  0.00  0.00     0.139 A 
ATOM      2  C   UNL d   1      45.115 -15.689  44.880  0.00  0.00     0.064 A 
ATOM      3  C   UNL d   1      44.762 -14.947  44.918  0.00  0.00     0.220 A 
ATOM      4  C   UNL d   1      45.934 -15.589  44.851  0.00  0.00     0.105 A 
ATOM      5  O   UNL d   1      46.088 -14.778  44.872  0.00  0.00    -0.304 OA
ATOM      6  C   UNL d   1      46.419 -16.243  44.811  0.00  0.00     0.050 A 
ATOM      7  C   UNL d   1      44.792 -16.446  44.868  0.00  0.00     0.007 A 
ATOM      8  C   UNL d   1      46.096 -17.000  44.799  0.00  0.00     0.116 A 
ATOM      9  O   UNL d   1      43.955 -14.786  44.955  0.00  0.00    -0.284 OA
ATOM     10  C   UNL d   1      45.285 -17.098  44.827  0.00  0.00     0.026 A 
ENDROOT
BRANCH   8  11
ATOM     11  O   UNL d   1      46.589 -17.656  44.758  0.00  0.00    -0.227 OA
BRANCH  11  12
ATOM     12  S   UNL d   1      46.510 -18.196  44.139  0.00  0.00     0.304 S 
ATOM     13  O   UNL d   1      46.392 -18.803  44.665  0.00  0.00    -0.193 OA
ATOM     14  O   UNL d   1      46.626 -17.596  43.602  0.00  0.00    -0.193 OA
BRANCH  12  15
ATOM     15  C   UNL d   1      46.430 -18.732  43.516  0.00  0.00     0.111 A 
ATOM     16  C   UNL d   1      46.514 -18.472  42.731  0.00  0.00     0.013 A 
ATOM     17  C   UNL d   1      46.435 -19.007  42.107  0.00  0.00     0.001 A 
ATOM     18  C   UNL d   1      46.272 -19.806  42.263  0.00  0.00     0.000 A 
ATOM     19  C   UNL d   1      46.190 -20.059  43.048  0.00  0.00     0.001 A 
ATOM     20  C   UNL d   1      46.269 -19.522  43.669  0.00  0.00     0.013 A 
ENDBRANCH  12  15
ENDBRANCH  11  12
ENDBRANCH   8  11
BRANCH   1  21
ATOM     21  C   UNL d   1      45.266 -13.564  44.944  0.00  0.00     0.029 C 
BRANCH  21  22
ATOM     22  C   UNL d   1      45.330 -13.107  44.256  0.00  0.00     0.021 A 
ATOM     23  C   UNL d   1      44.778 -13.205  43.658  0.00  0.00     0.099 A 
ATOM     24  N   UNL d   1      44.830 -12.759  42.973  0.00  0.00    -0.242 NA
ATOM     25  C   UNL d   1      45.445 -12.203  42.885  0.00  0.00     0.099 A 
ATOM     26  C   UNL d   1      45.998 -12.107  43.492  0.00  0.00     0.021 A 
ATOM     27  C   UNL d   1      45.934 -12.564  44.178  0.00  0.00     0.003 A 
ENDBRANCH  21  22
ENDBRANCH   1  21
TORSDOF 5
ENDMDL
MODEL 2
REMARK VINA RESULT:      22.6      1.775      5.009
REMARK  5 active torsions:
REMARK  status: ('A' for Active; 'I' for Inactive)
REMARK    1  A    between atoms: O_8  and  S_1 
REMARK    2  A    between atoms: C_13  and  S_1 
REMARK    3  A    between atoms: C_7  and  C_2 
REMARK    4  A    between atoms: C_18  and  C_7 
REMARK    5  A    between atoms: C_14  and  O_8 
ROOT
ATOM      1  C   UNL d   1      46.200 -17.844  43.960  0.00  0.00     0.139 A 
ATOM      2  C   UNL d   1      45.443 -16.882  44.479  0.00  0.00     0.064 A 
ATOM      3  C   UNL d   1      45.457 -17.679  44.280  0.00  0.00     0.220 A 
ATOM      4  C   UNL d   1      46.172 -16.549  44.285  0.00  0.00     0.105 A 
ATOM      5  O   UNL d   1      46.642 -17.148  43.963  0.00  0.00    -0.304 OA
ATOM      6  C   UNL d   1      46.306 -15.758  44.427  0.00  0.00     0.050 A 
ATOM      7  C   UNL d   1      44.853 -16.415  44.815  0.00  0.00     0.007 A 
ATOM      8  C   UNL d   1      45.717 -15.291  44.762  0.00  0.00     0.116 A 
ATOM      9  O   UNL d   1      44.845 -18.224  44.379  0.00  0.00    -0.284 OA
ATOM     10  C   UNL d   1      44.994 -15.620  44.955  0.00  0.00     0.026 A 
ENDROOT
BRANCH   8  11
ATOM     11  O   UNL d   1      45.857 -14.492  44.904  0.00  0.00    -0.227 OA
BRANCH  11  12
ATOM     12  S   UNL d   1      45.610 -13.927  44.356  0.00  0.00     0.304 S 
ATOM     13  O   UNL d   1      44.850 -14.211  44.386  0.00  0.00    -0.193 OA
ATOM     14  O   UNL d   1      46.368 -13.633  44.318  0.00  0.00    -0.193 OA
BRANCH  12  15
ATOM     15  C   UNL d   1      45.368 -13.358  43.808  0.00  0.00     0.111 A 
ATOM     16  C   UNL d   1      44.571 -13.126  43.774  0.00  0.00     0.013 A 
ATOM     17  C   UNL d   1      44.328 -12.559  43.227  0.00  0.00     0.001 A 
ATOM     18  C   UNL d   1      44.880 -12.218  42.708  0.00  0.00     0.000 A 
ATOM     19  C   UNL d   1      45.674 -12.454  42.746  0.00  0.00     0.001 A 
ATOM     20  C   UNL d   1      45.913 -13.022  43.295  0.00  0.00     0.013 A 
ENDBRANCH  12  15
ENDBRANCH  11  12
ENDBRANCH   8  11
BRANCH   1  21
ATOM     21  C   UNL d   1      46.460 -18.577  43.684  0.00  0.00     0.029 C 
BRANCH  21  22
ATOM     22  C   UNL d   1      46.492 -18.733  42.872  0.00  0.00     0.021 A 
ATOM     23  C   UNL d   1      46.402 -19.504  42.609  0.00  0.00     0.099 A 
ATOM     24  N   UNL d   1      46.432 -19.673  41.808  0.00  0.00    -0.242 NA
ATOM     25  C   UNL d   1      46.555 -19.058  41.259  0.00  0.00     0.099 A 
ATOM     26  C   UNL d   1      46.646 -18.282  41.529  0.00  0.00     0.021 A 
ATOM     27  C   UNL d   1      46.614 -18.126  42.341  0.00  0.00     0.003 A 
ENDBRANCH  21  22
ENDBRANCH   1  21
TORSDOF 5
ENDMDL
