MODEL 1
REMARK VINA RESULT:      28.8      0.000      0.000
REMARK  11 active torsions:
REMARK  status: ('A' for Active; 'I' for Inactive)
REMARK    1  A    between atoms: C_2  and  C_1 
REMARK       I    between atoms: N_5  and  C_1 
REMARK    2  A    between atoms: C_4  and  C_2 
REMARK    3  A    between atoms: C_3  and  C_4 
REMARK    4  A    between atoms: O_10  and  C_3 
REMARK    5  A    between atoms: N_9  and  C_4 
REMARK    6  A    between atoms: C_8  and  N_5 
REMARK    7  A    between atoms: C_17  and  N_9 
REMARK    8  A    between atoms: O_16  and  C_11 
REMARK    9  A    between atoms: C_19  and  C_17 
REMARK   10  A    between atoms: C_21  and  C_19 
REMARK   11  A    between atoms: C_20  and  C_21 
ROOT
ATOM      1  C   UNK d   1     -54.968-102.335 -40.805  0.00  0.00     0.084 C 
ENDROOT
BRANCH   1   2
ATOM      2  C   UNK d   1     -54.897-101.764 -41.405  0.00  0.00     0.259 C 
ATOM      3  N   UNK d   1     -55.007-101.979 -42.191  0.00  0.00    -0.321 N 
ATOM      4  H   UNK d   1     -55.189-102.760 -42.389  0.00  0.00     0.169 HD
ATOM      5  O   UNK d   1     -54.716-100.989 -41.201  0.00  0.00    -0.267 OA
BRANCH   3   6
ATOM      6  C   UNK d   1     -54.934-101.399 -42.788  0.00  0.00     0.059 A 
ATOM      7  C   UNK d   1     -54.897-100.604 -42.583  0.00  0.00     0.019 A 
ATOM      8  C   UNK d   1     -54.825-100.036 -43.174  0.00  0.00     0.026 A 
ATOM      9  C   UNK d   1     -54.789-100.259 -43.968  0.00  0.00     0.094 A 
ATOM     10  C   UNK d   1     -54.826-101.060 -44.167  0.00  0.00     0.026 A 
ATOM     11  C   UNK d   1     -54.899-101.628 -43.569  0.00  0.00     0.019 A 
BRANCH   9  12
ATOM     12  O   UNK d   1     -54.716 -99.691 -44.559  0.00  0.00    -0.328 OA
ATOM     13  C   UNK d   1     -55.252 -99.070 -44.599  0.00  0.00     0.181 C 
ENDBRANCH   9  12
ENDBRANCH   3   6
ENDBRANCH   1   2
BRANCH   1  14
ATOM     14  C   UNK d   1     -54.818-102.139 -40.025  0.00  0.00     0.124 C 
BRANCH  14  15
ATOM     15  C   UNK d   1     -54.770-101.347 -39.801  0.00  0.00     0.194 C 
ATOM     16  O   UNK d   1     -54.770-101.138 -38.995  0.00  0.00    -0.645 OA
BRANCH  15  17
ATOM     17  O   UNK d   1     -54.720-100.758 -40.370  0.00  0.00    -0.772 OA
ATOM     18  H   UNK d   1     -54.756-100.955 -41.170  0.00  0.00     0.167 HD
ENDBRANCH  15  17
ENDBRANCH  14  15
BRANCH  14  19
ATOM     19  N   UNK d   1     -54.714-102.739 -39.460  0.00  0.00    -0.347 N 
ATOM     20  H   UNK d   1     -54.027-103.195 -39.472  0.00  0.00     0.166 HD
BRANCH  19  21
ATOM     21  C   UNK d   0     -55.294-102.875 -38.892  0.00  0.00     0.073 C 
BRANCH  21  22
ATOM     22  C   UNK d   0     -55.109-102.803 -38.091  0.00  0.00     0.018 C 
BRANCH  22  23
ATOM     23  C   UNK d   0     -55.711-102.628 -37.550  0.00  0.00     0.002 C 
BRANCH  23  24
ATOM     24  C   UNK d   0     -55.607-102.762 -36.745  0.00  0.00     0.000 C 
ATOM     25  C   UNK d   0     -56.082-102.354 -36.207  0.00  0.00     0.000 C 
ENDBRANCH  23  24
ENDBRANCH  22  23
ENDBRANCH  21  22
ENDBRANCH  19  21
ENDBRANCH  14  19
ENDBRANCH   1  14
TORSDOF 11
ENDMDL
