MODEL 1
REMARK VINA RESULT:      10.8      0.000      0.000
REMARK  3 active torsions:
REMARK  status: ('A' for Active; 'I' for Inactive)
REMARK    1  A    between atoms: N_6  and  S_1 
REMARK    2  A    between atoms: C_7  and  S_1 
REMARK    3  A    between atoms: C_10  and  N_6 
ROOT
ATOM      1  S   UNL d   1      45.815 -16.484  44.086  0.00  0.00     0.327 S 
ATOM      2  O   UNL d   1      45.578 -17.100  44.575  0.00  0.00    -0.186 OA
ATOM      3  O   UNL d   1      46.263 -16.642  43.414  0.00  0.00    -0.186 OA
ENDROOT
BRANCH   1   4
ATOM      4  N   UNL d   1      46.021 -17.259  43.911  0.00  0.00    -0.317 NA
BRANCH   4   5
ATOM      5  C   UNL d   1      46.232 -18.053  43.733  0.00  0.00     0.145 A 
ATOM      6  C   UNL d   1      46.334 -18.279  42.940  0.00  0.00     0.033 A 
ATOM      7  C   UNL d   1      46.542 -19.062  42.767  0.00  0.00     0.003 A 
ATOM      8  C   UNL d   1      46.645 -19.299  41.986  0.00  0.00     0.000 C 
ATOM      9  C   UNL d   1      46.647 -19.608  43.382  0.00  0.00     0.000 A 
ATOM     10  C   UNL d   1      46.543 -19.372  44.164  0.00  0.00     0.003 A 
ATOM     11  C   UNL d   1      46.336 -18.592  44.337  0.00  0.00     0.033 A 
ATOM     12  C   UNL d   1      46.646 -19.909  44.775  0.00  0.00     0.000 C 
ENDBRANCH   4   5
ENDBRANCH   1   4
BRANCH   1  13
ATOM     13  C   UNL d   1      45.604 -15.713  44.267  0.00  0.00     0.118 A 
ATOM     14  C   UNL d   1      46.030 -15.086  43.950  0.00  0.00     0.035 A 
ATOM     15  C   UNL d   1      45.821 -14.305  44.131  0.00  0.00     0.105 A 
ATOM     16  N   UNL d   1      46.136 -13.577  43.902  0.00  0.00    -0.189 NA
ATOM     17  C   UNL d   1      45.177 -14.157  44.636  0.00  0.00     0.104 A 
ATOM     18  C   UNL d   1      45.689 -12.974  44.264  0.00  0.00     0.369 A 
ATOM     19  O   UNL d   1      45.814 -12.165  44.186  0.00  0.00    -0.242 OA
ATOM     20  N   UNL d   1      45.100 -13.339  44.715  0.00  0.00    -0.189 NA
ATOM     21  C   UNL d   1      44.750 -14.792  44.955  0.00  0.00     0.022 A 
ATOM     22  C   UNL d   1      44.967 -15.566  44.767  0.00  0.00     0.016 A 
ENDBRANCH   1  13
TORSDOF 3
ENDMDL
