MODEL 1
REMARK VINA RESULT:      90.7      0.000      0.000
REMARK  7 active torsions:
REMARK  status: ('A' for Active; 'I' for Inactive)
REMARK    1  A    between atoms: S_2  and  C_1 
REMARK    2  A    between atoms: C_7  and  S_2 
REMARK    3  A    between atoms: C_9  and  N_3 
REMARK    4  A    between atoms: C_11  and  C_7 
REMARK    5  A    between atoms: C_8  and  C_9 
REMARK       I    between atoms: N_10  and  C_8 
REMARK       I    between atoms: N_15  and  C_11 
REMARK    6  A    between atoms: C_12  and  C_16 
REMARK    7  A    between atoms: C_23  and  N_15 
ROOT
ATOM      1  C   UNL d   1      60.809  48.635  50.409  0.00  0.00     0.107 A 
ATOM      2  N   UNL d   1      59.683  49.249  50.765  0.00  0.00    -0.299 N 
ATOM      3  C   UNL d   1      60.040  48.817  50.162  0.00  0.00     0.092 A 
ATOM      4  C   UNL d   1      60.920  48.955  51.160  0.00  0.00     0.028 A 
ATOM      5  C   UNL d   1      60.219  49.335  51.379  0.00  0.00     0.065 A 
ATOM      6  C   UNL d   1      61.564  48.949  51.669  0.00  0.00     0.002 A 
ATOM      7  C   UNL d   1      60.173  49.708  52.112  0.00  0.00     0.018 A 
ATOM      8  C   UNL d   1      61.518  49.323  52.406  0.00  0.00     0.000 A 
ATOM      9  C   UNL d   1      60.817  49.702  52.623  0.00  0.00     0.002 A 
ENDROOT
BRANCH   1  10
ATOM     10  S   UNL d   1      61.368  48.206  49.974  0.00  0.00     0.217 S 
ATOM     11  O   UNL d   1      61.420  47.618  50.540  0.00  0.00    -0.217 OA
ATOM     12  O   UNL d   1      61.312  48.806  49.401  0.00  0.00    -0.217 OA
BRANCH  10  13
ATOM     13  C   UNL d   1      61.928  47.781  49.535  0.00  0.00     0.161 C 
BRANCH  13  14
ATOM     14  C   UNL d   1      62.052  46.992  49.691  0.00  0.00     0.291 C 
ATOM     15  N   UNL d   1      61.482  46.432  49.491  0.00  0.00    -0.207 NA
ATOM     16  O   UNL d   1      62.755  46.748  50.054  0.00  0.00    -0.264 OA
BRANCH  15  17
ATOM     17  C   UNL d   1      61.612  45.633  49.651  0.00  0.00     0.085 A 
ATOM     18  C   UNL d   1      61.278  45.282  50.322  0.00  0.00     0.019 A 
ATOM     19  C   UNL d   1      61.403  44.488  50.487  0.00  0.00     0.006 A 
ATOM     20  C   UNL d   1      61.870  44.025  49.976  0.00  0.00     0.059 A 
ATOM     21  C   UNL d   1      62.208  44.365  49.304  0.00  0.00     0.006 A 
ATOM     22  C   UNL d   1      62.079  45.174  49.138  0.00  0.00     0.019 A 
BRANCH  20  23
ATOM     23  C   UNL d   1      62.000  43.234  50.132  0.00  0.00     0.297 C 
ATOM     24  O   UNL d   1      62.106  42.689  49.516  0.00  0.00    -0.264 OA
ATOM     25  N   UNL d   1      62.028  42.968  50.926  0.00  0.00    -0.102 N 
ENDBRANCH  20  23
ENDBRANCH  15  17
ENDBRANCH  13  14
ENDBRANCH  10  13
ENDBRANCH   1  10
BRANCH   2  26
ATOM     26  C   UNL d   1      58.914  49.544  50.753  0.00  0.00     0.142 C 
BRANCH  26  27
ATOM     27  C   UNL d   1      58.513  49.618  50.039  0.00  0.00     0.282 C 
ATOM     28  N   UNL d   1      57.689  49.604  50.025  0.00  0.00    -0.271 N 
ATOM     29  C   UNL d   1      57.259  49.514  50.725  0.00  0.00     0.083 A 
ATOM     30  C   UNL d   1      57.288  49.678  49.312  0.00  0.00     0.083 A 
ATOM     31  C   UNL d   1      56.431  49.500  50.711  0.00  0.00     0.019 A 
ATOM     32  C   UNL d   1      56.035  49.574  49.997  0.00  0.00     0.003 A 
ATOM     33  C   UNL d   1      56.456  49.663  49.298  0.00  0.00     0.019 A 
ATOM     34  O   UNL d   1      58.935  49.707  49.340  0.00  0.00    -0.265 OA
ENDBRANCH  26  27
ENDBRANCH   2  26
TORSDOF 7
ENDMDL
