MODEL 1
REMARK VINA RESULT:      22.1      0.000      0.000
REMARK  2 active torsions:
REMARK  status: ('A' for Active; 'I' for Inactive)
REMARK    1  A    between atoms: C_8  and  C_6 
REMARK    2  A    between atoms: C_9  and  C_8 
ROOT
ATOM      1  N   UNL d   1      58.857  49.706  49.490  0.00  0.00    -0.207 NA
ATOM      2  N   UNL d   1      58.854  49.704  51.162  0.00  0.00    -0.240 NA
ATOM      3  C   UNL d   1      59.462  49.706  50.046  0.00  0.00     0.297 A 
ATOM      4  C   UNL d   1      58.043  49.706  49.610  0.00  0.00     0.086 A 
ATOM      5  C   UNL d   1      58.041  49.704  51.042  0.00  0.00     0.083 A 
ATOM      6  C   UNL d   1      59.451  49.705  50.600  0.00  0.00     0.144 A 
ATOM      7  C   UNL d   1      57.627  49.705  50.326  0.00  0.00     0.035 A 
ATOM      8  O   UNL d   1      60.169  49.707  49.724  0.00  0.00    -0.264 OA
ATOM      9  C   UNL d   1      56.805  49.704  50.326  0.00  0.00     0.003 A 
ATOM     10  C   UNL d   1      57.631  49.703  51.754  0.00  0.00     0.019 A 
ATOM     11  C   UNL d   1      57.627  49.707  48.890  0.00  0.00     0.019 A 
ATOM     12  C   UNL d   1      56.798  49.706  48.894  0.00  0.00     0.002 A 
ATOM     13  C   UNL d   1      56.810  49.703  51.754  0.00  0.00     0.002 A 
ATOM     14  C   UNL d   1      56.396  49.703  51.039  0.00  0.00     0.000 A 
ATOM     15  C   UNL d   1      56.393  49.705  49.613  0.00  0.00     0.000 A 
ENDROOT
BRANCH   6  16
ATOM     16  C   UNL d   1      60.277  49.706  50.599  0.00  0.00     0.088 C 
BRANCH  16  17
ATOM     17  C   UNL d   1      60.706  49.333  51.210  0.00  0.00     0.299 C 
ATOM     18  O   UNL d   1      60.758  49.698  51.944  0.00  0.00    -0.264 OA
ATOM     19  N   UNL d   1      61.077  48.603  51.082  0.00  0.00    -0.102 N 
ENDBRANCH  16  17
ENDBRANCH   6  16
TORSDOF 2
ENDMDL
MODEL 2
REMARK VINA RESULT:      24.9      0.489      1.768
REMARK  2 active torsions:
REMARK  status: ('A' for Active; 'I' for Inactive)
REMARK    1  A    between atoms: C_8  and  C_6 
REMARK    2  A    between atoms: C_9  and  C_8 
ROOT
ATOM      1  N   UNL d   1      58.481  49.669  51.453  0.00  0.00    -0.207 NA
ATOM      2  N   UNL d   1      58.801  49.661  49.811  0.00  0.00    -0.240 NA
ATOM      3  C   UNL d   1      59.182  49.678  51.023  0.00  0.00     0.297 A 
ATOM      4  C   UNL d   1      57.705  49.654  51.178  0.00  0.00     0.086 A 
ATOM      5  C   UNL d   1      57.980  49.647  49.772  0.00  0.00     0.083 A 
ATOM      6  C   UNL d   1      59.278  49.675  50.477  0.00  0.00     0.144 A 
ATOM      7  C   UNL d   1      57.435  49.643  50.394  0.00  0.00     0.035 A 
ATOM      8  O   UNL d   1      59.813  49.692  51.476  0.00  0.00    -0.264 OA
ATOM      9  C   UNL d   1      56.629  49.627  50.236  0.00  0.00     0.003 A 
ATOM     10  C   UNL d   1      57.715  49.636  48.994  0.00  0.00     0.019 A 
ATOM     11  C   UNL d   1      57.158  49.649  51.803  0.00  0.00     0.019 A 
ATOM     12  C   UNL d   1      56.345  49.634  51.640  0.00  0.00     0.002 A 
ATOM     13  C   UNL d   1      56.910  49.621  48.836  0.00  0.00     0.002 A 
ATOM     14  C   UNL d   1      56.365  49.617  49.458  0.00  0.00     0.000 A 
ATOM     15  C   UNL d   1      56.087  49.623  50.856  0.00  0.00     0.000 A 
ENDROOT
BRANCH   6  16
ATOM     16  C   UNL d   1      60.087  49.690  50.638  0.00  0.00     0.088 C 
BRANCH  16  17
ATOM     17  C   UNL d   1      60.633  49.324  50.123  0.00  0.00     0.299 C 
ATOM     18  O   UNL d   1      60.827  49.693  49.416  0.00  0.00    -0.264 OA
ATOM     19  N   UNL d   1      60.977  48.596  50.320  0.00  0.00    -0.102 N 
ENDBRANCH  16  17
ENDBRANCH   6  16
TORSDOF 2
ENDMDL
