MODEL 1
REMARK VINA RESULT:      32.2      0.000      0.000
REMARK  4 active torsions:
REMARK  status: ('A' for Active; 'I' for Inactive)
REMARK    1  A    between atoms: C_6  and  C_1 
REMARK    2  A    between atoms: N_4  and  C_2 
REMARK       I    between atoms: C_3  and  N_4 
REMARK       I    between atoms: N_9  and  C_3 
REMARK    3  A    between atoms: C_15  and  N_9 
REMARK    4  A    between atoms: C_23  and  C_15 
ROOT
ATOM      1  C   UNL d   1      45.716 -12.861  43.736  0.00  0.00     0.040 A 
ATOM      2  C   UNL d   1      45.382 -14.026  43.885  0.00  0.00     0.109 A 
ATOM      3  C   UNL d   1      45.272 -13.160  43.337  0.00  0.00     0.035 A 
ATOM      4  C   UNL d   1      46.029 -12.172  43.789  0.00  0.00    -0.023 A 
ATOM      5  C   UNL d   1      46.168 -13.387  44.540  0.00  0.00     0.013 A 
ATOM      6  C   UNL d   1      46.095 -12.903  44.219  0.00  0.00    -0.011 A 
ATOM      7  C   UNL d   1      46.248 -14.051  44.955  0.00  0.00     0.025 A 
ATOM      8  C   UNL d   1      45.571 -13.264  43.752  0.00  0.00    -0.005 A 
ATOM      9  C   UNL d   1      45.720 -14.419  44.486  0.00  0.00     0.031 A 
ATOM     10  C   UNL d   1      46.433 -13.297  44.820  0.00  0.00    -0.027 A 
ENDROOT
BRANCH   2  11
ATOM     11  N   UNL d   1      45.118 -14.807  43.936  0.00  0.00    -0.217 NA
ATOM     12  C   UNL d   1      45.635 -15.428  43.787  0.00  0.00     0.360 C 
ATOM     13  N   UNL d   1      45.379 -16.210  43.836  0.00  0.00    -0.214 NA
ATOM     14  O   UNL d   1      46.425 -15.268  43.583  0.00  0.00    -0.243 OA
BRANCH  13  15
ATOM     15  C   UNL d   1      45.901 -16.839  43.684  0.00  0.00     0.147 C 
ATOM     16  C   UNL d   1      45.447 -16.902  42.992  0.00  0.00     0.033 C 
ATOM     17  C   UNL d   1      46.349 -16.770  44.376  0.00  0.00     0.033 C 
BRANCH  15  18
ATOM     18  C   UNL d   1      46.417 -17.467  43.527  0.00  0.00     0.229 C 
ATOM     19  O   UNL d   1      46.248 -17.990  42.908  0.00  0.00    -0.286 OA
ENDBRANCH  15  18
ENDBRANCH  13  15
ENDBRANCH   2  11
BRANCH   1  20
ATOM     20  C   UNL d   1      45.259 -12.669  43.086  0.00  0.00    -0.019 A 
ATOM     21  C   UNL d   1      44.446 -12.521  43.174  0.00  0.00    -0.004 A 
ATOM     22  C   UNL d   1      43.983 -12.327  42.520  0.00  0.00    -0.000 A 
ATOM     23  C   UNL d   1      44.332 -12.279  41.766  0.00  0.00    -0.000 A 
ATOM     24  C   UNL d   1      45.139 -12.428  41.684  0.00  0.00    -0.000 A 
ATOM     25  C   UNL d   1      43.871 -12.085  41.108  0.00  0.00    -0.000 C 
ATOM     26  C   UNL d   1      45.602 -12.622  42.339  0.00  0.00    -0.004 A 
ENDBRANCH   1  20
TORSDOF 4
ENDMDL
MODEL 2
REMARK VINA RESULT:      32.8      2.084      5.257
REMARK  4 active torsions:
REMARK  status: ('A' for Active; 'I' for Inactive)
REMARK    1  A    between atoms: C_6  and  C_1 
REMARK    2  A    between atoms: N_4  and  C_2 
REMARK       I    between atoms: C_3  and  N_4 
REMARK       I    between atoms: N_9  and  C_3 
REMARK    3  A    between atoms: C_15  and  N_9 
REMARK    4  A    between atoms: C_23  and  C_15 
ROOT
ATOM      1  C   UNL d   1      46.300 -18.996  43.635  0.00  0.00     0.040 A 
ATOM      2  C   UNL d   1      46.323 -17.777  43.567  0.00  0.00     0.109 A 
ATOM      3  C   UNL d   1      46.354 -18.672  43.055  0.00  0.00     0.035 A 
ATOM      4  C   UNL d   1      46.271 -19.721  43.859  0.00  0.00    -0.023 A 
ATOM      5  C   UNL d   1      46.230 -18.466  44.553  0.00  0.00     0.013 A 
ATOM      6  C   UNL d   1      46.248 -18.965  44.248  0.00  0.00    -0.011 A 
ATOM      7  C   UNL d   1      46.206 -17.780  44.938  0.00  0.00     0.025 A 
ATOM      8  C   UNL d   1      46.312 -18.573  43.567  0.00  0.00    -0.005 A 
ATOM      9  C   UNL d   1      46.270 -17.381  44.252  0.00  0.00     0.031 A 
ATOM     10  C   UNL d   1      46.196 -18.568  44.934  0.00  0.00    -0.027 A 
ENDROOT
BRANCH   2  11
ATOM     11  N   UNL d   1      46.344 -16.959  43.457  0.00  0.00    -0.217 NA
ATOM     12  C   UNL d   1      45.916 -16.465  43.956  0.00  0.00     0.360 C 
ATOM     13  N   UNL d   1      45.932 -15.648  43.853  0.00  0.00    -0.214 NA
ATOM     14  O   UNL d   1      45.462 -16.792  44.572  0.00  0.00    -0.243 OA
BRANCH  13  15
ATOM     15  C   UNL d   1      45.500 -15.147  44.357  0.00  0.00     0.147 C 
ATOM     16  C   UNL d   1      46.043 -15.428  44.918  0.00  0.00     0.033 C 
ATOM     17  C   UNL d   1      44.963 -14.871  43.792  0.00  0.00     0.033 C 
BRANCH  15  18
ATOM     18  C   UNL d   1      45.075 -14.650  44.865  0.00  0.00     0.229 C 
ATOM     19  O   UNL d   1      44.619 -14.036  44.549  0.00  0.00    -0.286 OA
ENDBRANCH  15  18
ENDBRANCH  13  15
ENDBRANCH   2  11
BRANCH   1  20
ATOM     20  C   UNL d   1      46.365 -19.180  42.843  0.00  0.00    -0.019 A 
ATOM     21  C   UNL d   1      46.493 -19.966  42.603  0.00  0.00    -0.004 A 
ATOM     22  C   UNL d   1      46.558 -20.154  41.803  0.00  0.00    -0.000 A 
ATOM     23  C   UNL d   1      46.496 -19.553  41.230  0.00  0.00    -0.000 A 
ATOM     24  C   UNL d   1      46.369 -18.775  41.473  0.00  0.00    -0.000 A 
ATOM     25  C   UNL d   1      46.561 -19.739  40.427  0.00  0.00    -0.000 C 
ATOM     26  C   UNL d   1      46.303 -18.587  42.274  0.00  0.00    -0.004 A 
ENDBRANCH   1  20
TORSDOF 4
ENDMDL
MODEL 3
REMARK VINA RESULT:      35.1      3.098      5.287
REMARK  4 active torsions:
REMARK  status: ('A' for Active; 'I' for Inactive)
REMARK    1  A    between atoms: C_6  and  C_1 
REMARK    2  A    between atoms: N_4  and  C_2 
REMARK       I    between atoms: C_3  and  N_4 
REMARK       I    between atoms: N_9  and  C_3 
REMARK    3  A    between atoms: C_15  and  N_9 
REMARK    4  A    between atoms: C_23  and  C_15 
ROOT
ATOM      1  C   UNL d   1      46.111 -18.952  44.239  0.00  0.00     0.040 A 
ATOM      2  C   UNL d   1      46.429 -18.960  43.061  0.00  0.00     0.109 A 
ATOM      3  C   UNL d   1      46.165 -18.393  43.880  0.00  0.00     0.035 A 
ATOM      4  C   UNL d   1      45.932 -19.129  44.955  0.00  0.00    -0.023 A 
ATOM      5  C   UNL d   1      46.302 -19.902  43.804  0.00  0.00     0.013 A 
ATOM      6  C   UNL d   1      46.153 -19.565  44.260  0.00  0.00    -0.011 A 
ATOM      7  C   UNL d   1      46.505 -20.330  43.176  0.00  0.00     0.025 A 
ATOM      8  C   UNL d   1      46.219 -18.910  43.827  0.00  0.00    -0.005 A 
ATOM      9  C   UNL d   1      46.572 -19.670  42.735  0.00  0.00     0.031 A 
ATOM     10  C   UNL d   1      46.296 -20.275  43.934  0.00  0.00    -0.027 A 
ENDROOT
BRANCH   2  11
ATOM     11  N   UNL d   1      46.639 -18.903  42.264  0.00  0.00    -0.217 NA
ATOM     12  C   UNL d   1      46.141 -18.523  41.732  0.00  0.00     0.360 C 
ATOM     13  N   UNL d   1      46.344 -18.462  40.936  0.00  0.00    -0.214 NA
ATOM     14  O   UNL d   1      45.425 -18.196  41.998  0.00  0.00    -0.243 OA
BRANCH  13  15
ATOM     15  C   UNL d   1      45.841 -18.077  40.397  0.00  0.00     0.147 C 
ATOM     16  C   UNL d   1      46.554 -17.729  40.153  0.00  0.00     0.033 C 
ATOM     17  C   UNL d   1      45.135 -18.430  40.646  0.00  0.00     0.033 C 
BRANCH  15  18
ATOM     18  C   UNL d   1      45.347 -17.691  39.857  0.00  0.00     0.229 C 
ATOM     19  O   UNL d   1      45.637 -17.491  39.107  0.00  0.00    -0.286 OA
ENDBRANCH  15  18
ENDBRANCH  13  15
ENDBRANCH   2  11
BRANCH   1  20
ATOM     20  C   UNL d   1      46.018 -18.148  44.351  0.00  0.00    -0.019 A 
ATOM     21  C   UNL d   1      45.326 -17.766  44.096  0.00  0.00    -0.004 A 
ATOM     22  C   UNL d   1      45.230 -16.955  44.208  0.00  0.00    -0.000 A 
ATOM     23  C   UNL d   1      45.831 -16.515  44.580  0.00  0.00    -0.000 A 
ATOM     24  C   UNL d   1      46.517 -16.899  44.831  0.00  0.00    -0.000 A 
ATOM     25  C   UNL d   1      45.738 -15.701  44.693  0.00  0.00    -0.000 C 
ATOM     26  C   UNL d   1      46.612 -17.711  44.719  0.00  0.00    -0.004 A 
ENDBRANCH   1  20
TORSDOF 4
ENDMDL
