MODEL 1
REMARK VINA RESULT:     -10.0      0.000      0.000
REMARK  1 active torsions:
REMARK  status: ('A' for Active; 'I' for Inactive)
REMARK    1  A    between atoms: C_5  and  C_1 
ROOT
ATOM      1  C   UNL d   1      53.863  31.902  53.975  0.00  0.00     0.162 A 
ATOM      2  N   UNL d   1      53.735  32.157  54.724  0.00  0.00    -0.225 NA
ATOM      3  N   UNL d   1      54.428  32.335  53.616  0.00  0.00    -0.225 NA
ATOM      4  C   UNL d   1      54.258  32.805  54.857  0.00  0.00     0.101 A 
ATOM      5  C   UNL d   1      54.688  32.915  54.169  0.00  0.00     0.101 A 
ATOM      6  C   UNL d   1      54.379  33.288  55.518  0.00  0.00     0.021 A 
ATOM      7  C   UNL d   1      55.251  33.512  54.123  0.00  0.00     0.021 A 
ATOM      8  C   UNL d   1      55.381  34.002  54.777  0.00  0.00     0.002 A 
ATOM      9  C   UNL d   1      54.951  33.891  55.465  0.00  0.00     0.002 A 
ENDROOT
BRANCH   1  10
ATOM     10  C   UNL d   1      53.467  31.281  53.628  0.00  0.00     0.036 A 
ATOM     11  C   UNL d   1      52.837  31.419  53.116  0.00  0.00     0.003 A 
ATOM     12  C   UNL d   1      52.611  32.201  52.957  0.00  0.00     0.000 C 
ATOM     13  C   UNL d   1      52.436  30.789  52.763  0.00  0.00     0.000 A 
ATOM     14  C   UNL d   1      52.655  30.006  52.915  0.00  0.00     0.000 A 
ATOM     15  C   UNL d   1      53.285  29.876  53.428  0.00  0.00     0.000 A 
ATOM     16  C   UNL d   1      53.686  30.506  53.780  0.00  0.00     0.003 A 
ENDBRANCH   1  10
TORSDOF 1
ENDMDL
MODEL 2
REMARK VINA RESULT:      -9.7      1.840      3.638
REMARK  1 active torsions:
REMARK  status: ('A' for Active; 'I' for Inactive)
REMARK    1  A    between atoms: C_5  and  C_1 
ROOT
ATOM      1  C   UNL d   1      52.858  33.734  53.766  0.00  0.00     0.162 A 
ATOM      2  N   UNL d   1      52.138  33.469  53.999  0.00  0.00    -0.225 NA
ATOM      3  N   UNL d   1      52.815  34.106  53.063  0.00  0.00    -0.225 NA
ATOM      4  C   UNL d   1      51.589  33.687  53.398  0.00  0.00     0.101 A 
ATOM      5  C   UNL d   1      52.009  34.083  52.817  0.00  0.00     0.101 A 
ATOM      6  C   UNL d   1      50.773  33.567  53.328  0.00  0.00     0.021 A 
ATOM      7  C   UNL d   1      51.624  34.369  52.150  0.00  0.00     0.021 A 
ATOM      8  C   UNL d   1      50.809  34.255  52.068  0.00  0.00     0.002 A 
ATOM      9  C   UNL d   1      50.389  33.860  52.649  0.00  0.00     0.002 A 
ENDROOT
BRANCH   1  10
ATOM     10  C   UNL d   1      53.544  33.636  54.195  0.00  0.00     0.036 A 
ATOM     11  C   UNL d   1      54.033  32.987  54.059  0.00  0.00     0.003 A 
ATOM     12  C   UNL d   1      53.818  32.434  53.479  0.00  0.00     0.000 C 
ATOM     13  C   UNL d   1      54.728  32.887  54.493  0.00  0.00     0.000 A 
ATOM     14  C   UNL d   1      54.951  33.433  55.073  0.00  0.00     0.000 A 
ATOM     15  C   UNL d   1      54.457  34.079  55.203  0.00  0.00     0.000 A 
ATOM     16  C   UNL d   1      53.761  34.179  54.768  0.00  0.00     0.003 A 
ENDBRANCH   1  10
TORSDOF 1
ENDMDL
MODEL 3
REMARK VINA RESULT:      -9.3      1.605      2.814
REMARK  1 active torsions:
REMARK  status: ('A' for Active; 'I' for Inactive)
REMARK    1  A    between atoms: C_5  and  C_1 
ROOT
ATOM      1  C   UNL d   1      52.405  32.206  53.070  0.00  0.00     0.162 A 
ATOM      2  N   UNL d   1      51.720  32.385  53.444  0.00  0.00    -0.225 NA
ATOM      3  N   UNL d   1      52.606  32.771  52.546  0.00  0.00    -0.225 NA
ATOM      4  C   UNL d   1      51.458  33.125  53.137  0.00  0.00     0.101 A 
ATOM      5  C   UNL d   1      52.008  33.365  52.579  0.00  0.00     0.101 A 
ATOM      6  C   UNL d   1      50.794  33.587  53.306  0.00  0.00     0.021 A 
ATOM      7  C   UNL d   1      51.908  34.073  52.176  0.00  0.00     0.021 A 
ATOM      8  C   UNL d   1      51.247  34.545  52.336  0.00  0.00     0.002 A 
ATOM      9  C   UNL d   1      50.697  34.305  52.894  0.00  0.00     0.002 A 
ENDROOT
BRANCH   1  10
ATOM     10  C   UNL d   1      52.841  31.531  53.209  0.00  0.00     0.036 A 
ATOM     11  C   UNL d   1      53.524  31.560  53.668  0.00  0.00     0.003 A 
ATOM     12  C   UNL d   1      53.764  32.287  53.987  0.00  0.00     0.000 C 
ATOM     13  C   UNL d   1      53.965  30.876  53.809  0.00  0.00     0.000 A 
ATOM     14  C   UNL d   1      53.733  30.147  53.494  0.00  0.00     0.000 A 
ATOM     15  C   UNL d   1      53.049  30.126  53.037  0.00  0.00     0.000 A 
ATOM     16  C   UNL d   1      52.608  30.810  52.896  0.00  0.00     0.003 A 
ENDBRANCH   1  10
TORSDOF 1
ENDMDL
MODEL 4
REMARK VINA RESULT:      -9.2      1.935      2.839
REMARK  1 active torsions:
REMARK  status: ('A' for Active; 'I' for Inactive)
REMARK    1  A    between atoms: C_5  and  C_1 
ROOT
ATOM      1  C   UNL d   1      52.422  33.703  53.645  0.00  0.00     0.162 A 
ATOM      2  N   UNL d   1      52.877  33.047  53.578  0.00  0.00    -0.225 NA
ATOM      3  N   UNL d   1      52.719  34.207  54.185  0.00  0.00    -0.225 NA
ATOM      4  C   UNL d   1      53.518  33.136  54.117  0.00  0.00     0.101 A 
ATOM      5  C   UNL d   1      53.421  33.857  54.494  0.00  0.00     0.101 A 
ATOM      6  C   UNL d   1      54.161  32.646  54.295  0.00  0.00     0.021 A 
ATOM      7  C   UNL d   1      53.962  34.106  55.059  0.00  0.00     0.021 A 
ATOM      8  C   UNL d   1      54.609  33.625  55.245  0.00  0.00     0.002 A 
ATOM      9  C   UNL d   1      54.707  32.904  54.868  0.00  0.00     0.002 A 
ENDROOT
BRANCH   1  10
ATOM     10  C   UNL d   1      51.742  33.836  53.215  0.00  0.00     0.036 A 
ATOM     11  C   UNL d   1      51.769  34.255  52.507  0.00  0.00     0.003 A 
ATOM     12  C   UNL d   1      52.498  34.542  52.236  0.00  0.00     0.000 C 
ATOM     13  C   UNL d   1      51.080  34.390  52.072  0.00  0.00     0.000 A 
ATOM     14  C   UNL d   1      50.348  34.107  52.335  0.00  0.00     0.000 A 
ATOM     15  C   UNL d   1      50.329  33.689  53.043  0.00  0.00     0.000 A 
ATOM     16  C   UNL d   1      51.018  33.555  53.478  0.00  0.00     0.003 A 
ENDBRANCH   1  10
TORSDOF 1
ENDMDL
MODEL 5
REMARK VINA RESULT:      -9.0      1.485      3.481
REMARK  1 active torsions:
REMARK  status: ('A' for Active; 'I' for Inactive)
REMARK    1  A    between atoms: C_5  and  C_1 
ROOT
ATOM      1  C   UNL d   1      53.104  32.809  53.606  0.00  0.00     0.162 A 
ATOM      2  N   UNL d   1      52.516  32.371  53.284  0.00  0.00    -0.225 NA
ATOM      3  N   UNL d   1      53.739  32.359  53.778  0.00  0.00    -0.225 NA
ATOM      4  C   UNL d   1      52.793  31.575  53.247  0.00  0.00     0.101 A 
ATOM      5  C   UNL d   1      53.552  31.568  53.553  0.00  0.00     0.101 A 
ATOM      6  C   UNL d   1      52.438  30.881  52.972  0.00  0.00     0.021 A 
ATOM      7  C   UNL d   1      53.977  30.866  53.593  0.00  0.00     0.021 A 
ATOM      8  C   UNL d   1      53.633  30.165  53.321  0.00  0.00     0.002 A 
ATOM      9  C   UNL d   1      52.873  30.172  53.014  0.00  0.00     0.002 A 
ENDROOT
BRANCH   1  10
ATOM     10  C   UNL d   1      53.058  33.612  53.739  0.00  0.00     0.036 A 
ATOM     11  C   UNL d   1      53.318  33.934  54.450  0.00  0.00     0.003 A 
ATOM     12  C   UNL d   1      53.628  33.430  55.032  0.00  0.00     0.000 C 
ATOM     13  C   UNL d   1      53.271  34.748  54.585  0.00  0.00     0.000 A 
ATOM     14  C   UNL d   1      52.964  35.258  54.011  0.00  0.00     0.000 A 
ATOM     15  C   UNL d   1      52.706  34.928  53.303  0.00  0.00     0.000 A 
ATOM     16  C   UNL d   1      52.753  34.114  53.168  0.00  0.00     0.003 A 
ENDBRANCH   1  10
TORSDOF 1
ENDMDL
