MODEL 1
REMARK VINA RESULT:      -7.8      0.000      0.000
REMARK  4 active torsions:
REMARK  status: ('A' for Active; 'I' for Inactive)
REMARK    1  A    between atoms: C_6  and  C_1 
REMARK    2  A    between atoms: C_7  and  N_2 
REMARK    3  A    between atoms: C_10  and  C_7 
REMARK    4  A    between atoms: C_11  and  C_10 
ROOT
ATOM      1  C   UNL d   1     -50.051  13.434  22.494  0.00  0.00     0.148 A 
ATOM      2  N   UNL d   1     -49.418  13.950  22.668  0.00  0.00    -0.289 N 
ATOM      3  N   UNL d   1     -50.761  13.806  22.751  0.00  0.00    -0.227 NA
ATOM      4  C   UNL d   1     -49.730  14.633  23.026  0.00  0.00     0.083 A 
ATOM      5  C   UNL d   1     -50.551  14.545  23.078  0.00  0.00     0.099 A 
ATOM      6  C   UNL d   1     -49.378  15.329  23.317  0.00  0.00     0.019 A 
ATOM      7  C   UNL d   1     -51.030  15.137  23.412  0.00  0.00     0.021 A 
ATOM      8  C   UNL d   1     -49.844  15.922  23.651  0.00  0.00     0.002 A 
ATOM      9  C   UNL d   1     -50.664  15.827  23.698  0.00  0.00     0.002 A 
ENDROOT
BRANCH   2  10
ATOM     10  C   UNL d   1     -48.615  13.805  22.509  0.00  0.00     0.082 C 
BRANCH  10  11
ATOM     11  C   UNL d   1     -48.070  13.808  23.127  0.00  0.00     0.019 C 
BRANCH  11  12
ATOM     12  C   UNL d   1     -47.296  13.578  22.982  0.00  0.00     0.002 A 
ATOM     13  C   UNL d   1     -46.841  13.990  22.443  0.00  0.00     0.000 A 
ATOM     14  C   UNL d   1     -46.068  13.759  22.299  0.00  0.00     0.000 A 
ATOM     15  C   UNL d   1     -45.750  13.117  22.693  0.00  0.00     0.000 A 
ATOM     16  C   UNL d   1     -46.207  12.699  23.238  0.00  0.00     0.000 A 
ATOM     17  C   UNL d   1     -46.982  12.935  23.378  0.00  0.00     0.000 A 
ENDBRANCH  11  12
ENDBRANCH  10  11
ENDBRANCH   2  10
BRANCH   1  18
ATOM     18  C   UNL d   1     -49.998  12.691  22.136  0.00  0.00     0.035 A 
ATOM     19  C   UNL d   1     -49.985  11.867  22.185  0.00  0.00     0.003 A 
ATOM     20  C   UNL d   1     -49.916  12.240  21.450  0.00  0.00     0.003 A 
ENDBRANCH   1  18
TORSDOF 4
ENDMDL
MODEL 2
REMARK VINA RESULT:      -6.3      1.825      3.750
REMARK  4 active torsions:
REMARK  status: ('A' for Active; 'I' for Inactive)
REMARK    1  A    between atoms: C_6  and  C_1 
REMARK    2  A    between atoms: C_7  and  N_2 
REMARK    3  A    between atoms: C_10  and  C_7 
REMARK    4  A    between atoms: C_11  and  C_10 
ROOT
ATOM      1  C   UNL d   1     -46.728  12.434  23.299  0.00  0.00     0.148 A 
ATOM      2  N   UNL d   1     -47.429  12.874  23.192  0.00  0.00    -0.289 N 
ATOM      3  N   UNL d   1     -46.079  12.947  23.151  0.00  0.00    -0.227 NA
ATOM      4  C   UNL d   1     -47.219  13.651  22.981  0.00  0.00     0.083 A 
ATOM      5  C   UNL d   1     -46.393  13.697  22.956  0.00  0.00     0.099 A 
ATOM      6  C   UNL d   1     -47.668  14.330  22.806  0.00  0.00     0.019 A 
ATOM      7  C   UNL d   1     -46.004  14.405  22.760  0.00  0.00     0.021 A 
ATOM      8  C   UNL d   1     -47.291  15.037  22.611  0.00  0.00     0.002 A 
ATOM      9  C   UNL d   1     -46.466  15.075  22.589  0.00  0.00     0.002 A 
ENDROOT
BRANCH   2  10
ATOM     10  C   UNL d   1     -48.204  12.585  23.281  0.00  0.00     0.082 C 
BRANCH  10  11
ATOM     11  C   UNL d   1     -48.602  12.278  22.628  0.00  0.00     0.019 C 
BRANCH  11  12
ATOM     12  C   UNL d   1     -49.422  12.284  22.618  0.00  0.00     0.002 A 
ATOM     13  C   UNL d   1     -49.841  12.022  23.268  0.00  0.00     0.000 A 
ATOM     14  C   UNL d   1     -50.660  12.028  23.257  0.00  0.00     0.000 A 
ATOM     15  C   UNL d   1     -51.062  12.297  22.597  0.00  0.00     0.000 A 
ATOM     16  C   UNL d   1     -50.641  12.563  21.938  0.00  0.00     0.000 A 
ATOM     17  C   UNL d   1     -49.820  12.554  21.956  0.00  0.00     0.000 A 
ENDBRANCH  11  12
ENDBRANCH  10  11
ENDBRANCH   2  10
BRANCH   1  18
ATOM     18  C   UNL d   1     -46.674  11.636  23.511  0.00  0.00     0.035 A 
ATOM     19  C   UNL d   1     -47.030  10.915  23.698  0.00  0.00     0.003 A 
ATOM     20  C   UNL d   1     -46.206  10.981  23.691  0.00  0.00     0.003 A 
ENDBRANCH   1  18
TORSDOF 4
ENDMDL
MODEL 3
REMARK VINA RESULT:      -6.3      1.054      1.617
REMARK  4 active torsions:
REMARK  status: ('A' for Active; 'I' for Inactive)
REMARK    1  A    between atoms: C_6  and  C_1 
REMARK    2  A    between atoms: C_7  and  N_2 
REMARK    3  A    between atoms: C_10  and  C_7 
REMARK    4  A    between atoms: C_11  and  C_10 
ROOT
ATOM      1  C   UNL d   1     -48.886  12.897  23.203  0.00  0.00     0.148 A 
ATOM      2  N   UNL d   1     -48.289  13.364  22.855  0.00  0.00    -0.289 N 
ATOM      3  N   UNL d   1     -49.543  13.398  23.362  0.00  0.00    -0.227 NA
ATOM      4  C   UNL d   1     -48.571  14.145  22.797  0.00  0.00     0.083 A 
ATOM      5  C   UNL d   1     -49.337  14.166  23.107  0.00  0.00     0.099 A 
ATOM      6  C   UNL d   1     -48.233  14.847  22.503  0.00  0.00     0.019 A 
ATOM      7  C   UNL d   1     -49.776  14.872  23.131  0.00  0.00     0.021 A 
ATOM      8  C   UNL d   1     -48.660  15.552  22.522  0.00  0.00     0.002 A 
ATOM      9  C   UNL d   1     -49.426  15.565  22.833  0.00  0.00     0.002 A 
ENDROOT
BRANCH   2  10
ATOM     10  C   UNL d   1     -47.542  13.095  22.608  0.00  0.00     0.082 C 
BRANCH  10  11
ATOM     11  C   UNL d   1     -46.862  13.403  22.957  0.00  0.00     0.019 C 
BRANCH  11  12
ATOM     12  C   UNL d   1     -46.127  13.140  22.706  0.00  0.00     0.002 A 
ATOM     13  C   UNL d   1     -45.817  12.446  23.004  0.00  0.00     0.000 A 
ATOM     14  C   UNL d   1     -45.082  12.183  22.753  0.00  0.00     0.000 A 
ATOM     15  C   UNL d   1     -44.657  12.615  22.203  0.00  0.00     0.000 A 
ATOM     16  C   UNL d   1     -44.967  13.317  21.900  0.00  0.00     0.000 A 
ATOM     17  C   UNL d   1     -45.704  13.574  22.156  0.00  0.00     0.000 A 
ENDBRANCH  11  12
ENDBRANCH  10  11
ENDBRANCH   2  10
BRANCH   1  18
ATOM     18  C   UNL d   1     -48.846  12.087  23.366  0.00  0.00     0.035 A 
ATOM     19  C   UNL d   1     -48.459  11.437  23.698  0.00  0.00     0.003 A 
ATOM     20  C   UNL d   1     -49.180  11.335  23.307  0.00  0.00     0.003 A 
ENDBRANCH   1  18
TORSDOF 4
ENDMDL
MODEL 4
REMARK VINA RESULT:      -6.2      8.609     10.694
REMARK  4 active torsions:
REMARK  status: ('A' for Active; 'I' for Inactive)
REMARK    1  A    between atoms: C_6  and  C_1 
REMARK    2  A    between atoms: C_7  and  N_2 
REMARK    3  A    between atoms: C_10  and  C_7 
REMARK    4  A    between atoms: C_11  and  C_10 
ROOT
ATOM      1  C   UNL d   1     -39.792  14.573  17.342  0.00  0.00     0.148 A 
ATOM      2  N   UNL d   1     -39.483  14.458  18.108  0.00  0.00    -0.289 N 
ATOM      3  N   UNL d   1     -39.448  13.993  16.838  0.00  0.00    -0.227 NA
ATOM      4  C   UNL d   1     -38.954  13.817  18.082  0.00  0.00     0.083 A 
ATOM      5  C   UNL d   1     -38.932  13.532  17.306  0.00  0.00     0.099 A 
ATOM      6  C   UNL d   1     -38.484  13.448  18.662  0.00  0.00     0.019 A 
ATOM      7  C   UNL d   1     -38.453  12.886  17.094  0.00  0.00     0.021 A 
ATOM      8  C   UNL d   1     -38.005  12.807  18.463  0.00  0.00     0.002 A 
ATOM      9  C   UNL d   1     -37.989  12.528  17.684  0.00  0.00     0.002 A 
ENDROOT
BRANCH   2  10
ATOM     10  C   UNL d   1     -39.671  14.909  18.781  0.00  0.00     0.082 C 
BRANCH  10  11
ATOM     11  C   UNL d   1     -40.023  14.543  19.431  0.00  0.00     0.019 C 
BRANCH  11  12
ATOM     12  C   UNL d   1     -40.213  14.992  20.091  0.00  0.00     0.002 A 
ATOM     13  C   UNL d   1     -40.968  14.961  20.403  0.00  0.00     0.000 A 
ATOM     14  C   UNL d   1     -41.157  15.409  21.062  0.00  0.00     0.000 A 
ATOM     15  C   UNL d   1     -40.593  15.888  21.410  0.00  0.00     0.000 A 
ATOM     16  C   UNL d   1     -39.830  15.922  21.097  0.00  0.00     0.000 A 
ATOM     17  C   UNL d   1     -39.647  15.470  20.436  0.00  0.00     0.000 A 
ENDBRANCH  11  12
ENDBRANCH  10  11
ENDBRANCH   2  10
BRANCH   1  18
ATOM     18  C   UNL d   1     -40.338  15.150  17.111  0.00  0.00     0.035 A 
ATOM     19  C   UNL d   1     -40.514  15.921  16.875  0.00  0.00     0.003 A 
ATOM     20  C   UNL d   1     -41.119  15.362  16.952  0.00  0.00     0.003 A 
ENDBRANCH   1  18
TORSDOF 4
ENDMDL
MODEL 5
REMARK VINA RESULT:      -5.9      9.435     10.367
REMARK  4 active torsions:
REMARK  status: ('A' for Active; 'I' for Inactive)
REMARK    1  A    between atoms: C_6  and  C_1 
REMARK    2  A    between atoms: C_7  and  N_2 
REMARK    3  A    between atoms: C_10  and  C_7 
REMARK    4  A    between atoms: C_11  and  C_10 
ROOT
ATOM      1  C   UNL d   1     -39.377  13.954  17.567  0.00  0.00     0.148 A 
ATOM      2  N   UNL d   1     -39.782  14.312  18.203  0.00  0.00    -0.289 N 
ATOM      3  N   UNL d   1     -39.651  14.312  16.856  0.00  0.00    -0.227 NA
ATOM      4  C   UNL d   1     -40.301  14.883  17.892  0.00  0.00     0.083 A 
ATOM      5  C   UNL d   1     -40.221  14.884  17.069  0.00  0.00     0.099 A 
ATOM      6  C   UNL d   1     -40.840  15.409  18.247  0.00  0.00     0.019 A 
ATOM      7  C   UNL d   1     -40.667  15.397  16.590  0.00  0.00     0.021 A 
ATOM      8  C   UNL d   1     -41.288  15.922  17.782  0.00  0.00     0.002 A 
ATOM      9  C   UNL d   1     -41.202  15.916  16.959  0.00  0.00     0.002 A 
ENDROOT
BRANCH   2  10
ATOM     10  C   UNL d   1     -39.683  14.127  19.008  0.00  0.00     0.082 C 
BRANCH  10  11
ATOM     11  C   UNL d   1     -39.490  14.725  19.542  0.00  0.00     0.019 C 
BRANCH  11  12
ATOM     12  C   UNL d   1     -39.356  14.533  20.328  0.00  0.00     0.002 A 
ATOM     13  C   UNL d   1     -39.947  14.183  20.770  0.00  0.00     0.000 A 
ATOM     14  C   UNL d   1     -39.812  13.992  21.555  0.00  0.00     0.000 A 
ATOM     15  C   UNL d   1     -39.087  14.150  21.899  0.00  0.00     0.000 A 
ATOM     16  C   UNL d   1     -38.488  14.503  21.455  0.00  0.00     0.000 A 
ATOM     17  C   UNL d   1     -38.630  14.693  20.668  0.00  0.00     0.000 A 
ENDBRANCH  11  12
ENDBRANCH  10  11
ENDBRANCH   2  10
BRANCH   1  18
ATOM     18  C   UNL d   1     -38.807  13.357  17.618  0.00  0.00     0.035 A 
ATOM     19  C   UNL d   1     -38.605  12.560  17.697  0.00  0.00     0.003 A 
ATOM     20  C   UNL d   1     -38.013  13.134  17.627  0.00  0.00     0.003 A 
ENDBRANCH   1  18
TORSDOF 4
ENDMDL
MODEL 6
REMARK VINA RESULT:      -5.3      8.098     10.090
REMARK  4 active torsions:
REMARK  status: ('A' for Active; 'I' for Inactive)
REMARK    1  A    between atoms: C_6  and  C_1 
REMARK    2  A    between atoms: C_7  and  N_2 
REMARK    3  A    between atoms: C_10  and  C_7 
REMARK    4  A    between atoms: C_11  and  C_10 
ROOT
ATOM      1  C   UNL d   1     -40.439  14.830  19.830  0.00  0.00     0.148 A 
ATOM      2  N   UNL d   1     -39.683  14.526  20.010  0.00  0.00    -0.289 N 
ATOM      3  N   UNL d   1     -40.593  14.668  19.019  0.00  0.00    -0.227 NA
ATOM      4  C   UNL d   1     -39.372  14.178  19.321  0.00  0.00     0.083 A 
ATOM      5  C   UNL d   1     -39.927  14.264  18.715  0.00  0.00     0.099 A 
ATOM      6  C   UNL d   1     -38.652  13.791  19.160  0.00  0.00     0.019 A 
ATOM      7  C   UNL d   1     -39.783  13.974  17.950  0.00  0.00     0.021 A 
ATOM      8  C   UNL d   1     -38.499  13.499  18.404  0.00  0.00     0.002 A 
ATOM      9  C   UNL d   1     -39.060  13.589  17.803  0.00  0.00     0.002 A 
ENDROOT
BRANCH   2  10
ATOM     10  C   UNL d   1     -39.307  14.564  20.751  0.00  0.00     0.082 C 
BRANCH  10  11
ATOM     11  C   UNL d   1     -39.099  13.866  21.138  0.00  0.00     0.019 C 
BRANCH  11  12
ATOM     12  C   UNL d   1     -38.801  13.904  21.902  0.00  0.00     0.002 A 
ATOM     13  C   UNL d   1     -38.237  14.463  22.093  0.00  0.00     0.000 A 
ATOM     14  C   UNL d   1     -37.940  14.500  22.856  0.00  0.00     0.000 A 
ATOM     15  C   UNL d   1     -38.207  13.979  23.428  0.00  0.00     0.000 A 
ATOM     16  C   UNL d   1     -38.777  13.414  23.238  0.00  0.00     0.000 A 
ATOM     17  C   UNL d   1     -39.070  13.382  22.471  0.00  0.00     0.000 A 
ENDBRANCH  11  12
ENDBRANCH  10  11
ENDBRANCH   2  10
BRANCH   1  18
ATOM     18  C   UNL d   1     -40.949  15.223  20.349  0.00  0.00     0.035 A 
ATOM     19  C   UNL d   1     -41.589  15.218  20.870  0.00  0.00     0.003 A 
ATOM     20  C   UNL d   1     -41.180  15.921  20.722  0.00  0.00     0.003 A 
ENDBRANCH   1  18
TORSDOF 4
ENDMDL
