MODEL 1
REMARK VINA RESULT:      -9.5      0.000      0.000
REMARK  5 active torsions:
REMARK  status: ('A' for Active; 'I' for Inactive)
REMARK    1  A    between atoms: N_15  and  C_6 
REMARK    2  A    between atoms: N_14  and  C_18 
REMARK    3  A    between atoms: C_24  and  N_15 
REMARK    4  A    between atoms: C_18  and  C_19 
REMARK    5  A    between atoms: C_19  and  C_24 
ROOT
ATOM      1  N   UNL d   1      51.915  33.386  53.052  0.00  0.00    -0.183 N 
ATOM      2  C   UNL d   1      52.650  33.215  53.385  0.00  0.00     0.169 A 
ATOM      3  C   UNL d   1      52.932  32.452  53.396  0.00  0.00     0.073 A 
ATOM      4  C   UNL d   1      52.475  31.862  53.073  0.00  0.00     0.185 A 
ATOM      5  N   UNL d   1      51.740  32.034  52.740  0.00  0.00    -0.142 NA
ATOM      6  C   UNL d   1      51.650  34.155  53.051  0.00  0.00     0.218 A 
ATOM      7  N   UNL d   1      53.100  33.815  53.707  0.00  0.00    -0.226 NA
ATOM      8  C   UNL d   1      53.659  32.282  53.725  0.00  0.00     0.007 A 
ATOM      9  N   UNL d   1      52.747  31.084  53.076  0.00  0.00    -0.225 NA
ATOM     10  C   UNL d   1      52.091  34.752  53.368  0.00  0.00     0.071 A 
ATOM     11  C   UNL d   1      53.941  31.519  53.736  0.00  0.00     0.019 A 
ATOM     12  C   UNL d   1      52.827  34.580  53.700  0.00  0.00     0.087 A 
ATOM     13  C   UNL d   1      53.482  30.912  53.409  0.00  0.00     0.083 A 
ATOM     14  C   UNL d   1      54.110  32.886  54.048  0.00  0.00     0.000 C 
ATOM     15  C   UNL d   1      53.292  35.207  54.034  0.00  0.00     0.021 C 
ATOM     16  C   UNL d   1      53.756  30.151  53.416  0.00  0.00     0.021 C 
ENDROOT
BRANCH   6  17
ATOM     17  N   UNL d   1      50.889  34.323  52.705  0.00  0.00    -0.380 NA
BRANCH  17  18
ATOM     18  C   UNL d   1      50.180  34.453  52.271  0.00  0.00     0.164 C 
BRANCH  18  19
ATOM     19  C   UNL d   1      49.539  34.859  52.632  0.00  0.00     0.054 C 
BRANCH  19  20
ATOM     20  C   UNL d   1      48.808  34.970  52.195  0.00  0.00     0.083 C 
BRANCH  20  21
ATOM     21  N   UNL d   1      48.242  35.545  52.448  0.00  0.00    -0.299 N 
ATOM     22  C   UNL d   1      47.626  35.796  51.911  0.00  0.00     0.107 A 
ATOM     23  C   UNL d   1      47.053  36.373  52.157  0.00  0.00     0.142 A 
ATOM     24  O   UNL d   1      47.095  36.700  52.942  0.00  0.00    -0.300 OA
ATOM     25  C   UNL d   1      47.703  36.452  53.472  0.00  0.00     0.142 A 
ATOM     26  C   UNL d   1      48.277  35.874  53.226  0.00  0.00     0.107 A 
ENDBRANCH  20  21
ENDBRANCH  19  20
ENDBRANCH  18  19
ENDBRANCH  17  18
ENDBRANCH   6  17
TORSDOF 5
ENDMDL
MODEL 2
REMARK VINA RESULT:      -8.6      0.938      2.123
REMARK  5 active torsions:
REMARK  status: ('A' for Active; 'I' for Inactive)
REMARK    1  A    between atoms: N_15  and  C_6 
REMARK    2  A    between atoms: N_14  and  C_18 
REMARK    3  A    between atoms: C_24  and  N_15 
REMARK    4  A    between atoms: C_18  and  C_19 
REMARK    5  A    between atoms: C_19  and  C_24 
ROOT
ATOM      1  N   UNL d   1      52.347  33.616  53.443  0.00  0.00    -0.183 N 
ATOM      2  C   UNL d   1      52.920  33.092  53.724  0.00  0.00     0.169 A 
ATOM      3  C   UNL d   1      53.519  33.353  54.208  0.00  0.00     0.073 A 
ATOM      4  C   UNL d   1      53.542  34.141  54.410  0.00  0.00     0.185 A 
ATOM      5  N   UNL d   1      52.970  34.664  54.129  0.00  0.00    -0.142 NA
ATOM      6  C   UNL d   1      51.757  33.336  52.961  0.00  0.00     0.218 A 
ATOM      7  N   UNL d   1      52.886  32.303  53.515  0.00  0.00    -0.226 NA
ATOM      8  C   UNL d   1      54.085  32.835  54.487  0.00  0.00     0.007 A 
ATOM      9  N   UNL d   1      54.143  34.421  54.900  0.00  0.00    -0.225 NA
ATOM     10  C   UNL d   1      51.719  32.556  52.751  0.00  0.00     0.071 A 
ATOM     11  C   UNL d   1      54.684  33.097  54.971  0.00  0.00     0.019 A 
ATOM     12  C   UNL d   1      52.291  32.033  53.032  0.00  0.00     0.087 A 
ATOM     13  C   UNL d   1      54.715  33.898  55.181  0.00  0.00     0.083 A 
ATOM     14  C   UNL d   1      54.050  32.044  54.276  0.00  0.00     0.000 C 
ATOM     15  C   UNL d   1      52.254  31.214  52.813  0.00  0.00     0.021 C 
ATOM     16  C   UNL d   1      55.308  34.165  55.662  0.00  0.00     0.021 C 
ENDROOT
BRANCH   6  17
ATOM     17  N   UNL d   1      51.169  33.883  52.675  0.00  0.00    -0.380 NA
BRANCH  17  18
ATOM     18  C   UNL d   1      50.632  34.406  52.294  0.00  0.00     0.164 C 
BRANCH  18  19
ATOM     19  C   UNL d   1      49.904  34.601  52.668  0.00  0.00     0.054 C 
BRANCH  19  20
ATOM     20  C   UNL d   1      49.235  34.847  52.190  0.00  0.00     0.083 C 
BRANCH  20  21
ATOM     21  N   UNL d   1      48.640  35.353  52.516  0.00  0.00    -0.299 N 
ATOM     22  C   UNL d   1      47.966  35.573  52.038  0.00  0.00     0.107 A 
ATOM     23  C   UNL d   1      47.364  36.081  52.357  0.00  0.00     0.142 A 
ATOM     24  O   UNL d   1      47.435  36.369  53.155  0.00  0.00    -0.300 OA
ATOM     25  C   UNL d   1      48.101  36.151  53.626  0.00  0.00     0.142 A 
ATOM     26  C   UNL d   1      48.704  35.643  53.307  0.00  0.00     0.107 A 
ENDBRANCH  20  21
ENDBRANCH  19  20
ENDBRANCH  18  19
ENDBRANCH  17  18
ENDBRANCH   6  17
TORSDOF 5
ENDMDL
