MODEL 1
REMARK VINA RESULT:      18.8      0.000      0.000
REMARK  6 active torsions:
REMARK  status: ('A' for Active; 'I' for Inactive)
REMARK    1  A    between atoms: C_5  and  C_1 
REMARK    2  A    between atoms: N_4  and  C_2 
REMARK       I    between atoms: C_3  and  N_4 
REMARK    3  A    between atoms: C_10  and  C_3 
REMARK    4  A    between atoms: O_15  and  C_5 
REMARK    5  A    between atoms: C_6  and  C_7 
REMARK    6  A    between atoms: O_16  and  C_6 
ROOT
ATOM      1  C   UNL d   1      46.444 -19.386  43.382  0.00  0.00     0.093 A 
ATOM      2  C   UNL d   1      46.422 -18.604  43.121  0.00  0.00     0.140 A 
ATOM      3  C   UNL d   1      46.555 -19.051  41.770  0.00  0.00     0.066 A 
ATOM      4  C   UNL d   1      46.477 -18.437  42.312  0.00  0.00     0.038 A 
ATOM      5  C   UNL d   1      46.523 -20.001  42.835  0.00  0.00     0.008 A 
ATOM      6  C   UNL d   1      46.578 -19.834  42.032  0.00  0.00     0.006 A 
ENDROOT
BRANCH   2   7
ATOM      7  N   UNL d   1      46.343 -17.986  43.661  0.00  0.00    -0.368 NA
ATOM      8  C   UNL d   1      46.267 -17.373  44.200  0.00  0.00     0.303 C 
ATOM      9  O   UNL d   1      46.612 -17.428  44.945  0.00  0.00    -0.256 OA
BRANCH   8  10
ATOM     10  C   UNL d   1      45.840 -16.697  43.992  0.00  0.00     0.085 C 
ATOM     11  C   UNL d   1      45.644 -16.542  43.204  0.00  0.00     0.011 C 
ATOM     12  C   UNL d   1      45.922 -16.653  44.812  0.00  0.00     0.011 C 
ATOM     13  C   UNL d   1      45.602 -16.163  44.577  0.00  0.00     0.011 C 
ENDBRANCH   8  10
ENDBRANCH   2   7
BRANCH   1  14
ATOM     14  C   UNL d   1      46.389 -19.554  44.185  0.00  0.00     0.298 C 
ATOM     15  O   UNL d   1      46.619 -18.990  44.742  0.00  0.00    -0.259 OA
BRANCH  14  16
ATOM     16  O   UNL d   1      46.104 -20.285  44.434  0.00  0.00    -0.296 OA
ATOM     17  C   UNL d   1      45.443 -20.328  44.934  0.00  0.00     0.185 C 
ENDBRANCH  14  16
ENDBRANCH   1  14
BRANCH   3  18
ATOM     18  C   UNL d   1      46.611 -18.883  40.965  0.00  0.00     0.296 C 
ATOM     19  O   UNL d   1      46.647 -19.498  40.416  0.00  0.00    -0.259 OA
BRANCH  18  20
ATOM     20  O   UNL d   1      46.630 -18.094  40.705  0.00  0.00    -0.296 OA
ATOM     21  C   UNL d   1      46.601 -17.925  39.900  0.00  0.00     0.185 C 
ENDBRANCH  18  20
ENDBRANCH   3  18
TORSDOF 6
ENDMDL
