MODEL 1
REMARK VINA RESULT:      38.8      0.000      0.000
REMARK  6 active torsions:
REMARK  status: ('A' for Active; 'I' for Inactive)
REMARK    1  A    between atoms: C_11  and  N_3 
REMARK    2  A    between atoms: C_10  and  C_7 
REMARK       I    between atoms: N_19  and  C_10 
REMARK    3  A    between atoms: C_21  and  C_11 
REMARK    4  A    between atoms: N_15  and  C_23 
REMARK    5  A    between atoms: C_22  and  N_19 
REMARK    6  A    between atoms: C_23  and  C_22 
ROOT
ATOM      1  C   UNL d   1      46.378 -18.178  42.771  0.00  0.00     0.154 A 
ATOM      2  C   UNL d   1      46.112 -17.559  42.296  0.00  0.00     0.093 A 
ATOM      3  N   UNL d   1      46.409 -17.901  43.549  0.00  0.00    -0.286 N 
ATOM      4  N   UNL d   1      46.556 -18.909  42.436  0.00  0.00    -0.210 NA
ATOM      5  C   UNL d   1      46.025 -17.670  41.485  0.00  0.00     0.269 A 
ATOM      6  N   UNL d   1      46.203 -18.400  41.149  0.00  0.00    -0.258 N 
ATOM      7  C   UNL d   1      46.165 -17.119  43.556  0.00  0.00     0.124 A 
ATOM      8  C   UNL d   1      46.469 -19.020  41.624  0.00  0.00     0.152 A 
ATOM      9  C   UNL d   1      45.981 -16.903  42.783  0.00  0.00     0.030 A 
ATOM     10  C   UNL d   1      46.115 -18.511  40.339  0.00  0.00     0.084 A 
ATOM     11  O   UNL d   1      45.759 -17.050  41.010  0.00  0.00    -0.266 OA
ATOM     12  C   UNL d   1      46.647 -19.750  41.289  0.00  0.00     0.038 A 
ATOM     13  C   UNL d   1      46.293 -19.244  39.999  0.00  0.00     0.019 A 
ATOM     14  C   UNL d   1      46.559 -19.863  40.474  0.00  0.00     0.005 A 
ENDROOT
BRANCH   7  15
ATOM     15  C   UNL d   1      46.115 -16.638  44.225  0.00  0.00     0.295 C 
ATOM     16  O   UNL d   1      46.547 -16.816  44.902  0.00  0.00    -0.264 OA
ATOM     17  N   UNL d   1      45.623 -15.969  44.207  0.00  0.00    -0.204 NA
BRANCH  17  18
ATOM     18  C   UNL d   1      45.568 -15.480  44.876  0.00  0.00     0.121 C 
BRANCH  18  19
ATOM     19  C   UNL d   1      45.024 -14.863  44.891  0.00  0.00     0.101 C 
BRANCH  19  20
ATOM     20  N   UNL d   1      45.121 -14.215  44.390  0.00  0.00    -0.298 N 
ATOM     21  C   UNL d   1      45.808 -13.751  44.442  0.00  0.00     0.107 A 
ATOM     22  C   UNL d   1      45.905 -13.097  43.936  0.00  0.00     0.142 A 
ATOM     23  O   UNL d   1      45.316 -12.913  43.382  0.00  0.00    -0.300 OA
ATOM     24  C   UNL d   1      44.636 -13.375  43.332  0.00  0.00     0.142 A 
ATOM     25  C   UNL d   1      44.538 -14.029  43.838  0.00  0.00     0.107 A 
ENDBRANCH  19  20
ENDBRANCH  18  19
ENDBRANCH  17  18
ENDBRANCH   7  15
BRANCH   3  26
ATOM     26  C   UNL d   1      46.647 -18.345  44.205  0.00  0.00     0.082 C 
BRANCH  26  27
ATOM     27  C   UNL d   1      46.216 -19.005  44.440  0.00  0.00     0.018 A 
ATOM     28  C   UNL d   1      46.602 -19.674  44.721  0.00  0.00     0.002 A 
ATOM     29  C   UNL d   1      46.177 -20.328  44.954  0.00  0.00     0.000 A 
ATOM     30  C   UNL d   1      45.353 -20.326  44.910  0.00  0.00     0.000 A 
ATOM     31  C   UNL d   1      44.959 -19.664  44.631  0.00  0.00     0.000 A 
ATOM     32  C   UNL d   1      45.390 -19.004  44.396  0.00  0.00     0.002 A 
ENDBRANCH  26  27
ENDBRANCH   3  26
TORSDOF 6
ENDMDL
