MODEL 1
REMARK VINA RESULT:      13.2      0.000      0.000
REMARK  6 active torsions:
REMARK  status: ('A' for Active; 'I' for Inactive)
REMARK    1  A    between atoms: N_2  and  S_1 
REMARK    2  A    between atoms: C_3  and  S_1 
REMARK    3  A    between atoms: O_13  and  C_8 
REMARK    4  A    between atoms: C_14  and  O_13 
REMARK    5  A    between atoms: C_15  and  C_14 
REMARK    6  A    between atoms: C_16  and  C_15 
ROOT
ATOM      1  C   UNL d   1      45.910 -16.918  44.364  0.00  0.00     0.104 A 
ATOM      2  C   UNL d   1      46.457 -16.330  44.167  0.00  0.00     0.015 A 
ATOM      3  C   UNL d   1      45.232 -16.743  44.729  0.00  0.00     0.015 A 
ATOM      4  C   UNL d   1      45.604 -15.351  44.727  0.00  0.00     0.100 A 
ATOM      5  C   UNL d   1      46.304 -15.560  44.346  0.00  0.00     0.025 A 
ATOM      6  C   UNL d   1      45.057 -15.938  44.924  0.00  0.00     0.025 A 
ENDROOT
BRANCH   1   7
ATOM      7  S   UNL d   1      46.082 -17.712  44.171  0.00  0.00     0.271 S 
ATOM      8  O   UNL d   1      45.917 -17.918  44.954  0.00  0.00    -0.200 OA
ATOM      9  O   UNL d   1      46.247 -17.491  43.380  0.00  0.00    -0.200 OA
BRANCH   7  10
ATOM     10  N   UNL d   1      46.256 -18.516  43.975  0.00  0.00    -0.229 N 
ATOM     11  C   UNL d   1      46.276 -18.611  43.144  0.00  0.00     0.092 A 
ATOM     12  C   UNL d   1      46.426 -19.303  42.722  0.00  0.00     0.020 A 
ATOM     13  C   UNL d   1      46.585 -20.036  43.018  0.00  0.00     0.002 A 
ATOM     14  C   UNL d   1      46.646 -20.312  43.775  0.00  0.00     0.002 A 
ATOM     15  C   UNL d   1      46.549 -19.863  44.464  0.00  0.00     0.020 A 
ATOM     16  C   UNL d   1      46.379 -19.078  44.562  0.00  0.00     0.092 A 
ENDBRANCH   7  10
ENDBRANCH   1   7
BRANCH   4  17
ATOM     17  O   UNL d   1      45.459 -14.561  44.905  0.00  0.00    -0.305 OA
BRANCH  17  18
ATOM     18  C   UNL d   1      45.631 -13.989  44.359  0.00  0.00     0.123 C 
BRANCH  18  19
ATOM     19  C   UNL d   1      45.220 -13.261  44.371  0.00  0.00     0.027 C 
BRANCH  19  20
ATOM     20  C   UNL d   1      45.468 -12.630  43.901  0.00  0.00     0.002 C 
ATOM     21  C   UNL d   1      45.065 -12.425  43.199  0.00  0.00     0.000 C 
ENDBRANCH  19  20
ENDBRANCH  18  19
ENDBRANCH  17  18
ENDBRANCH   4  17
TORSDOF 6
ENDMDL
