MODEL 1
REMARK VINA RESULT:      26.5      0.000      0.000
REMARK  4 active torsions:
REMARK  status: ('A' for Active; 'I' for Inactive)
REMARK    1  A    between atoms: N_2  and  S_1 
REMARK    2  A    between atoms: C_5  and  S_1 
REMARK    3  A    between atoms: O_16  and  C_11 
REMARK    4  A    between atoms: C_19  and  O_16 
ROOT
ATOM      1  C   UNL d   1      59.003  49.604  51.146  0.00  0.00     0.107 A 
ATOM      2  C   UNL d   1      59.662  49.473  50.669  0.00  0.00     0.040 A 
ATOM      3  C   UNL d   1      60.417  49.446  51.003  0.00  0.00     0.128 A 
ATOM      4  C   UNL d   1      60.513  49.550  51.815  0.00  0.00     0.163 A 
ATOM      5  C   UNL d   1      59.099  49.707  51.959  0.00  0.00     0.015 A 
ATOM      6  C   UNL d   1      59.854  49.680  52.293  0.00  0.00     0.032 A 
ATOM      7  F   UNL d   1      61.267  49.522  52.149  0.00  0.00    -0.202 F 
ENDROOT
BRANCH   1   8
ATOM      8  S   UNL d   1      58.248  49.631  50.812  0.00  0.00     0.286 S 
ATOM      9  O   UNL d   1      57.913  49.577  51.565  0.00  0.00    -0.198 OA
ATOM     10  O   UNL d   1      58.584  49.685  50.059  0.00  0.00    -0.198 OA
BRANCH   8  11
ATOM     11  N   UNL d   1      57.493  49.658  50.478  0.00  0.00    -0.152 N 
ATOM     12  N   UNL d   1      57.316  49.662  49.674  0.00  0.00    -0.155 NA
ATOM     13  C   UNL d   1      56.501  49.692  49.586  0.00  0.00     0.104 A 
ATOM     14  C   UNL d   1      56.085  49.706  48.869  0.00  0.00     0.022 C 
ATOM     15  C   UNL d   1      56.167  49.707  50.342  0.00  0.00     0.041 A 
ATOM     16  C   UNL d   1      56.777  49.686  50.891  0.00  0.00     0.096 A 
ATOM     17  C   UNL d   1      56.696  49.692  51.712  0.00  0.00     0.022 C 
ENDBRANCH   8  11
ENDBRANCH   1   8
BRANCH   3  18
ATOM     18  O   UNL d   1      61.075  49.316  50.526  0.00  0.00    -0.303 OA
BRANCH  18  19
ATOM     19  C   UNL d   1      61.063  49.542  49.725  0.00  0.00     0.123 C 
ATOM     20  C   UNL d   1      61.767  49.705  49.330  0.00  0.00     0.029 C 
ENDBRANCH  18  19
ENDBRANCH   3  18
TORSDOF 4
ENDMDL
