MODEL 1
REMARK VINA RESULT:       2.6      0.000      0.000
REMARK  8 active torsions:
REMARK  status: ('A' for Active; 'I' for Inactive)
REMARK    1  A    between atoms: C_2  and  P_1 
REMARK    2  A    between atoms: O_4  and  P_1 
REMARK    3  A    between atoms: C_5  and  P_1 
REMARK    4  A    between atoms: C_3  and  C_2 
REMARK    5  A    between atoms: C_20  and  O_4 
REMARK    6  A    between atoms: O_19  and  C_8 
REMARK    7  A    between atoms: N_11  and  C_9 
REMARK    8  A    between atoms: O_21  and  C_10 
ROOT
ATOM      1  P   UNL d   1      57.707   0.292  32.095  0.00  0.00     0.307 P 
ATOM      2  O   UNL d   1      58.118   0.256  32.808  0.00  0.00    -0.277 OA
ENDROOT
BRANCH   1   3
ATOM      3  C   UNL d   1      57.297   0.327  31.384  0.00  0.00     0.253 C 
ATOM      4  O   UNL d   1      56.509   0.593  31.361  0.00  0.00    -0.281 OA
BRANCH   3   5
ATOM      5  C   UNL d   1      57.665   0.098  30.674  0.00  0.00     0.046 A 
ATOM      6  C   UNL d   1      57.795  -0.698  30.511  0.00  0.00     0.030 A 
ATOM      7  C   UNL d   1      58.157  -0.918  29.812  0.00  0.00     0.116 A 
ATOM      8  C   UNL d   1      58.400  -0.351  29.255  0.00  0.00     0.116 A 
ATOM      9  C   UNL d   1      58.268   0.456  29.421  0.00  0.00     0.026 A 
ATOM     10  C   UNL d   1      57.900   0.678  30.132  0.00  0.00     0.005 A 
BRANCH   7  11
ATOM     11  O   UNL d   1      58.285  -1.714  29.652  0.00  0.00    -0.326 OA
ATOM     12  C   UNL d   1      58.309  -2.259  30.270  0.00  0.00     0.181 C 
ENDBRANCH   7  11
BRANCH   8  13
ATOM     13  O   UNL d   1      58.763  -0.569  28.552  0.00  0.00    -0.326 OA
ATOM     14  C   UNL d   1      59.569  -0.428  28.459  0.00  0.00     0.181 C 
ENDBRANCH   8  13
ENDBRANCH   3   5
ENDBRANCH   1   3
BRANCH   1  15
ATOM     15  O   UNL d   1      58.405   0.481  31.704  0.00  0.00    -0.281 OA
BRANCH  15  16
ATOM     16  C   UNL d   1      59.109   0.543  32.119  0.00  0.00     0.101 A 
ATOM     17  C   UNL d   1      59.832   0.543  31.711  0.00  0.00     0.025 A 
ATOM     18  C   UNL d   1      60.535   0.605  32.123  0.00  0.00     0.002 A 
ATOM     19  C   UNL d   1      60.528   0.668  32.943  0.00  0.00     0.000 A 
ATOM     20  C   UNL d   1      59.815   0.669  33.354  0.00  0.00     0.002 A 
ATOM     21  C   UNL d   1      59.100   0.606  32.936  0.00  0.00     0.025 A 
ENDBRANCH  15  16
ENDBRANCH   1  15
BRANCH   1  22
ATOM     22  C   UNL d   1      57.004   0.101  32.492  0.00  0.00     0.061 A 
ATOM     23  C   UNL d   1      56.408   0.667  32.564  0.00  0.00     0.007 A 
ATOM     24  C   UNL d   1      55.700   0.475  32.962  0.00  0.00     0.018 A 
ATOM     25  C   UNL d   1      55.595  -0.272  33.282  0.00  0.00     0.064 A 
ATOM     26  C   UNL d   1      56.198  -0.836  33.206  0.00  0.00     0.018 A 
ATOM     27  C   UNL d   1      56.906  -0.645  32.807  0.00  0.00     0.007 A 
BRANCH  25  28
ATOM     28  N   UNL d   1      54.894  -0.462  33.676  0.00  0.00    -0.301 N 
ATOM     29  C   UNL d   1      54.456   0.130  34.043  0.00  0.00     0.100 C 
ATOM     30  C   UNL d   1      54.637  -1.244  33.700  0.00  0.00     0.100 C 
ENDBRANCH  25  28
ENDBRANCH   1  22
TORSDOF 8
ENDMDL
MODEL 2
REMARK VINA RESULT:       2.8      1.558      3.864
REMARK  8 active torsions:
REMARK  status: ('A' for Active; 'I' for Inactive)
REMARK    1  A    between atoms: C_2  and  P_1 
REMARK    2  A    between atoms: O_4  and  P_1 
REMARK    3  A    between atoms: C_5  and  P_1 
REMARK    4  A    between atoms: C_3  and  C_2 
REMARK    5  A    between atoms: C_20  and  O_4 
REMARK    6  A    between atoms: O_19  and  C_8 
REMARK    7  A    between atoms: N_11  and  C_9 
REMARK    8  A    between atoms: O_21  and  C_10 
ROOT
ATOM      1  P   UNL d   1      57.253  -0.411  31.614  0.00  0.00     0.307 P 
ATOM      2  O   UNL d   1      56.755  -1.009  31.882  0.00  0.00    -0.277 OA
ENDROOT
BRANCH   1   3
ATOM      3  C   UNL d   1      57.751   0.186  31.346  0.00  0.00     0.253 C 
ATOM      4  O   UNL d   1      57.525   0.675  30.713  0.00  0.00    -0.281 OA
BRANCH   3   5
ATOM      5  C   UNL d   1      58.490   0.310  31.706  0.00  0.00     0.046 A 
ATOM      6  C   UNL d   1      59.178   0.312  31.254  0.00  0.00     0.030 A 
ATOM      7  C   UNL d   1      59.902   0.435  31.613  0.00  0.00     0.116 A 
ATOM      8  C   UNL d   1      59.961   0.558  32.433  0.00  0.00     0.116 A 
ATOM      9  C   UNL d   1      59.264   0.555  32.891  0.00  0.00     0.026 A 
ATOM     10  C   UNL d   1      58.529   0.431  32.525  0.00  0.00     0.005 A 
BRANCH   7  11
ATOM     11  O   UNL d   1      60.587   0.437  31.159  0.00  0.00    -0.326 OA
ATOM     12  C   UNL d   1      60.536   0.458  30.336  0.00  0.00     0.181 C 
ENDBRANCH   7  11
BRANCH   8  13
ATOM     13  O   UNL d   1      60.688   0.681  32.796  0.00  0.00    -0.326 OA
ATOM     14  C   UNL d   1      60.776   0.485  33.590  0.00  0.00     0.181 C 
ENDBRANCH   8  13
ENDBRANCH   3   5
ENDBRANCH   1   3
BRANCH   1  15
ATOM     15  O   UNL d   1      57.047   0.050  32.262  0.00  0.00    -0.281 OA
BRANCH  15  16
ATOM     16  C   UNL d   1      56.306  -0.026  32.606  0.00  0.00     0.101 A 
ATOM     17  C   UNL d   1      55.835   0.645  32.730  0.00  0.00     0.025 A 
ATOM     18  C   UNL d   1      55.098   0.571  33.073  0.00  0.00     0.002 A 
ATOM     19  C   UNL d   1      54.819  -0.170  33.297  0.00  0.00     0.000 A 
ATOM     20  C   UNL d   1      55.281  -0.841  33.177  0.00  0.00     0.002 A 
ATOM     21  C   UNL d   1      56.032  -0.766  32.828  0.00  0.00     0.025 A 
ENDBRANCH  15  16
ENDBRANCH   1  15
BRANCH   1  22
ATOM     22  C   UNL d   1      57.461  -0.878  30.960  0.00  0.00     0.061 A 
ATOM     23  C   UNL d   1      57.567  -0.525  30.222  0.00  0.00     0.007 A 
ATOM     24  C   UNL d   1      57.776  -0.993  29.564  0.00  0.00     0.018 A 
ATOM     25  C   UNL d   1      57.876  -1.802  29.648  0.00  0.00     0.064 A 
ATOM     26  C   UNL d   1      57.767  -2.151  30.392  0.00  0.00     0.018 A 
ATOM     27  C   UNL d   1      57.558  -1.682  31.051  0.00  0.00     0.007 A 
BRANCH  25  28
ATOM     28  N   UNL d   1      58.082  -2.266  28.997  0.00  0.00    -0.301 N 
ATOM     29  C   UNL d   1      58.865  -2.495  28.886  0.00  0.00     0.100 C 
ATOM     30  C   UNL d   1      57.502  -2.498  28.458  0.00  0.00     0.100 C 
ENDBRANCH  25  28
ENDBRANCH   1  22
TORSDOF 8
ENDMDL
MODEL 3
REMARK VINA RESULT:       4.7      1.860      3.811
REMARK  8 active torsions:
REMARK  status: ('A' for Active; 'I' for Inactive)
REMARK    1  A    between atoms: C_2  and  P_1 
REMARK    2  A    between atoms: O_4  and  P_1 
REMARK    3  A    between atoms: C_5  and  P_1 
REMARK    4  A    between atoms: C_3  and  C_2 
REMARK    5  A    between atoms: C_20  and  O_4 
REMARK    6  A    between atoms: O_19  and  C_8 
REMARK    7  A    between atoms: N_11  and  C_9 
REMARK    8  A    between atoms: O_21  and  C_10 
ROOT
ATOM      1  P   UNL d   1      57.589  -0.847  30.505  0.00  0.00     0.307 P 
ATOM      2  O   UNL d   1      57.410  -1.360  31.124  0.00  0.00    -0.277 OA
ENDROOT
BRANCH   1   3
ATOM      3  C   UNL d   1      57.768  -0.335  29.888  0.00  0.00     0.253 C 
ATOM      4  O   UNL d   1      57.167  -0.031  29.400  0.00  0.00    -0.281 OA
BRANCH   3   5
ATOM      5  C   UNL d   1      58.556  -0.113  29.740  0.00  0.00     0.046 A 
ATOM      6  C   UNL d   1      59.030   0.169  30.351  0.00  0.00     0.030 A 
ATOM      7  C   UNL d   1      59.803   0.387  30.200  0.00  0.00     0.116 A 
ATOM      8  C   UNL d   1      60.127   0.329  29.436  0.00  0.00     0.116 A 
ATOM      9  C   UNL d   1      59.645   0.042  28.818  0.00  0.00     0.026 A 
ATOM     10  C   UNL d   1      58.860  -0.178  28.972  0.00  0.00     0.005 A 
BRANCH   7  11
ATOM     11  O   UNL d   1      60.275   0.668  30.812  0.00  0.00    -0.326 OA
ATOM     12  C   UNL d   1      60.820   0.167  31.175  0.00  0.00     0.181 C 
ENDBRANCH   7  11
BRANCH   8  13
ATOM     13  O   UNL d   1      60.903   0.546  29.283  0.00  0.00    -0.326 OA
ATOM     14  C   UNL d   1      61.133   0.682  28.505  0.00  0.00     0.181 C 
ENDBRANCH   8  13
ENDBRANCH   3   5
ENDBRANCH   1   3
BRANCH   1  15
ATOM     15  O   UNL d   1      57.273  -0.221  30.934  0.00  0.00    -0.281 OA
BRANCH  15  16
ATOM     16  C   UNL d   1      56.907  -0.356  31.655  0.00  0.00     0.101 A 
ATOM     17  C   UNL d   1      57.147   0.067  32.328  0.00  0.00     0.025 A 
ATOM     18  C   UNL d   1      56.784  -0.066  33.047  0.00  0.00     0.002 A 
ATOM     19  C   UNL d   1      56.179  -0.620  33.107  0.00  0.00     0.000 A 
ATOM     20  C   UNL d   1      55.936  -1.044  32.445  0.00  0.00     0.002 A 
ATOM     21  C   UNL d   1      56.305  -0.909  31.713  0.00  0.00     0.025 A 
ENDBRANCH  15  16
ENDBRANCH   1  15
BRANCH   1  22
ATOM     22  C   UNL d   1      57.909  -1.480  30.073  0.00  0.00     0.061 A 
ATOM     23  C   UNL d   1      57.652  -1.620  29.302  0.00  0.00     0.007 A 
ATOM     24  C   UNL d   1      57.972  -2.256  28.867  0.00  0.00     0.018 A 
ATOM     25  C   UNL d   1      58.541  -2.741  29.203  0.00  0.00     0.064 A 
ATOM     26  C   UNL d   1      58.795  -2.595  29.979  0.00  0.00     0.018 A 
ATOM     27  C   UNL d   1      58.475  -1.958  30.414  0.00  0.00     0.007 A 
BRANCH  25  28
ATOM     28  N   UNL d   1      58.859  -3.371  28.773  0.00  0.00    -0.301 N 
ATOM     29  C   UNL d   1      58.378  -3.999  28.548  0.00  0.00     0.100 C 
ATOM     30  C   UNL d   1      59.658  -3.366  28.570  0.00  0.00     0.100 C 
ENDBRANCH  25  28
ENDBRANCH   1  22
TORSDOF 8
ENDMDL
MODEL 4
REMARK VINA RESULT:       4.9      1.649      3.961
REMARK  8 active torsions:
REMARK  status: ('A' for Active; 'I' for Inactive)
REMARK    1  A    between atoms: C_2  and  P_1 
REMARK    2  A    between atoms: O_4  and  P_1 
REMARK    3  A    between atoms: C_5  and  P_1 
REMARK    4  A    between atoms: C_3  and  C_2 
REMARK    5  A    between atoms: C_20  and  O_4 
REMARK    6  A    between atoms: O_19  and  C_8 
REMARK    7  A    between atoms: N_11  and  C_9 
REMARK    8  A    between atoms: O_21  and  C_10 
ROOT
ATOM      1  P   UNL d   1      57.496   0.094  32.344  0.00  0.00     0.307 P 
ATOM      2  O   UNL d   1      58.066   0.681  32.251  0.00  0.00    -0.277 OA
ENDROOT
BRANCH   1   3
ATOM      3  C   UNL d   1      56.927  -0.492  32.436  0.00  0.00     0.253 C 
ATOM      4  O   UNL d   1      57.094  -1.282  32.237  0.00  0.00    -0.281 OA
BRANCH   3   5
ATOM      5  C   UNL d   1      56.173  -0.303  32.731  0.00  0.00     0.046 A 
ATOM      6  C   UNL d   1      55.682  -0.893  33.029  0.00  0.00     0.030 A 
ATOM      7  C   UNL d   1      54.942  -0.702  33.318  0.00  0.00     0.116 A 
ATOM      8  C   UNL d   1      54.669   0.084  33.318  0.00  0.00     0.116 A 
ATOM      9  C   UNL d   1      55.167   0.682  33.017  0.00  0.00     0.026 A 
ATOM     10  C   UNL d   1      55.919   0.486  32.724  0.00  0.00     0.005 A 
BRANCH   7  11
ATOM     11  O   UNL d   1      54.454  -1.293  33.614  0.00  0.00    -0.326 OA
ATOM     12  C   UNL d   1      54.616  -2.083  33.443  0.00  0.00     0.181 C 
ENDBRANCH   7  11
BRANCH   8  13
ATOM     13  O   UNL d   1      53.926   0.278  33.608  0.00  0.00    -0.326 OA
ATOM     14  C   UNL d   1      53.863   0.593  34.366  0.00  0.00     0.181 C 
ENDBRANCH   8  13
ENDBRANCH   3   5
ENDBRANCH   1   3
BRANCH   1  15
ATOM     15  O   UNL d   1      57.336   0.371  33.101  0.00  0.00    -0.281 OA
BRANCH  15  16
ATOM     16  C   UNL d   1      57.943   0.474  33.642  0.00  0.00     0.101 A 
ATOM     17  C   UNL d   1      58.730   0.514  33.379  0.00  0.00     0.025 A 
ATOM     18  C   UNL d   1      59.336   0.617  33.917  0.00  0.00     0.002 A 
ATOM     19  C   UNL d   1      59.169   0.681  34.719  0.00  0.00     0.000 A 
ATOM     20  C   UNL d   1      58.392   0.643  34.987  0.00  0.00     0.002 A 
ATOM     21  C   UNL d   1      57.774   0.538  34.441  0.00  0.00     0.025 A 
ENDBRANCH  15  16
ENDBRANCH   1  15
BRANCH   1  22
ATOM     22  C   UNL d   1      57.659  -0.185  31.579  0.00  0.00     0.061 A 
ATOM     23  C   UNL d   1      57.754   0.351  30.959  0.00  0.00     0.007 A 
ATOM     24  C   UNL d   1      57.917   0.072  30.190  0.00  0.00     0.018 A 
ATOM     25  C   UNL d   1      57.984  -0.733  30.049  0.00  0.00     0.064 A 
ATOM     26  C   UNL d   1      57.888  -1.266  30.676  0.00  0.00     0.018 A 
ATOM     27  C   UNL d   1      57.724  -0.987  31.446  0.00  0.00     0.007 A 
BRANCH  25  28
ATOM     28  N   UNL d   1      58.147  -1.010  29.288  0.00  0.00    -0.301 N 
ATOM     29  C   UNL d   1      58.314  -1.806  29.166  0.00  0.00     0.100 C 
ATOM     30  C   UNL d   1      58.140  -0.485  28.652  0.00  0.00     0.100 C 
ENDBRANCH  25  28
ENDBRANCH   1  22
TORSDOF 8
ENDMDL
