MODEL 1
REMARK VINA RESULT:     100.3      0.000      0.000
REMARK  8 active torsions:
REMARK  status: ('A' for Active; 'I' for Inactive)
REMARK    1  A    between atoms: C_7  and  C_1 
REMARK    2  A    between atoms: N_5  and  C_2 
REMARK       I    between atoms: C_8  and  N_5 
REMARK    3  A    between atoms: N_9  and  C_7 
REMARK    4  A    between atoms: C_12  and  C_7 
REMARK    5  A    between atoms: C_10  and  C_8 
REMARK    6  A    between atoms: C_11  and  C_14 
REMARK    7  A    between atoms: O_25  and  C_11 
REMARK    8  A    between atoms: C_31  and  O_25 
ROOT
ATOM      1  C   UNL d   1      60.393  48.516  51.322  0.00  0.00     0.068 C 
ENDROOT
BRANCH   1   2
ATOM      2  C   UNL d   1      60.332  48.928  50.603  0.00  0.00     0.041 A 
ATOM      3  C   UNL d   1      59.689  49.278  50.231  0.00  0.00     0.115 A 
ATOM      4  S   UNL d   1      59.960  49.609  49.526  0.00  0.00    -0.068 SA
ATOM      5  C   UNL d   1      60.767  49.459  49.471  0.00  0.00     0.031 A 
ATOM      6  C   UNL d   1      61.008  49.030  50.147  0.00  0.00     0.009 A 
ATOM      7  C   UNL d   1      61.258  49.701  48.836  0.00  0.00     0.007 C 
ATOM      8  C   UNL d   1      61.771  48.766  50.316  0.00  0.00     0.001 C 
BRANCH   3   9
ATOM      9  N   UNL d   1      58.890  49.303  50.508  0.00  0.00    -0.200 NA
ATOM     10  C   UNL d   1      58.270  49.514  49.979  0.00  0.00     0.302 C 
ATOM     11  O   UNL d   1      58.450  49.691  49.211  0.00  0.00    -0.263 OA
BRANCH  10  12
ATOM     12  C   UNL d   1      57.487  49.535  50.265  0.00  0.00     0.158 A 
ATOM     13  O   UNL d   1      57.191  49.413  51.028  0.00  0.00    -0.300 OA
ATOM     14  C   UNL d   1      56.366  49.503  50.982  0.00  0.00     0.123 A 
ATOM     15  C   UNL d   1      56.181  49.683  50.171  0.00  0.00     0.029 A 
ATOM     16  C   UNL d   1      56.888  49.696  49.753  0.00  0.00     0.032 A 
ENDBRANCH  10  12
ENDBRANCH   3   9
ENDBRANCH   1   2
BRANCH   1  17
ATOM     17  N   UNL d   1      60.501  47.679  51.341  0.00  0.00    -0.304 N 
ATOM     18  C   UNL d   1      61.189  47.318  51.057  0.00  0.00     0.080 A 
ATOM     19  C   UNL d   1      61.261  46.503  51.090  0.00  0.00     0.024 A 
ATOM     20  C   UNL d   1      60.665  46.048  51.400  0.00  0.00     0.067 A 
ATOM     21  C   UNL d   1      59.970  46.377  51.690  0.00  0.00     0.024 A 
ATOM     22  C   UNL d   1      59.882  47.202  51.662  0.00  0.00     0.080 A 
BRANCH  20  23
ATOM     23  C   UNL d   1      60.778  45.246  51.414  0.00  0.00     0.300 C 
ATOM     24  O   UNL d   1      60.834  44.827  52.119  0.00  0.00    -0.259 OA
BRANCH  23  25
ATOM     25  O   UNL d   1      60.843  44.801  50.711  0.00  0.00    -0.271 OA
BRANCH  25  26
ATOM     26  C   UNL d   1      60.838  43.914  50.959  0.00  0.00     0.126 C 
ATOM     27  C   UNL d   1      61.550  43.623  50.992  0.00  0.00     0.029 C 
ENDBRANCH  25  26
ENDBRANCH  23  25
ENDBRANCH  20  23
ENDBRANCH   1  17
BRANCH   1  28
ATOM     28  C   UNL d   1      60.351  48.914  52.062  0.00  0.00     0.035 A 
ATOM     29  C   UNL d   1      59.626  49.199  52.329  0.00  0.00     0.100 A 
ATOM     30  N   UNL d   1      59.582  49.587  53.049  0.00  0.00    -0.242 NA
ATOM     31  C   UNL d   1      60.307  49.694  53.527  0.00  0.00     0.099 A 
ATOM     32  C   UNL d   1      61.023  49.386  53.214  0.00  0.00     0.021 A 
ATOM     33  C   UNL d   1      61.050  49.006  52.502  0.00  0.00     0.005 A 
ENDBRANCH   1  28
TORSDOF 8
ENDMDL
