MODEL 1
REMARK VINA RESULT:      -3.2      0.000      0.000
REMARK  6 active torsions:
REMARK  status: ('A' for Active; 'I' for Inactive)
REMARK    1  A    between atoms: C_10  and  C_1 
REMARK    2  A    between atoms: C_7  and  O_9 
REMARK       I    between atoms: N_12  and  C_7 
REMARK    3  A    between atoms: O_9  and  C_14 
REMARK    4  A    between atoms: C_24  and  N_12 
REMARK    5  A    between atoms: C_25  and  N_12 
REMARK    6  A    between atoms: O_23  and  C_20 
ROOT
ATOM      1  C   UNL d   1     -41.638-122.561 -52.937  0.00  0.00     0.062 A 
ATOM      2  C   UNL d   1     -41.816-122.058 -52.294  0.00  0.00     0.199 A 
ATOM      3  C   UNL d   1     -41.307-123.317 -52.788  0.00  0.00     0.103 A 
ATOM      4  C   UNL d   1     -41.673-122.296 -51.522  0.00  0.00     0.062 A 
ATOM      5  C   UNL d   1     -41.344-123.049 -51.374  0.00  0.00     0.105 A 
ATOM      6  O   UNL d   1     -41.160-123.561 -52.002  0.00  0.00    -0.307 OA
ATOM      7  C   UNL d   1     -41.197-123.293 -50.593  0.00  0.00     0.050 A 
ATOM      8  C   UNL d   1     -41.848-121.802 -50.877  0.00  0.00     0.007 A 
ATOM      9  O   UNL d   1     -42.142-121.314 -52.444  0.00  0.00    -0.286 OA
ATOM     10  C   UNL d   1     -41.376-122.793 -49.962  0.00  0.00     0.107 A 
ATOM     11  C   UNL d   1     -41.701-122.047 -50.105  0.00  0.00     0.025 A 
ATOM     12  C   UNL d   1     -41.129-123.817 -53.419  0.00  0.00     0.027 C 
ENDROOT
BRANCH   1  13
ATOM     13  C   UNL d   1     -41.783-122.319 -53.709  0.00  0.00     0.005 A 
ATOM     14  C   UNL d   1     -41.148-122.135 -54.211  0.00  0.00     0.002 A 
ATOM     15  C   UNL d   1     -41.294-121.893 -54.983  0.00  0.00     0.024 A 
ATOM     16  C   UNL d   1     -42.069-121.832 -55.258  0.00  0.00     0.094 A 
ATOM     17  C   UNL d   1     -42.707-122.017 -54.754  0.00  0.00     0.024 A 
ATOM     18  C   UNL d   1     -42.558-122.258 -53.984  0.00  0.00     0.002 A 
BRANCH  16  19
ATOM     19  O   UNL d   1     -42.218-121.591 -56.029  0.00  0.00    -0.328 OA
ATOM     20  C   UNL d   1     -41.597-121.490 -56.561  0.00  0.00     0.181 C 
ENDBRANCH  16  19
ENDBRANCH   1  13
BRANCH  10  21
ATOM     21  O   UNL d   1     -41.228-123.039 -49.189  0.00  0.00    -0.259 OA
BRANCH  21  22
ATOM     22  C   UNL d   1     -41.820-123.419 -48.759  0.00  0.00     0.377 C 
ATOM     23  N   UNL d   1     -41.784-123.435 -47.936  0.00  0.00    -0.252 N 
ATOM     24  O   UNL d   1     -42.448-123.784 -49.153  0.00  0.00    -0.237 OA
BRANCH  23  25
ATOM     25  C   UNL d   1     -41.155-123.070 -47.536  0.00  0.00     0.085 C 
ATOM     26  C   UNL d   1     -41.181-122.950 -46.721  0.00  0.00     0.021 C 
ENDBRANCH  23  25
BRANCH  23  27
ATOM     27  C   UNL d   1     -42.377-123.817 -47.503  0.00  0.00     0.085 C 
ATOM     28  C   UNL d   1     -42.892-123.373 -47.020  0.00  0.00     0.021 C 
ENDBRANCH  23  27
ENDBRANCH  21  22
ENDBRANCH  10  21
TORSDOF 6
ENDMDL
MODEL 2
REMARK VINA RESULT:      -2.9      1.776      5.822
REMARK  6 active torsions:
REMARK  status: ('A' for Active; 'I' for Inactive)
REMARK    1  A    between atoms: C_10  and  C_1 
REMARK    2  A    between atoms: C_7  and  O_9 
REMARK       I    between atoms: N_12  and  C_7 
REMARK    3  A    between atoms: O_9  and  C_14 
REMARK    4  A    between atoms: C_24  and  N_12 
REMARK    5  A    between atoms: C_25  and  N_12 
REMARK    6  A    between atoms: O_23  and  C_20 
ROOT
ATOM      1  C   UNL d   1     -42.190-122.818 -50.293  0.00  0.00     0.062 A 
ATOM      2  C   UNL d   1     -41.678-123.185 -50.841  0.00  0.00     0.199 A 
ATOM      3  C   UNL d   1     -42.683-122.189 -50.549  0.00  0.00     0.103 A 
ATOM      4  C   UNL d   1     -41.652-122.939 -51.623  0.00  0.00     0.062 A 
ATOM      5  C   UNL d   1     -42.143-122.314 -51.878  0.00  0.00     0.105 A 
ATOM      6  O   UNL d   1     -42.658-121.937 -51.346  0.00  0.00    -0.307 OA
ATOM      7  C   UNL d   1     -42.120-122.062 -52.670  0.00  0.00     0.050 A 
ATOM      8  C   UNL d   1     -41.146-123.300 -52.174  0.00  0.00     0.007 A 
ATOM      9  O   UNL d   1     -41.194-123.804 -50.586  0.00  0.00    -0.286 OA
ATOM     10  C   UNL d   1     -41.613-122.428 -53.206  0.00  0.00     0.107 A 
ATOM     11  C   UNL d   1     -41.126-123.047 -52.958  0.00  0.00     0.025 A 
ATOM     12  C   UNL d   1     -43.191-121.823 -50.013  0.00  0.00     0.027 C 
ENDROOT
BRANCH   1  13
ATOM     13  C   UNL d   1     -42.213-123.068 -49.510  0.00  0.00     0.005 A 
ATOM     14  C   UNL d   1     -41.624-122.820 -48.981  0.00  0.00     0.002 A 
ATOM     15  C   UNL d   1     -41.647-123.070 -48.197  0.00  0.00     0.024 A 
ATOM     16  C   UNL d   1     -42.252-123.565 -47.939  0.00  0.00     0.094 A 
ATOM     17  C   UNL d   1     -42.844-123.815 -48.471  0.00  0.00     0.024 A 
ATOM     18  C   UNL d   1     -42.819-123.564 -49.251  0.00  0.00     0.002 A 
BRANCH  16  19
ATOM     19  O   UNL d   1     -42.278-123.817 -47.158  0.00  0.00    -0.328 OA
ATOM     20  C   UNL d   1     -41.614-123.746 -46.676  0.00  0.00     0.181 C 
ENDBRANCH  16  19
ENDBRANCH   1  13
BRANCH  10  21
ATOM     21  O   UNL d   1     -41.592-122.175 -53.991  0.00  0.00    -0.259 OA
BRANCH  21  22
ATOM     22  C   UNL d   1     -42.092-122.522 -54.547  0.00  0.00     0.377 C 
ATOM     23  N   UNL d   1     -42.120-122.225 -55.316  0.00  0.00    -0.252 N 
ATOM     24  O   UNL d   1     -42.563-123.167 -54.335  0.00  0.00    -0.237 OA
BRANCH  23  25
ATOM     25  C   UNL d   1     -41.648-121.577 -55.532  0.00  0.00     0.085 C 
ATOM     26  C   UNL d   1     -41.357-121.501 -56.301  0.00  0.00     0.021 C 
ENDBRANCH  23  25
BRANCH  23  27
ATOM     27  C   UNL d   1     -42.621-122.572 -55.876  0.00  0.00     0.085 C 
ATOM     28  C   UNL d   1     -43.342-122.204 -56.076  0.00  0.00     0.021 C 
ENDBRANCH  23  27
ENDBRANCH  21  22
ENDBRANCH  10  21
TORSDOF 6
ENDMDL
