MODEL 1
REMARK VINA RESULT:      -4.2      0.000      0.000
REMARK  6 active torsions:
REMARK  status: ('A' for Active; 'I' for Inactive)
REMARK       I    between atoms: N_2  and  C_1 
REMARK    1  A    between atoms: C_5  and  C_1 
REMARK    2  A    between atoms: C_3  and  N_2 
REMARK    3  A    between atoms: O_16  and  C_6 
REMARK    4  A    between atoms: O_17  and  C_11 
REMARK    5  A    between atoms: O_18  and  C_12 
REMARK    6  A    between atoms: C_19  and  O_18 
ROOT
ATOM      1  C   UNL d   1     -41.606-123.166 -50.928  0.00  0.00     0.279 C 
ATOM      2  N   UNL d   1     -42.182-122.802 -50.459  0.00  0.00    -0.206 NA
ATOM      3  O   UNL d   1     -41.123-123.746 -50.612  0.00  0.00    -0.265 OA
ENDROOT
BRANCH   1   4
ATOM      4  C   UNL d   1     -41.520-122.937 -51.738  0.00  0.00     0.058 A 
ATOM      5  C   UNL d   1     -41.575-123.510 -52.329  0.00  0.00     0.007 A 
ATOM      6  C   UNL d   1     -41.491-123.290 -53.110  0.00  0.00     0.025 A 
ATOM      7  C   UNL d   1     -41.352-122.494 -53.303  0.00  0.00     0.100 A 
ATOM      8  C   UNL d   1     -41.299-121.935 -52.705  0.00  0.00     0.025 A 
ATOM      9  C   UNL d   1     -41.383-122.155 -51.925  0.00  0.00     0.007 A 
BRANCH   7  10
ATOM     10  O   UNL d   1     -41.266-122.267 -54.108  0.00  0.00    -0.305 OA
BRANCH  10  11
ATOM     11  C   UNL d   1     -41.896-122.376 -54.630  0.00  0.00     0.123 C 
ATOM     12  C   UNL d   1     -41.936-121.921 -55.318  0.00  0.00     0.029 C 
ENDBRANCH  10  11
ENDBRANCH   7  10
ENDBRANCH   1   4
BRANCH   2  13
ATOM     13  C   UNL d   1     -42.266-123.023 -49.679  0.00  0.00     0.109 A 
ATOM     14  C   UNL d   1     -41.663-122.848 -49.148  0.00  0.00     0.045 A 
ATOM     15  C   UNL d   1     -41.742-123.067 -48.367  0.00  0.00     0.096 A 
ATOM     16  C   UNL d   1     -42.421-123.464 -48.095  0.00  0.00     0.026 A 
ATOM     17  C   UNL d   1     -43.009-123.632 -48.623  0.00  0.00     0.028 A 
ATOM     18  C   UNL d   1     -42.948-123.417 -49.423  0.00  0.00     0.112 A 
BRANCH  15  19
ATOM     19  O   UNL d   1     -41.123-122.882 -47.847  0.00  0.00    -0.328 OA
ATOM     20  C   UNL d   1     -41.193-123.077 -47.043  0.00  0.00     0.181 C 
ENDBRANCH  15  19
BRANCH  18  21
ATOM     21  O   UNL d   1     -43.552-123.595 -49.945  0.00  0.00    -0.327 OA
ATOM     22  C   UNL d   1     -44.298-123.809 -49.649  0.00  0.00     0.181 C 
ENDBRANCH  18  21
ENDBRANCH   2  13
TORSDOF 6
ENDMDL
