MODEL 1
REMARK VINA RESULT:      -6.8      0.000      0.000
REMARK  5 active torsions:
REMARK  status: ('A' for Active; 'I' for Inactive)
REMARK    1  A    between atoms: C_4  and  N_1 
REMARK    2  A    between atoms: C_8  and  C_3 
REMARK    3  A    between atoms: N_7  and  C_4 
REMARK    4  A    between atoms: C_15  and  N_7 
REMARK    5  A    between atoms: C_17  and  C_15 
ROOT
ATOM      1  N   UNL d   1     -49.018  14.155  22.376  0.00  0.00    -0.281 N 
ATOM      2  C   UNL d   1     -50.137  14.640  23.099  0.00  0.00     0.080 A 
ATOM      3  C   UNL d   1     -49.713  14.012  22.788  0.00  0.00     0.084 A 
ATOM      4  N   UNL d   1     -49.868  15.409  23.000  0.00  0.00    -0.301 N 
ATOM      5  C   UNL d   1     -48.747  14.930  22.276  0.00  0.00     0.101 A 
ATOM      6  C   UNL d   1     -50.841  14.669  23.531  0.00  0.00     0.021 A 
ATOM      7  C   UNL d   1     -50.401  15.921  23.368  0.00  0.00     0.080 A 
ATOM      8  C   UNL d   1     -49.178  15.555  22.592  0.00  0.00     0.100 A 
ATOM      9  C   UNL d   1     -51.005  15.467  23.698  0.00  0.00     0.021 A 
ENDROOT
BRANCH   1  10
ATOM     10  C   UNL d   1     -48.583  13.526  22.058  0.00  0.00     0.184 C 
ATOM     11  S   UNL d   1     -48.849  13.161  21.376  0.00  0.00    -0.040 SA
BRANCH  10  12
ATOM     12  N   UNL d   1     -47.893  13.273  22.421  0.00  0.00    -0.330 N 
ATOM     13  H   UNL d   1     -47.807  13.347  23.239  0.00  0.00     0.168 HD
BRANCH  12  14
ATOM     14  C   UNL d   1     -47.289  12.947  21.973  0.00  0.00     0.074 C 
BRANCH  14  15
ATOM     15  C   UNL d   1     -46.570  12.764  22.323  0.00  0.00     0.017 A 
ATOM     16  C   UNL d   1     -45.888  13.191  22.126  0.00  0.00     0.002 A 
ATOM     17  C   UNL d   1     -45.169  13.000  22.483  0.00  0.00     0.000 A 
ATOM     18  C   UNL d   1     -45.121  12.387  23.036  0.00  0.00     0.000 A 
ATOM     19  C   UNL d   1     -45.808  11.963  23.229  0.00  0.00     0.000 A 
ATOM     20  C   UNL d   1     -46.530  12.151  22.873  0.00  0.00     0.002 A 
ENDBRANCH  14  15
ENDBRANCH  12  14
ENDBRANCH  10  12
ENDBRANCH   1  10
BRANCH   3  21
ATOM     21  C   UNL d   1     -49.982  13.239  22.886  0.00  0.00     0.037 A 
ATOM     22  C   UNL d   1     -50.397  12.864  22.279  0.00  0.00     0.100 A 
ATOM     23  N   UNL d   1     -50.661  12.093  22.385  0.00  0.00    -0.242 NA
ATOM     24  C   UNL d   1     -50.521  11.695  23.077  0.00  0.00     0.099 A 
ATOM     25  C   UNL d   1     -50.106  12.065  23.690  0.00  0.00     0.021 A 
ATOM     26  C   UNL d   1     -49.837  12.839  23.591  0.00  0.00     0.005 A 
ENDBRANCH   3  21
TORSDOF 5
ENDMDL
MODEL 2
REMARK VINA RESULT:      -5.8      1.353      1.627
REMARK  5 active torsions:
REMARK  status: ('A' for Active; 'I' for Inactive)
REMARK    1  A    between atoms: C_4  and  N_1 
REMARK    2  A    between atoms: C_8  and  C_3 
REMARK    3  A    between atoms: N_7  and  C_4 
REMARK    4  A    between atoms: C_15  and  N_7 
REMARK    5  A    between atoms: C_17  and  C_15 
ROOT
ATOM      1  N   UNL d   1     -48.608  13.862  22.458  0.00  0.00    -0.281 N 
ATOM      2  C   UNL d   1     -49.884  13.563  21.916  0.00  0.00     0.080 A 
ATOM      3  C   UNL d   1     -49.221  13.330  22.336  0.00  0.00     0.084 A 
ATOM      4  N   UNL d   1     -49.936  14.327  21.619  0.00  0.00    -0.301 N 
ATOM      5  C   UNL d   1     -48.661  14.632  22.158  0.00  0.00     0.101 A 
ATOM      6  C   UNL d   1     -50.575  13.161  21.708  0.00  0.00     0.021 A 
ATOM      7  C   UNL d   1     -50.658  14.404  21.225  0.00  0.00     0.080 A 
ATOM      8  C   UNL d   1     -49.330  14.858  21.738  0.00  0.00     0.100 A 
ATOM      9  C   UNL d   1     -51.056  13.684  21.278  0.00  0.00     0.021 A 
ENDROOT
BRANCH   1  10
ATOM     10  C   UNL d   1     -47.934  13.635  22.881  0.00  0.00     0.184 C 
ATOM     11  S   UNL d   1     -47.974  13.577  23.697  0.00  0.00    -0.040 SA
BRANCH  10  12
ATOM     12  N   UNL d   1     -47.234  13.470  22.488  0.00  0.00    -0.330 N 
ATOM     13  H   UNL d   1     -47.252  13.209  21.705  0.00  0.00     0.168 HD
BRANCH  12  14
ATOM     14  C   UNL d   1     -46.515  13.563  22.873  0.00  0.00     0.074 C 
BRANCH  14  15
ATOM     15  C   UNL d   1     -45.833  13.242  22.551  0.00  0.00     0.017 A 
ATOM     16  C   UNL d   1     -45.499  12.557  22.877  0.00  0.00     0.002 A 
ATOM     17  C   UNL d   1     -44.812  12.240  22.548  0.00  0.00     0.000 A 
ATOM     18  C   UNL d   1     -44.451  12.599  21.896  0.00  0.00     0.000 A 
ATOM     19  C   UNL d   1     -44.790  13.285  21.574  0.00  0.00     0.000 A 
ATOM     20  C   UNL d   1     -45.479  13.605  21.901  0.00  0.00     0.002 A 
ENDBRANCH  14  15
ENDBRANCH  12  14
ENDBRANCH  10  12
ENDBRANCH   1  10
BRANCH   3  21
ATOM     21  C   UNL d   1     -49.166  12.563  22.635  0.00  0.00     0.037 A 
ATOM     22  C   UNL d   1     -48.849  11.959  22.171  0.00  0.00     0.100 A 
ATOM     23  N   UNL d   1     -48.798  11.198  22.476  0.00  0.00    -0.242 NA
ATOM     24  C   UNL d   1     -49.054  11.031  23.227  0.00  0.00     0.099 A 
ATOM     25  C   UNL d   1     -49.373  11.632  23.698  0.00  0.00     0.021 A 
ATOM     26  C   UNL d   1     -49.428  12.400  23.398  0.00  0.00     0.005 A 
ENDBRANCH   3  21
TORSDOF 5
ENDMDL
MODEL 3
REMARK VINA RESULT:      -5.5      1.169      2.402
REMARK  5 active torsions:
REMARK  status: ('A' for Active; 'I' for Inactive)
REMARK    1  A    between atoms: C_4  and  N_1 
REMARK    2  A    between atoms: C_8  and  C_3 
REMARK    3  A    between atoms: N_7  and  C_4 
REMARK    4  A    between atoms: C_15  and  N_7 
REMARK    5  A    between atoms: C_17  and  C_15 
ROOT
ATOM      1  N   UNL d   1     -48.736  12.943  22.405  0.00  0.00    -0.281 N 
ATOM      2  C   UNL d   1     -49.938  13.301  21.744  0.00  0.00     0.080 A 
ATOM      3  C   UNL d   1     -49.308  13.503  22.227  0.00  0.00     0.084 A 
ATOM      4  N   UNL d   1     -49.997  12.541  21.439  0.00  0.00    -0.301 N 
ATOM      5  C   UNL d   1     -48.795  12.177  22.098  0.00  0.00     0.101 A 
ATOM      6  C   UNL d   1     -50.586  13.736  21.473  0.00  0.00     0.021 A 
ATOM      7  C   UNL d   1     -50.680  12.498  20.978  0.00  0.00     0.080 A 
ATOM      8  C   UNL d   1     -49.430  11.982  21.614  0.00  0.00     0.100 A 
ATOM      9  C   UNL d   1     -51.048  13.236  20.995  0.00  0.00     0.021 A 
ENDROOT
BRANCH   1  10
ATOM     10  C   UNL d   1     -48.096  13.138  22.893  0.00  0.00     0.184 C 
ATOM     11  S   UNL d   1     -48.219  13.229  23.697  0.00  0.00    -0.040 SA
BRANCH  10  12
ATOM     12  N   UNL d   1     -47.348  13.240  22.574  0.00  0.00    -0.330 N 
ATOM     13  H   UNL d   1     -47.261  13.553  21.815  0.00  0.00     0.168 HD
BRANCH  12  14
ATOM     14  C   UNL d   1     -46.684  13.030  23.009  0.00  0.00     0.074 C 
BRANCH  14  15
ATOM     15  C   UNL d   1     -45.947  13.015  22.652  0.00  0.00     0.017 A 
ATOM     16  C   UNL d   1     -45.653  13.690  22.271  0.00  0.00     0.002 A 
ATOM     17  C   UNL d   1     -44.910  13.667  21.913  0.00  0.00     0.000 A 
ATOM     18  C   UNL d   1     -44.453  12.977  21.930  0.00  0.00     0.000 A 
ATOM     19  C   UNL d   1     -44.753  12.304  22.313  0.00  0.00     0.000 A 
ATOM     20  C   UNL d   1     -45.498  12.324  22.673  0.00  0.00     0.002 A 
ENDBRANCH  14  15
ENDBRANCH  12  14
ENDBRANCH  10  12
ENDBRANCH   1  10
BRANCH   3  21
ATOM     21  C   UNL d   1     -49.248  14.266  22.534  0.00  0.00     0.037 A 
ATOM     22  C   UNL d   1     -48.854  14.854  22.109  0.00  0.00     0.100 A 
ATOM     23  N   UNL d   1     -48.798  15.612  22.421  0.00  0.00    -0.242 NA
ATOM     24  C   UNL d   1     -49.123  15.792  23.142  0.00  0.00     0.099 A 
ATOM     25  C   UNL d   1     -49.519  15.207  23.574  0.00  0.00     0.021 A 
ATOM     26  C   UNL d   1     -49.580  14.443  23.266  0.00  0.00     0.005 A 
ENDBRANCH   3  21
TORSDOF 5
ENDMDL
MODEL 4
REMARK VINA RESULT:      -5.2      8.078     10.251
REMARK  5 active torsions:
REMARK  status: ('A' for Active; 'I' for Inactive)
REMARK    1  A    between atoms: C_4  and  N_1 
REMARK    2  A    between atoms: C_8  and  C_3 
REMARK    3  A    between atoms: N_7  and  C_4 
REMARK    4  A    between atoms: C_15  and  N_7 
REMARK    5  A    between atoms: C_17  and  C_15 
ROOT
ATOM      1  N   UNL d   1     -38.817  14.636  20.598  0.00  0.00    -0.281 N 
ATOM      2  C   UNL d   1     -39.291  14.025  21.786  0.00  0.00     0.080 A 
ATOM      3  C   UNL d   1     -39.426  14.493  21.127  0.00  0.00     0.084 A 
ATOM      4  N   UNL d   1     -38.547  13.700  21.915  0.00  0.00    -0.301 N 
ATOM      5  C   UNL d   1     -38.068  14.309  20.728  0.00  0.00     0.101 A 
ATOM      6  C   UNL d   1     -39.784  13.787  22.404  0.00  0.00     0.021 A 
ATOM      7  C   UNL d   1     -38.574  13.259  22.613  0.00  0.00     0.080 A 
ATOM      8  C   UNL d   1     -37.940  13.840  21.391  0.00  0.00     0.100 A 
ATOM      9  C   UNL d   1     -39.339  13.311  22.919  0.00  0.00     0.021 A 
ENDROOT
BRANCH   1  10
ATOM     10  C   UNL d   1     -38.944  15.108  19.929  0.00  0.00     0.184 C 
ATOM     11  S   UNL d   1     -38.974  15.922  20.014  0.00  0.00    -0.040 SA
BRANCH  10  12
ATOM     12  N   UNL d   1     -39.039  14.765  19.191  0.00  0.00    -0.330 N 
ATOM     13  H   UNL d   1     -39.396  14.023  19.123  0.00  0.00     0.168 HD
BRANCH  12  14
ATOM     14  C   UNL d   1     -38.779  15.158  18.519  0.00  0.00     0.074 C 
BRANCH  14  15
ATOM     15  C   UNL d   1     -38.842  14.800  17.784  0.00  0.00     0.017 A 
ATOM     16  C   UNL d   1     -39.567  14.790  17.384  0.00  0.00     0.002 A 
ATOM     17  C   UNL d   1     -39.622  14.428  16.645  0.00  0.00     0.000 A 
ATOM     18  C   UNL d   1     -38.960  14.074  16.297  0.00  0.00     0.000 A 
ATOM     19  C   UNL d   1     -38.236  14.087  16.703  0.00  0.00     0.000 A 
ATOM     20  C   UNL d   1     -38.178  14.449  17.444  0.00  0.00     0.002 A 
ENDBRANCH  14  15
ENDBRANCH  12  14
ENDBRANCH  10  12
ENDBRANCH   1  10
BRANCH   3  21
ATOM     21  C   UNL d   1     -40.172  14.820  20.996  0.00  0.00     0.037 A 
ATOM     22  C   UNL d   1     -40.756  14.379  20.615  0.00  0.00     0.100 A 
ATOM     23  N   UNL d   1     -41.496  14.712  20.488  0.00  0.00    -0.242 NA
ATOM     24  C   UNL d   1     -41.662  15.468  20.730  0.00  0.00     0.099 A 
ATOM     25  C   UNL d   1     -41.080  15.916  21.112  0.00  0.00     0.021 A 
ATOM     26  C   UNL d   1     -40.333  15.588  21.244  0.00  0.00     0.005 A 
ENDBRANCH   3  21
TORSDOF 5
ENDMDL
MODEL 5
REMARK VINA RESULT:      -5.0      1.317      1.809
REMARK  5 active torsions:
REMARK  status: ('A' for Active; 'I' for Inactive)
REMARK    1  A    between atoms: C_4  and  N_1 
REMARK    2  A    between atoms: C_8  and  C_3 
REMARK    3  A    between atoms: N_7  and  C_4 
REMARK    4  A    between atoms: C_15  and  N_7 
REMARK    5  A    between atoms: C_17  and  C_15 
ROOT
ATOM      1  N   UNL d   1     -47.565  13.721  22.797  0.00  0.00    -0.281 N 
ATOM      2  C   UNL d   1     -48.896  14.023  22.412  0.00  0.00     0.080 A 
ATOM      3  C   UNL d   1     -48.327  13.472  22.623  0.00  0.00     0.084 A 
ATOM      4  N   UNL d   1     -48.704  14.821  22.376  0.00  0.00    -0.301 N 
ATOM      5  C   UNL d   1     -47.371  14.525  22.760  0.00  0.00     0.101 A 
ATOM      6  C   UNL d   1     -49.692  13.942  22.210  0.00  0.00     0.021 A 
ATOM      7  C   UNL d   1     -49.379  15.240  22.152  0.00  0.00     0.080 A 
ATOM      8  C   UNL d   1     -47.948  15.071  22.548  0.00  0.00     0.100 A 
ATOM      9  C   UNL d   1     -49.993  14.700  22.048  0.00  0.00     0.021 A 
ENDROOT
BRANCH   1  10
ATOM     10  C   UNL d   1     -46.983  13.171  23.010  0.00  0.00     0.184 C 
ATOM     11  S   UNL d   1     -47.077  12.736  23.698  0.00  0.00    -0.040 SA
BRANCH  10  12
ATOM     12  N   UNL d   1     -46.321  13.064  22.540  0.00  0.00    -0.330 N 
ATOM     13  H   UNL d   1     -46.381  13.141  21.720  0.00  0.00     0.168 HD
BRANCH  12  14
ATOM     14  C   UNL d   1     -45.599  12.880  22.883  0.00  0.00     0.074 C 
BRANCH  14  15
ATOM     15  C   UNL d   1     -44.938  12.764  22.411  0.00  0.00     0.017 A 
ATOM     16  C   UNL d   1     -44.761  13.295  21.800  0.00  0.00     0.002 A 
ATOM     17  C   UNL d   1     -44.095  13.172  21.330  0.00  0.00     0.000 A 
ATOM     18  C   UNL d   1     -43.599  12.522  21.462  0.00  0.00     0.000 A 
ATOM     19  C   UNL d   1     -43.781  11.994  22.076  0.00  0.00     0.000 A 
ATOM     20  C   UNL d   1     -44.448  12.115  22.549  0.00  0.00     0.002 A 
ENDBRANCH  14  15
ENDBRANCH  12  14
ENDBRANCH  10  12
ENDBRANCH   1  10
BRANCH   3  21
ATOM     21  C   UNL d   1     -48.517  12.671  22.660  0.00  0.00     0.037 A 
ATOM     22  C   UNL d   1     -48.431  12.193  21.992  0.00  0.00     0.100 A 
ATOM     23  N   UNL d   1     -48.623  11.395  22.037  0.00  0.00    -0.242 NA
ATOM     24  C   UNL d   1     -48.895  11.069  22.728  0.00  0.00     0.099 A 
ATOM     25  C   UNL d   1     -48.984  11.543  23.401  0.00  0.00     0.021 A 
ATOM     26  C   UNL d   1     -48.793  12.346  23.364  0.00  0.00     0.005 A 
ENDBRANCH   3  21
TORSDOF 5
ENDMDL
MODEL 6
REMARK VINA RESULT:      -4.5      8.693     10.385
REMARK  5 active torsions:
REMARK  status: ('A' for Active; 'I' for Inactive)
REMARK    1  A    between atoms: C_4  and  N_1 
REMARK    2  A    between atoms: C_8  and  C_3 
REMARK    3  A    between atoms: N_7  and  C_4 
REMARK    4  A    between atoms: C_15  and  N_7 
REMARK    5  A    between atoms: C_17  and  C_15 
ROOT
ATOM      1  N   UNL d   1     -38.982  14.390  19.752  0.00  0.00    -0.281 N 
ATOM      2  C   UNL d   1     -40.111  14.782  20.515  0.00  0.00     0.080 A 
ATOM      3  C   UNL d   1     -39.743  14.693  19.788  0.00  0.00     0.084 A 
ATOM      4  N   UNL d   1     -39.719  14.567  21.204  0.00  0.00    -0.301 N 
ATOM      5  C   UNL d   1     -38.587  14.174  20.446  0.00  0.00     0.101 A 
ATOM      6  C   UNL d   1     -40.858  15.065  20.723  0.00  0.00     0.021 A 
ATOM      7  C   UNL d   1     -40.219  14.716  21.844  0.00  0.00     0.080 A 
ATOM      8  C   UNL d   1     -38.963  14.266  21.171  0.00  0.00     0.100 A 
ATOM      9  C   UNL d   1     -40.925  15.024  21.550  0.00  0.00     0.021 A 
ENDROOT
BRANCH   1  10
ATOM     10  C   UNL d   1     -38.602  14.297  19.022  0.00  0.00     0.184 C 
ATOM     11  S   UNL d   1     -38.233  14.942  18.678  0.00  0.00    -0.040 SA
BRANCH  10  12
ATOM     12  N   UNL d   1     -38.595  13.568  18.647  0.00  0.00    -0.330 N 
ATOM     13  H   UNL d   1     -39.235  13.054  18.734  0.00  0.00     0.168 HD
BRANCH  12  14
ATOM     14  C   UNL d   1     -37.952  13.349  18.186  0.00  0.00     0.074 C 
BRANCH  14  15
ATOM     15  C   UNL d   1     -37.948  12.624  17.805  0.00  0.00     0.017 A 
ATOM     16  C   UNL d   1     -37.949  12.585  16.977  0.00  0.00     0.002 A 
ATOM     17  C   UNL d   1     -37.945  11.852  16.601  0.00  0.00     0.000 A 
ATOM     18  C   UNL d   1     -37.941  11.151  17.041  0.00  0.00     0.000 A 
ATOM     19  C   UNL d   1     -37.940  11.195  17.870  0.00  0.00     0.000 A 
ATOM     20  C   UNL d   1     -37.944  11.929  18.251  0.00  0.00     0.002 A 
ENDBRANCH  14  15
ENDBRANCH  12  14
ENDBRANCH  10  12
ENDBRANCH   1  10
BRANCH   3  21
ATOM     21  C   UNL d   1     -40.134  14.908  19.095  0.00  0.00     0.037 A 
ATOM     22  C   UNL d   1     -39.993  15.644  18.750  0.00  0.00     0.100 A 
ATOM     23  N   UNL d   1     -40.387  15.851  18.059  0.00  0.00    -0.242 NA
ATOM     24  C   UNL d   1     -40.912  15.343  17.710  0.00  0.00     0.099 A 
ATOM     25  C   UNL d   1     -41.059  14.602  18.050  0.00  0.00     0.021 A 
ATOM     26  C   UNL d   1     -40.667  14.387  18.745  0.00  0.00     0.005 A 
ENDBRANCH   3  21
TORSDOF 5
ENDMDL
