MODEL 1
REMARK VINA RESULT:      13.3      0.000      0.000
REMARK  3 active torsions:
REMARK  status: ('A' for Active; 'I' for Inactive)
REMARK    1  A    between atoms: C_6  and  N_1 
REMARK    2  A    between atoms: C_5  and  C_6 
REMARK       I    between atoms: N_10  and  C_5 
REMARK    3  A    between atoms: C_16  and  N_10 
ROOT
ATOM      1  C   UNL d   1      46.160 -17.440  44.184  0.00  0.00     0.297 C 
ATOM      2  N   UNL d   1      46.423 -16.750  44.542  0.00  0.00    -0.207 NA
ATOM      3  O   UNL d   1      45.398 -17.465  43.859  0.00  0.00    -0.264 OA
ENDROOT
BRANCH   1   4
ATOM      4  C   UNL d   1      46.647 -18.102  44.148  0.00  0.00     0.148 C 
BRANCH   4   5
ATOM      5  N   UNL d   1      46.420 -18.752  43.699  0.00  0.00    -0.235 N 
ATOM      6  C   UNL d   1      46.419 -18.708  42.880  0.00  0.00     0.273 A 
ATOM      7  C   UNL d   1      46.191 -19.363  42.429  0.00  0.00     0.086 A 
ATOM      8  O   UNL d   1      46.647 -18.009  42.497  0.00  0.00    -0.266 OA
ATOM      9  C   UNL d   1      46.184 -19.339  41.603  0.00  0.00     0.012 C 
ATOM     10  S   UNL d   1      45.967 -20.054  42.815  0.00  0.00    -0.077 SA
ATOM     11  C   UNL d   1      45.966 -20.102  43.632  0.00  0.00     0.097 A 
ATOM     12  C   UNL d   1      46.192 -19.452  44.081  0.00  0.00     0.274 A 
ATOM     13  O   UNL d   1      46.192 -19.499  44.909  0.00  0.00    -0.266 OA
ENDBRANCH   4   5
ENDBRANCH   1   4
BRANCH   2  14
ATOM     14  C   UNL d   1      45.940 -16.089  44.579  0.00  0.00     0.087 A 
ATOM     15  C   UNL d   1      46.217 -15.382  44.258  0.00  0.00     0.045 A 
ATOM     16  C   UNL d   1      45.753 -14.708  44.284  0.00  0.00     0.121 A 
ATOM     17  O   UNL d   1      45.874 -13.938  44.017  0.00  0.00    -0.299 OA
ATOM     18  C   UNL d   1      45.004 -14.738  44.632  0.00  0.00     0.119 A 
ATOM     19  C   UNL d   1      45.201 -13.496  44.201  0.00  0.00     0.304 A 
ATOM     20  O   UNL d   1      44.677 -13.989  44.575  0.00  0.00    -0.300 OA
ATOM     21  C   UNL d   1      44.723 -15.444  44.955  0.00  0.00     0.028 A 
ATOM     22  C   UNL d   1      45.190 -16.127  44.931  0.00  0.00     0.021 A 
ENDBRANCH   2  14
TORSDOF 3
ENDMDL
