MODEL 1
REMARK VINA RESULT:      -0.9      0.000      0.000
REMARK  5 active torsions:
REMARK  status: ('A' for Active; 'I' for Inactive)
REMARK    1  A    between atoms: C_20  and  N_1 
REMARK       I    between atoms: C_6  and  N_7 
REMARK    2  A    between atoms: C_10  and  C_6 
REMARK    3  A    between atoms: N_7  and  C_8 
REMARK    4  A    between atoms: O_22  and  C_13 
REMARK    5  A    between atoms: O_23  and  C_16 
ROOT
ATOM      1  N   UNL d   1      32.717  22.051 -21.105  0.00  0.00    -0.273 N 
ATOM      2  C   UNL d   1      33.004  22.739 -21.814  0.00  0.00     0.265 A 
ATOM      3  C   UNL d   1      32.665  21.312 -21.583  0.00  0.00     0.067 A 
ATOM      4  C   UNL d   1      32.848  21.453 -22.331  0.00  0.00     0.022 A 
ATOM      5  C   UNL d   1      33.051  22.222 -22.556  0.00  0.00     0.058 A 
ATOM      6  C   UNL d   1      32.642  20.103 -22.669  0.00  0.00     0.085 A 
ATOM      7  C   UNL d   1      32.837  20.853 -22.872  0.00  0.00     0.019 A 
ATOM      8  C   UNL d   1      32.454  20.515 -21.351  0.00  0.00     0.019 A 
ATOM      9  O   UNL d   1      33.134  23.509 -21.682  0.00  0.00    -0.267 OA
ATOM     10  C   UNL d   1      32.448  19.946 -21.883  0.00  0.00     0.021 A 
ATOM     11  C   UNL d   1      33.241  22.369 -23.327  0.00  0.00     0.005 A 
ATOM     12  C   UNL d   1      33.032  21.000 -23.671  0.00  0.00     0.002 A 
ATOM     13  C   UNL d   1      33.233  21.759 -23.891  0.00  0.00     0.000 A 
ENDROOT
BRANCH   6  14
ATOM     14  N   UNL d   1      32.629  19.476 -23.225  0.00  0.00    -0.208 NA
ATOM     15  C   UNL d   1      32.627  18.711 -22.943  0.00  0.00     0.279 C 
ATOM     16  O   UNL d   1      32.638  18.551 -22.157  0.00  0.00    -0.265 OA
BRANCH  15  17
ATOM     17  C   UNL d   1      32.615  18.111 -23.463  0.00  0.00     0.060 A 
ATOM     18  C   UNL d   1      31.992  17.658 -23.439  0.00  0.00     0.031 A 
ATOM     19  C   UNL d   1      31.952  16.978 -24.012  0.00  0.00     0.116 A 
ATOM     20  C   UNL d   1      32.581  16.859 -24.545  0.00  0.00     0.116 A 
ATOM     21  C   UNL d   1      33.222  17.362 -24.538  0.00  0.00     0.026 A 
ATOM     22  C   UNL d   1      33.240  17.996 -23.991  0.00  0.00     0.007 A 
BRANCH  19  23
ATOM     23  O   UNL d   1      31.337  16.483 -24.029  0.00  0.00    -0.326 OA
ATOM     24  C   UNL d   1      30.680  16.639 -23.566  0.00  0.00     0.181 C 
ENDBRANCH  19  23
BRANCH  20  25
ATOM     25  O   UNL d   1      32.560  16.226 -25.089  0.00  0.00    -0.326 OA
ATOM     26  C   UNL d   1      33.074  15.585 -24.993  0.00  0.00     0.181 C 
ENDBRANCH  20  25
ENDBRANCH  15  17
ENDBRANCH   6  14
BRANCH   1  27
ATOM     27  C   UNL d   1      32.480  21.803 -20.203  0.00  0.00     0.083 C 
ATOM     28  C   UNL d   1      32.884  22.119 -19.580  0.00  0.00     0.021 C 
ENDBRANCH   1  27
TORSDOF 5
ENDMDL
