MODEL 1
REMARK VINA RESULT:      -8.1      0.000      0.000
REMARK  4 active torsions:
REMARK  status: ('A' for Active; 'I' for Inactive)
REMARK    1  A    between atoms: C_9  and  N_2 
REMARK    2  A    between atoms: C_6  and  C_3 
REMARK    3  A    between atoms: C_8  and  C_4 
REMARK    4  A    between atoms: O_18  and  C_15 
ROOT
ATOM      1  N   UNL d   1     -47.201  12.731  22.681  0.00  0.00    -0.165 NA
ATOM      2  N   UNL d   1     -48.006  12.997  22.769  0.00  0.00    -0.230 N 
ATOM      3  C   UNL d   1     -46.712  13.391  22.648  0.00  0.00     0.109 A 
ATOM      4  C   UNL d   1     -47.964  13.838  22.786  0.00  0.00     0.084 A 
ATOM      5  C   UNL d   1     -47.176  14.073  22.712  0.00  0.00     0.041 A 
ENDROOT
BRANCH   4   6
ATOM      6  C   UNL d   1     -48.600  14.353  22.863  0.00  0.00     0.018 A 
ATOM      7  C   UNL d   1     -48.893  14.696  22.173  0.00  0.00     0.004 A 
ATOM      8  C   UNL d   1     -49.524  15.210  22.223  0.00  0.00     0.024 A 
ATOM      9  C   UNL d   1     -49.862  15.384  22.949  0.00  0.00     0.094 A 
ATOM     10  C   UNL d   1     -49.569  15.041  23.639  0.00  0.00     0.024 A 
ATOM     11  C   UNL d   1     -48.932  14.522  23.590  0.00  0.00     0.004 A 
BRANCH   9  12
ATOM     12  O   UNL d   1     -50.524  15.919  23.031  0.00  0.00    -0.328 OA
ATOM     13  C   UNL d   1     -51.064  15.817  23.692  0.00  0.00     0.181 C 
ENDBRANCH   9  12
ENDBRANCH   4   6
BRANCH   2  14
ATOM     14  C   UNL d   1     -48.727  12.612  22.833  0.00  0.00     0.083 A 
ATOM     15  C   UNL d   1     -49.054  12.396  23.572  0.00  0.00     0.019 A 
ATOM     16  C   UNL d   1     -49.787  12.006  23.606  0.00  0.00     0.002 A 
ATOM     17  C   UNL d   1     -50.196  11.830  22.931  0.00  0.00     0.000 A 
ATOM     18  C   UNL d   1     -49.872  12.044  22.193  0.00  0.00     0.002 A 
ATOM     19  C   UNL d   1     -49.137  12.436  22.144  0.00  0.00     0.019 A 
ENDBRANCH   2  14
BRANCH   3  20
ATOM     20  C   UNL d   1     -45.971  13.025  22.564  0.00  0.00     0.049 A 
ATOM     21  S   UNL d   1     -45.536  12.345  22.707  0.00  0.00    -0.085 SA
ATOM     22  C   UNL d   1     -44.778  12.463  22.418  0.00  0.00     0.035 A 
ATOM     23  C   UNL d   1     -44.736  13.201  22.100  0.00  0.00     0.007 A 
ATOM     24  C   UNL d   1     -45.462  13.575  22.175  0.00  0.00     0.009 A 
ENDBRANCH   3  20
TORSDOF 4
ENDMDL
MODEL 2
REMARK VINA RESULT:      -8.0      1.951      3.915
REMARK  4 active torsions:
REMARK  status: ('A' for Active; 'I' for Inactive)
REMARK    1  A    between atoms: C_9  and  N_2 
REMARK    2  A    between atoms: C_6  and  C_3 
REMARK    3  A    between atoms: C_8  and  C_4 
REMARK    4  A    between atoms: O_18  and  C_15 
ROOT
ATOM      1  N   UNL d   1     -49.279  13.682  23.149  0.00  0.00    -0.165 NA
ATOM      2  N   UNL d   1     -48.556  13.249  23.020  0.00  0.00    -0.230 N 
ATOM      3  C   UNL d   1     -49.121  14.483  23.053  0.00  0.00     0.109 A 
ATOM      4  C   UNL d   1     -47.973  13.831  22.844  0.00  0.00     0.084 A 
ATOM      5  C   UNL d   1     -48.321  14.579  22.865  0.00  0.00     0.041 A 
ENDROOT
BRANCH   4   6
ATOM      6  C   UNL d   1     -47.182  13.688  22.677  0.00  0.00     0.018 A 
ATOM      7  C   UNL d   1     -46.639  13.813  23.285  0.00  0.00     0.004 A 
ATOM      8  C   UNL d   1     -45.847  13.677  23.144  0.00  0.00     0.024 A 
ATOM      9  C   UNL d   1     -45.594  13.421  22.408  0.00  0.00     0.094 A 
ATOM     10  C   UNL d   1     -46.137  13.296  21.800  0.00  0.00     0.024 A 
ATOM     11  C   UNL d   1     -46.936  13.432  21.941  0.00  0.00     0.004 A 
BRANCH   9  12
ATOM     12  O   UNL d   1     -44.771  13.271  22.232  0.00  0.00    -0.328 OA
ATOM     13  C   UNL d   1     -44.565  12.892  21.489  0.00  0.00     0.181 C 
ENDBRANCH   9  12
ENDBRANCH   4   6
BRANCH   2  14
ATOM     14  C   UNL d   1     -48.362  12.453  23.036  0.00  0.00     0.083 A 
ATOM     15  C   UNL d   1     -47.984  12.100  23.694  0.00  0.00     0.019 A 
ATOM     16  C   UNL d   1     -47.798  11.289  23.683  0.00  0.00     0.002 A 
ATOM     17  C   UNL d   1     -47.978  10.830  23.042  0.00  0.00     0.000 A 
ATOM     18  C   UNL d   1     -48.355  11.180  22.386  0.00  0.00     0.002 A 
ATOM     19  C   UNL d   1     -48.547  11.992  22.383  0.00  0.00     0.019 A 
ENDBRANCH   2  14
BRANCH   3  20
ATOM     20  C   UNL d   1     -49.874  14.803  23.198  0.00  0.00     0.049 A 
ATOM     21  S   UNL d   1     -50.677  14.645  23.232  0.00  0.00    -0.085 SA
ATOM     22  C   UNL d   1     -51.064  15.338  23.435  0.00  0.00     0.035 A 
ATOM     23  C   UNL d   1     -50.517  15.921  23.527  0.00  0.00     0.007 A 
ATOM     24  C   UNL d   1     -49.767  15.619  23.386  0.00  0.00     0.009 A 
ENDBRANCH   3  20
TORSDOF 4
ENDMDL
MODEL 3
REMARK VINA RESULT:      -6.2      1.821      3.074
REMARK  4 active torsions:
REMARK  status: ('A' for Active; 'I' for Inactive)
REMARK    1  A    between atoms: C_9  and  N_2 
REMARK    2  A    between atoms: C_6  and  C_3 
REMARK    3  A    between atoms: C_8  and  C_4 
REMARK    4  A    between atoms: O_18  and  C_15 
ROOT
ATOM      1  N   UNL d   1     -45.749  11.861  23.166  0.00  0.00    -0.165 NA
ATOM      2  N   UNL d   1     -46.485  12.266  23.026  0.00  0.00    -0.230 N 
ATOM      3  C   UNL d   1     -45.910  11.064  23.284  0.00  0.00     0.109 A 
ATOM      4  C   UNL d   1     -47.080  11.672  23.068  0.00  0.00     0.084 A 
ATOM      5  C   UNL d   1     -46.727  10.943  23.224  0.00  0.00     0.041 A 
ENDROOT
BRANCH   4   6
ATOM      6  C   UNL d   1     -47.888  11.788  22.970  0.00  0.00     0.018 A 
ATOM      7  C   UNL d   1     -48.340  11.892  23.652  0.00  0.00     0.004 A 
ATOM      8  C   UNL d   1     -49.144  12.010  23.581  0.00  0.00     0.024 A 
ATOM      9  C   UNL d   1     -49.498  12.024  22.842  0.00  0.00     0.094 A 
ATOM     10  C   UNL d   1     -49.046  11.919  22.160  0.00  0.00     0.024 A 
ATOM     11  C   UNL d   1     -48.235  11.801  22.231  0.00  0.00     0.004 A 
BRANCH   9  12
ATOM     12  O   UNL d   1     -50.338  12.145  22.739  0.00  0.00    -0.328 OA
ATOM     13  C   UNL d   1     -50.609  12.704  22.145  0.00  0.00     0.181 C 
ENDBRANCH   9  12
ENDBRANCH   4   6
BRANCH   2  14
ATOM     14  C   UNL d   1     -46.683  13.048  22.876  0.00  0.00     0.083 A 
ATOM     15  C   UNL d   1     -46.904  13.577  23.486  0.00  0.00     0.019 A 
ATOM     16  C   UNL d   1     -47.100  14.364  23.304  0.00  0.00     0.002 A 
ATOM     17  C   UNL d   1     -47.081  14.632  22.541  0.00  0.00     0.000 A 
ATOM     18  C   UNL d   1     -46.860  14.107  21.932  0.00  0.00     0.002 A 
ATOM     19  C   UNL d   1     -46.661  13.313  22.100  0.00  0.00     0.019 A 
ENDBRANCH   2  14
BRANCH   3  20
ATOM     20  C   UNL d   1     -45.143  10.772  23.408  0.00  0.00     0.049 A 
ATOM     21  S   UNL d   1     -44.345  10.962  23.431  0.00  0.00    -0.085 SA
ATOM     22  C   UNL d   1     -43.927  10.281  23.610  0.00  0.00     0.035 A 
ATOM     23  C   UNL d   1     -44.448   9.674  23.696  0.00  0.00     0.007 A 
ATOM     24  C   UNL d   1     -45.212   9.948  23.576  0.00  0.00     0.009 A 
ENDBRANCH   3  20
TORSDOF 4
ENDMDL
MODEL 4
REMARK VINA RESULT:      -6.1      1.235      2.501
REMARK  4 active torsions:
REMARK  status: ('A' for Active; 'I' for Inactive)
REMARK    1  A    between atoms: C_9  and  N_2 
REMARK    2  A    between atoms: C_6  and  C_3 
REMARK    3  A    between atoms: C_8  and  C_4 
REMARK    4  A    between atoms: O_18  and  C_15 
ROOT
ATOM      1  N   UNL d   1     -46.658  13.788  22.232  0.00  0.00    -0.165 NA
ATOM      2  N   UNL d   1     -47.489  13.696  22.395  0.00  0.00    -0.230 N 
ATOM      3  C   UNL d   1     -46.297  13.053  22.306  0.00  0.00     0.109 A 
ATOM      4  C   UNL d   1     -47.596  12.878  22.567  0.00  0.00     0.084 A 
ATOM      5  C   UNL d   1     -46.869  12.492  22.512  0.00  0.00     0.041 A 
ENDROOT
BRANCH   4   6
ATOM      6  C   UNL d   1     -48.306  12.513  22.760  0.00  0.00     0.018 A 
ATOM      7  C   UNL d   1     -48.735  12.173  22.143  0.00  0.00     0.004 A 
ATOM      8  C   UNL d   1     -49.444  11.805  22.309  0.00  0.00     0.024 A 
ATOM      9  C   UNL d   1     -49.726  11.773  23.077  0.00  0.00     0.094 A 
ATOM     10  C   UNL d   1     -49.297  12.113  23.694  0.00  0.00     0.024 A 
ATOM     11  C   UNL d   1     -48.582  12.484  23.528  0.00  0.00     0.004 A 
BRANCH   9  12
ATOM     12  O   UNL d   1     -50.465  11.394  23.279  0.00  0.00    -0.328 OA
ATOM     13  C   UNL d   1     -51.064  11.845  23.698  0.00  0.00     0.181 C 
ENDBRANCH   9  12
ENDBRANCH   4   6
BRANCH   2  14
ATOM     14  C   UNL d   1     -48.125  14.214  22.410  0.00  0.00     0.083 A 
ATOM     15  C   UNL d   1     -48.613  14.339  21.742  0.00  0.00     0.019 A 
ATOM     16  C   UNL d   1     -49.251  14.871  21.786  0.00  0.00     0.002 A 
ATOM     17  C   UNL d   1     -49.411  15.273  22.469  0.00  0.00     0.000 A 
ATOM     18  C   UNL d   1     -48.926  15.150  23.135  0.00  0.00     0.002 A 
ATOM     19  C   UNL d   1     -48.282  14.619  23.106  0.00  0.00     0.019 A 
ENDBRANCH   2  14
BRANCH   3  20
ATOM     20  C   UNL d   1     -45.510  13.253  22.130  0.00  0.00     0.049 A 
ATOM     21  S   UNL d   1     -44.948  13.850  22.144  0.00  0.00    -0.085 SA
ATOM     22  C   UNL d   1     -44.249  13.548  21.841  0.00  0.00     0.035 A 
ATOM     23  C   UNL d   1     -44.367  12.778  21.641  0.00  0.00     0.007 A 
ATOM     24  C   UNL d   1     -45.142  12.565  21.809  0.00  0.00     0.009 A 
ENDBRANCH   3  20
TORSDOF 4
ENDMDL
