MODEL 1
REMARK VINA RESULT:      14.3      0.000      0.000
REMARK  3 active torsions:
REMARK  status: ('A' for Active; 'I' for Inactive)
REMARK    1  A    between atoms: C_3  and  C_1 
REMARK    2  A    between atoms: C_5  and  C_3 
REMARK    3  A    between atoms: C_11  and  C_5 
ROOT
ATOM      1  C   UNL d   1      45.479 -15.312  44.659  0.00  0.00     0.109 C 
ATOM      2  C   UNL d   1      44.690 -15.144  44.806  0.00  0.00     0.105 C 
ATOM      3  N   UNL d   1      43.898 -14.969  44.955  0.00  0.00    -0.191 NA
ENDROOT
BRANCH   1   4
ATOM      4  C   UNL d   1      45.699 -16.077  44.437  0.00  0.00     0.192 A 
ATOM      5  N   UNL d   1      45.880 -16.712  44.952  0.00  0.00    -0.220 NA
ATOM      6  C   UNL d   1      46.071 -17.375  44.490  0.00  0.00     0.106 A 
ATOM      7  C   UNL d   1      46.291 -18.143  44.696  0.00  0.00     0.021 A 
ATOM      8  C   UNL d   1      46.012 -17.160  43.690  0.00  0.00     0.119 A 
ATOM      9  C   UNL d   1      46.451 -18.697  44.107  0.00  0.00     0.002 A 
ATOM     10  C   UNL d   1      46.392 -18.482  43.306  0.00  0.00     0.002 A 
ATOM     11  C   UNL d   1      46.172 -17.714  43.100  0.00  0.00     0.026 A 
ATOM     12  O   UNL d   1      45.783 -16.362  43.652  0.00  0.00    -0.287 OA
ENDBRANCH   1   4
BRANCH   1  13
ATOM     13  C   UNL d   1      46.051 -14.722  44.732  0.00  0.00     0.014 C 
BRANCH  13  14
ATOM     14  C   UNL d   1      45.879 -13.947  44.501  0.00  0.00     0.004 A 
ATOM     15  C   UNL d   1      46.172 -13.318  44.946  0.00  0.00     0.021 A 
ATOM     16  C   UNL d   1      46.000 -12.542  44.715  0.00  0.00     0.099 A 
ATOM     17  N   UNL d   1      45.538 -12.404  44.046  0.00  0.00    -0.242 NA
ATOM     18  C   UNL d   1      45.242 -13.044  43.597  0.00  0.00     0.099 A 
ATOM     19  C   UNL d   1      45.419 -13.816  43.834  0.00  0.00     0.021 A 
ENDBRANCH  13  14
ENDBRANCH   1  13
TORSDOF 3
ENDMDL
