MODEL 1
REMARK VINA RESULT:       9.0      0.000      0.000
REMARK  4 active torsions:
REMARK  status: ('A' for Active; 'I' for Inactive)
REMARK    1  A    between atoms: C_7  and  N_2 
REMARK    2  A    between atoms: C_10  and  C_7 
REMARK    3  A    between atoms: O_8  and  C_10 
REMARK    4  A    between atoms: C_9  and  O_8 
ROOT
ATOM      1  C   UNL d   1      46.187 -17.789  43.188  0.00  0.00     0.296 A 
ATOM      2  N   UNL d   1      46.135 -17.920  43.999  0.00  0.00    -0.266 N 
ATOM      3  S   UNL d   1      46.382 -18.520  42.826  0.00  0.00    -0.025 SA
ATOM      4  C   UNL d   1      46.294 -18.721  44.143  0.00  0.00     0.074 A 
ATOM      5  C   UNL d   1      46.445 -19.089  43.424  0.00  0.00     0.050 A 
ATOM      6  O   UNL d   1      46.071 -17.076  42.799  0.00  0.00    -0.259 OA
ATOM      7  C   UNL d   1      46.319 -19.155  44.846  0.00  0.00     0.018 A 
ATOM      8  C   UNL d   1      46.624 -19.899  43.393  0.00  0.00     0.008 A 
ATOM      9  C   UNL d   1      46.496 -19.963  44.820  0.00  0.00     0.002 A 
ATOM     10  C   UNL d   1      46.647 -20.330  44.101  0.00  0.00     0.001 A 
ENDROOT
BRANCH   2  11
ATOM     11  C   UNL d   1      45.956 -17.353  44.570  0.00  0.00     0.110 C 
BRANCH  11  12
ATOM     12  C   UNL d   1      45.903 -16.557  44.365  0.00  0.00     0.142 C 
BRANCH  12  13
ATOM     13  O   UNL d   1      45.904 -15.966  44.945  0.00  0.00    -0.304 OA
BRANCH  13  14
ATOM     14  C   UNL d   1      45.626 -15.210  44.770  0.00  0.00     0.100 A 
ATOM     15  C   UNL d   1      46.151 -14.629  44.508  0.00  0.00     0.025 A 
ATOM     16  C   UNL d   1      45.873 -13.877  44.334  0.00  0.00     0.002 A 
ATOM     17  C   UNL d   1      45.071 -13.706  44.422  0.00  0.00     0.000 A 
ATOM     18  C   UNL d   1      44.547 -14.291  44.685  0.00  0.00     0.002 A 
ATOM     19  C   UNL d   1      44.834 -15.042  44.857  0.00  0.00     0.025 A 
ENDBRANCH  13  14
ENDBRANCH  12  13
ENDBRANCH  11  12
ENDBRANCH   2  11
TORSDOF 4
ENDMDL
MODEL 2
REMARK VINA RESULT:      11.8      1.465      4.534
REMARK  4 active torsions:
REMARK  status: ('A' for Active; 'I' for Inactive)
REMARK    1  A    between atoms: C_7  and  N_2 
REMARK    2  A    between atoms: C_10  and  C_7 
REMARK    3  A    between atoms: O_8  and  C_10 
REMARK    4  A    between atoms: C_9  and  O_8 
ROOT
ATOM      1  C   UNL d   1      44.677 -15.479  44.844  0.00  0.00     0.296 A 
ATOM      2  N   UNL d   1      45.500 -15.455  44.842  0.00  0.00    -0.266 N 
ATOM      3  S   UNL d   1      44.401 -14.698  44.711  0.00  0.00    -0.025 SA
ATOM      4  C   UNL d   1      45.736 -14.671  44.711  0.00  0.00     0.074 A 
ATOM      5  C   UNL d   1      45.063 -14.208  44.630  0.00  0.00     0.050 A 
ATOM      6  O   UNL d   1      44.207 -16.143  44.955  0.00  0.00    -0.259 OA
ATOM      7  C   UNL d   1      46.487 -14.329  44.655  0.00  0.00     0.018 A 
ATOM      8  C   UNL d   1      45.126 -13.392  44.493  0.00  0.00     0.008 A 
ATOM      9  C   UNL d   1      46.554 -13.516  44.518  0.00  0.00     0.002 A 
ATOM     10  C   UNL d   1      45.881 -13.053  44.438  0.00  0.00     0.001 A 
ENDROOT
BRANCH   2  11
ATOM     11  C   UNL d   1      46.004 -16.100  44.953  0.00  0.00     0.110 C 
BRANCH  11  12
ATOM     12  C   UNL d   1      45.953 -16.757  44.460  0.00  0.00     0.142 C 
BRANCH  12  13
ATOM     13  O   UNL d   1      46.443 -17.414  44.574  0.00  0.00    -0.304 OA
BRANCH  13  14
ATOM     14  C   UNL d   1      46.407 -18.056  44.057  0.00  0.00     0.100 A 
ATOM     15  C   UNL d   1      46.445 -17.930  43.242  0.00  0.00     0.025 A 
ATOM     16  C   UNL d   1      46.409 -18.569  42.728  0.00  0.00     0.002 A 
ATOM     17  C   UNL d   1      46.334 -19.333  43.030  0.00  0.00     0.000 A 
ATOM     18  C   UNL d   1      46.295 -19.456  43.848  0.00  0.00     0.002 A 
ATOM     19  C   UNL d   1      46.332 -18.809  44.356  0.00  0.00     0.025 A 
ENDBRANCH  13  14
ENDBRANCH  12  13
ENDBRANCH  11  12
ENDBRANCH   2  11
TORSDOF 4
ENDMDL
