MODEL 1
REMARK VINA RESULT:      -3.9      0.000      0.000
REMARK  2 active torsions:
REMARK  status: ('A' for Active; 'I' for Inactive)
REMARK    1  A    between atoms: C_2  and  N_1 
REMARK    2  A    between atoms: N_8  and  C_3 
REMARK       I    between atoms: C_12  and  N_8 
ROOT
ATOM      1  N   UNL d   1     -41.501-122.563 -52.599  0.00  0.00    -0.189 N 
ATOM      2  C   UNL d   1     -41.321-122.001 -52.018  0.00  0.00     0.171 A 
ATOM      3  N   UNL d   1     -41.508-123.312 -52.247  0.00  0.00    -0.162 NA
ATOM      4  C   UNL d   1     -41.217-122.408 -51.305  0.00  0.00     0.060 A 
ATOM      5  C   UNL d   1     -41.332-123.211 -51.444  0.00  0.00     0.105 A 
ATOM      6  C   UNL d   1     -41.280-123.814 -50.879  0.00  0.00     0.023 C 
ENDROOT
BRANCH   1   7
ATOM      7  C   UNL d   1     -41.651-122.441 -53.389  0.00  0.00     0.197 A 
ATOM      8  N   UNL d   1     -42.412-122.238 -53.635  0.00  0.00    -0.221 NA
ATOM      9  C   UNL d   1     -42.391-122.151 -54.467  0.00  0.00     0.090 A 
ATOM     10  C   UNL d   1     -42.955-121.960 -55.018  0.00  0.00     0.020 A 
ATOM     11  C   UNL d   1     -41.612-122.304 -54.701  0.00  0.00     0.050 A 
ATOM     12  C   UNL d   1     -42.765-121.915 -55.822  0.00  0.00     0.002 A 
ATOM     13  C   UNL d   1     -41.998-122.066 -56.050  0.00  0.00     0.001 A 
ATOM     14  C   UNL d   1     -41.417-122.261 -55.496  0.00  0.00     0.008 A 
ATOM     15  S   UNL d   1     -41.168-122.481 -54.033  0.00  0.00    -0.047 SA
ENDBRANCH   1   7
BRANCH   2  16
ATOM     16  N   UNL d   1     -41.255-121.183 -52.125  0.00  0.00    -0.189 NA
ATOM     17  C   UNL d   1     -41.190-120.707 -51.473  0.00  0.00     0.281 C 
ATOM     18  O   UNL d   1     -41.124-119.888 -51.576  0.00  0.00    -0.265 OA
ATOM     19  C   UNL d   1     -41.187-121.011 -50.712  0.00  0.00     0.068 C 
ENDBRANCH   2  16
TORSDOF 2
ENDMDL
MODEL 2
REMARK VINA RESULT:      -3.3      2.465      3.357
REMARK  2 active torsions:
REMARK  status: ('A' for Active; 'I' for Inactive)
REMARK    1  A    between atoms: C_2  and  N_1 
REMARK    2  A    between atoms: N_8  and  C_3 
REMARK       I    between atoms: C_12  and  N_8 
ROOT
ATOM      1  N   UNL d   1     -41.774-123.196 -49.858  0.00  0.00    -0.189 N 
ATOM      2  C   UNL d   1     -42.501-123.275 -49.470  0.00  0.00     0.171 A 
ATOM      3  N   UNL d   1     -41.173-123.174 -49.288  0.00  0.00    -0.162 NA
ATOM      4  C   UNL d   1     -42.346-123.302 -48.657  0.00  0.00     0.060 A 
ATOM      5  C   UNL d   1     -41.533-123.240 -48.545  0.00  0.00     0.105 A 
ATOM      6  C   UNL d   1     -41.142-123.243 -47.815  0.00  0.00     0.023 C 
ENDROOT
BRANCH   1   7
ATOM      7  C   UNL d   1     -41.632-123.146 -50.657  0.00  0.00     0.197 A 
ATOM      8  N   UNL d   1     -41.723-122.423 -51.045  0.00  0.00    -0.221 NA
ATOM      9  C   UNL d   1     -41.540-122.546 -51.852  0.00  0.00     0.090 A 
ATOM     10  C   UNL d   1     -41.528-122.057 -52.498  0.00  0.00     0.020 A 
ATOM     11  C   UNL d   1     -41.341-123.347 -51.928  0.00  0.00     0.050 A 
ATOM     12  C   UNL d   1     -41.318-122.345 -53.245  0.00  0.00     0.002 A 
ATOM     13  C   UNL d   1     -41.123-123.132 -53.317  0.00  0.00     0.001 A 
ATOM     14  C   UNL d   1     -41.132-123.639 -52.665  0.00  0.00     0.008 A 
ATOM     15  S   UNL d   1     -41.401-123.703 -51.191  0.00  0.00    -0.047 SA
ENDBRANCH   1   7
BRANCH   2  16
ATOM     16  N   UNL d   1     -43.248-123.320 -49.824  0.00  0.00    -0.189 NA
ATOM     17  C   UNL d   1     -43.874-123.587 -49.384  0.00  0.00     0.281 C 
ATOM     18  O   UNL d   1     -44.623-123.633 -49.735  0.00  0.00    -0.265 OA
ATOM     19  C   UNL d   1     -43.790-123.813 -48.602  0.00  0.00     0.068 C 
ENDBRANCH   2  16
TORSDOF 2
ENDMDL
MODEL 3
REMARK VINA RESULT:      -2.9      1.823      2.362
REMARK  2 active torsions:
REMARK  status: ('A' for Active; 'I' for Inactive)
REMARK    1  A    between atoms: C_2  and  N_1 
REMARK    2  A    between atoms: N_8  and  C_3 
REMARK       I    between atoms: C_12  and  N_8 
ROOT
ATOM      1  N   UNL d   1     -41.661-123.243 -50.859  0.00  0.00    -0.189 N 
ATOM      2  C   UNL d   1     -42.288-122.916 -50.428  0.00  0.00     0.171 A 
ATOM      3  N   UNL d   1     -41.146-123.618 -50.330  0.00  0.00    -0.162 NA
ATOM      4  C   UNL d   1     -42.156-123.090 -49.630  0.00  0.00     0.060 A 
ATOM      5  C   UNL d   1     -41.457-123.520 -49.569  0.00  0.00     0.105 A 
ATOM      6  C   UNL d   1     -41.123-123.805 -48.867  0.00  0.00     0.023 C 
ENDROOT
BRANCH   1   7
ATOM      7  C   UNL d   1     -41.537-123.223 -51.662  0.00  0.00     0.197 A 
ATOM      8  N   UNL d   1     -41.464-122.497 -52.048  0.00  0.00    -0.221 NA
ATOM      9  C   UNL d   1     -41.342-122.656 -52.861  0.00  0.00     0.090 A 
ATOM     10  C   UNL d   1     -41.234-122.179 -53.508  0.00  0.00     0.020 A 
ATOM     11  C   UNL d   1     -41.345-123.480 -52.943  0.00  0.00     0.050 A 
ATOM     12  C   UNL d   1     -41.123-122.504 -54.260  0.00  0.00     0.002 A 
ATOM     13  C   UNL d   1     -41.126-123.315 -54.339  0.00  0.00     0.001 A 
ATOM     14  C   UNL d   1     -41.236-123.808 -53.686  0.00  0.00     0.008 A 
ATOM     15  S   UNL d   1     -41.465-123.816 -52.203  0.00  0.00    -0.047 SA
ENDBRANCH   1   7
BRANCH   2  16
ATOM     16  N   UNL d   1     -42.929-122.491 -50.734  0.00  0.00    -0.189 NA
ATOM     17  C   UNL d   1     -43.545-122.303 -50.241  0.00  0.00     0.281 C 
ATOM     18  O   UNL d   1     -44.188-121.879 -50.544  0.00  0.00    -0.265 OA
ATOM     19  C   UNL d   1     -43.551-122.520 -49.452  0.00  0.00     0.068 C 
ENDBRANCH   2  16
TORSDOF 2
ENDMDL
MODEL 4
REMARK VINA RESULT:      -2.1      1.260      3.613
REMARK  2 active torsions:
REMARK  status: ('A' for Active; 'I' for Inactive)
REMARK    1  A    between atoms: C_2  and  N_1 
REMARK    2  A    between atoms: N_8  and  C_3 
REMARK       I    between atoms: C_12  and  N_8 
ROOT
ATOM      1  N   UNL d   1     -41.493-122.926 -53.445  0.00  0.00    -0.189 N 
ATOM      2  C   UNL d   1     -41.763-122.328 -53.951  0.00  0.00     0.171 A 
ATOM      3  N   UNL d   1     -41.220-123.557 -53.907  0.00  0.00    -0.162 NA
ATOM      4  C   UNL d   1     -41.655-122.594 -54.727  0.00  0.00     0.060 A 
ATOM      5  C   UNL d   1     -41.322-123.346 -54.701  0.00  0.00     0.105 A 
ATOM      6  C   UNL d   1     -41.124-123.812 -55.356  0.00  0.00     0.023 C 
ENDROOT
BRANCH   1   7
ATOM      7  C   UNL d   1     -41.482-122.931 -52.632  0.00  0.00     0.197 A 
ATOM      8  N   UNL d   1     -41.840-123.550 -52.221  0.00  0.00    -0.221 NA
ATOM      9  C   UNL d   1     -41.737-123.402 -51.404  0.00  0.00     0.090 A 
ATOM     10  C   UNL d   1     -41.961-123.802 -50.735  0.00  0.00     0.020 A 
ATOM     11  C   UNL d   1     -41.316-122.691 -51.345  0.00  0.00     0.050 A 
ATOM     12  C   UNL d   1     -41.776-123.511 -49.984  0.00  0.00     0.002 A 
ATOM     13  C   UNL d   1     -41.361-122.812 -49.928  0.00  0.00     0.001 A 
ATOM     14  C   UNL d   1     -41.128-122.397 -50.603  0.00  0.00     0.008 A 
ATOM     15  S   UNL d   1     -41.165-122.412 -52.102  0.00  0.00    -0.047 SA
ENDBRANCH   1   7
BRANCH   2  16
ATOM     16  N   UNL d   1     -42.083-121.598 -53.727  0.00  0.00    -0.189 NA
ATOM     17  C   UNL d   1     -42.459-121.147 -54.286  0.00  0.00     0.281 C 
ATOM     18  O   UNL d   1     -42.780-120.417 -54.065  0.00  0.00    -0.265 OA
ATOM     19  C   UNL d   1     -42.531-121.392 -55.063  0.00  0.00     0.068 C 
ENDBRANCH   2  16
TORSDOF 2
ENDMDL
