MODEL 1
REMARK VINA RESULT:       2.1      0.000      0.000
REMARK  3 active torsions:
REMARK  status: ('A' for Active; 'I' for Inactive)
REMARK    1  A    between atoms: C_10  and  C_4 
REMARK    2  A    between atoms: C_11  and  C_6 
REMARK    3  A    between atoms: C_12  and  C_9 
ROOT
ATOM      1  N   UNL d   1     -41.657-122.585 -52.275  0.00  0.00    -0.212 N 
ATOM      2  C   UNL d   1     -41.800-123.380 -52.068  0.00  0.00     0.166 A 
ATOM      3  N   UNL d   1     -41.646-122.530 -53.098  0.00  0.00    -0.158 NA
ATOM      4  C   UNL d   1     -41.783-123.296 -53.401  0.00  0.00     0.169 A 
ATOM      5  C   UNL d   1     -41.875-123.802 -52.767  0.00  0.00     0.066 A 
ATOM      6  C   UNL d   1     -41.556-122.019 -51.680  0.00  0.00     0.086 A 
ATOM      7  N   UNL d   1     -41.841-123.603 -51.268  0.00  0.00    -0.227 NA
ATOM      8  C   UNL d   1     -41.596-122.232 -50.878  0.00  0.00     0.038 A 
ATOM      9  C   UNL d   1     -41.738-123.026 -50.671  0.00  0.00     0.085 A 
ENDROOT
BRANCH   6  10
ATOM     10  C   UNL d   1     -41.410-121.203 -51.710  0.00  0.00     0.018 A 
ATOM     11  C   UNL d   1     -41.275-120.794 -51.009  0.00  0.00     0.002 A 
ATOM     12  C   UNL d   1     -41.138-120.035 -51.025  0.00  0.00     0.000 A 
ATOM     13  C   UNL d   1     -41.123-119.604 -51.764  0.00  0.00     0.000 A 
ATOM     14  C   UNL d   1     -41.252-119.982 -52.459  0.00  0.00     0.000 A 
ATOM     15  C   UNL d   1     -41.398-120.794 -52.429  0.00  0.00     0.002 A 
ENDBRANCH   6  10
BRANCH   9  16
ATOM     16  C   UNL d   1     -41.780-123.255 -49.891  0.00  0.00     0.018 A 
ATOM     17  C   UNL d   1     -41.136-123.595 -49.515  0.00  0.00     0.002 A 
ATOM     18  C   UNL d   1     -41.195-123.816 -48.741  0.00  0.00     0.000 A 
ATOM     19  C   UNL d   1     -41.907-123.710 -48.296  0.00  0.00     0.000 A 
ATOM     20  C   UNL d   1     -42.552-123.370 -48.672  0.00  0.00     0.000 A 
ATOM     21  C   UNL d   1     -42.496-123.139 -49.474  0.00  0.00     0.002 A 
ENDBRANCH   9  16
BRANCH   4  22
ATOM     22  C   UNL d   1     -41.818-123.496 -54.195  0.00  0.00     0.231 C 
ATOM     23  O   UNL d   1     -41.134-123.752 -54.574  0.00  0.00    -0.643 OA
ATOM     24  O   UNL d   1     -42.541-123.436 -54.592  0.00  0.00    -0.643 OA
ENDBRANCH   4  22
TORSDOF 3
ENDMDL
MODEL 2
REMARK VINA RESULT:       4.4      1.955      4.088
REMARK  3 active torsions:
REMARK  status: ('A' for Active; 'I' for Inactive)
REMARK    1  A    between atoms: C_10  and  C_4 
REMARK    2  A    between atoms: C_11  and  C_6 
REMARK    3  A    between atoms: C_12  and  C_9 
ROOT
ATOM      1  N   UNL d   1     -41.554-121.155 -51.723  0.00  0.00    -0.212 N 
ATOM      2  C   UNL d   1     -41.445-120.857 -52.493  0.00  0.00     0.166 A 
ATOM      3  N   UNL d   1     -41.472-120.532 -51.189  0.00  0.00    -0.158 NA
ATOM      4  C   UNL d   1     -41.311-119.843 -51.633  0.00  0.00     0.169 A 
ATOM      5  C   UNL d   1     -41.297-120.054 -52.422  0.00  0.00     0.066 A 
ATOM      6  C   UNL d   1     -41.715-121.960 -51.615  0.00  0.00     0.086 A 
ATOM      7  N   UNL d   1     -41.496-121.364 -53.150  0.00  0.00    -0.227 NA
ATOM      8  C   UNL d   1     -41.768-122.475 -52.266  0.00  0.00     0.038 A 
ATOM      9  C   UNL d   1     -41.658-122.177 -53.035  0.00  0.00     0.085 A 
ENDROOT
BRANCH   6  10
ATOM     10  C   UNL d   1     -41.848-122.413 -50.933  0.00  0.00     0.018 A 
ATOM     11  C   UNL d   1     -41.212-122.788 -50.570  0.00  0.00     0.002 A 
ATOM     12  C   UNL d   1     -41.326-123.212 -49.935  0.00  0.00     0.000 A 
ATOM     13  C   UNL d   1     -42.106-123.302 -49.597  0.00  0.00     0.000 A 
ATOM     14  C   UNL d   1     -42.740-122.945 -49.934  0.00  0.00     0.000 A 
ATOM     15  C   UNL d   1     -42.607-122.494 -50.612  0.00  0.00     0.002 A 
ENDBRANCH   6  10
BRANCH   9  16
ATOM     16  C   UNL d   1     -41.706-122.664 -53.685  0.00  0.00     0.018 A 
ATOM     17  C   UNL d   1     -41.223-123.323 -53.755  0.00  0.00     0.002 A 
ATOM     18  C   UNL d   1     -41.284-123.796 -54.406  0.00  0.00     0.000 A 
ATOM     19  C   UNL d   1     -41.835-123.636 -55.028  0.00  0.00     0.000 A 
ATOM     20  C   UNL d   1     -42.319-122.977 -54.958  0.00  0.00     0.000 A 
ATOM     21  C   UNL d   1     -42.260-122.484 -54.286  0.00  0.00     0.002 A 
ENDBRANCH   9  16
BRANCH   4  22
ATOM     22  C   UNL d   1     -41.190-119.094 -51.325  0.00  0.00     0.231 C 
ATOM     23  O   UNL d   1     -41.123-118.455 -51.840  0.00  0.00    -0.643 OA
ATOM     24  O   UNL d   1     -41.138-119.002 -50.504  0.00  0.00    -0.643 OA
ENDBRANCH   4  22
TORSDOF 3
ENDMDL
