MODEL 1
REMARK VINA RESULT:      83.6      0.000      0.000
REMARK  9 active torsions:
REMARK  status: ('A' for Active; 'I' for Inactive)
REMARK    1  A    between atoms: C_5  and  C_1 
REMARK    2  A    between atoms: N_4  and  C_2 
REMARK       I    between atoms: C_3  and  N_4 
REMARK    3  A    between atoms: C_10  and  C_3 
REMARK    4  A    between atoms: N_6  and  C_5 
REMARK    5  A    between atoms: C_12  and  C_5 
REMARK    6  A    between atoms: C_14  and  N_6 
REMARK    7  A    between atoms: C_8  and  C_14 
REMARK    8  A    between atoms: O_17  and  C_8 
REMARK    9  A    between atoms: C_23  and  O_17 
ROOT
ATOM      1  C   UNL d   1     -56.556 -99.442 -44.482  0.00  0.00     0.036 A 
ATOM      2  C   UNL d   1     -56.238-100.058 -44.060  0.00  0.00     0.086 A 
ATOM      3  C   UNL d   1     -56.080 -99.012 -44.991  0.00  0.00     0.010 A 
ATOM      4  C   UNL d   1     -55.441-100.259 -44.134  0.00  0.00     0.020 A 
ATOM      5  C   UNL d   1     -55.281 -99.199 -45.078  0.00  0.00     0.035 A 
ATOM      6  C   UNL d   1     -54.963 -99.845 -44.631  0.00  0.00     0.008 A 
ATOM      7 BR   UNL d   1     -54.795 -98.758 -45.600  0.00  0.00    -0.049 Br
ENDROOT
BRANCH   1   8
ATOM      8  C   UNL d   1     -57.353 -99.240 -44.407  0.00  0.00     0.083 C 
BRANCH   8   9
ATOM      9  N   UNL d   1     -57.842 -99.197 -45.057  0.00  0.00    -0.238 NA
BRANCH   9  10
ATOM     10  C   UNL d   1     -58.661 -99.266 -44.933  0.00  0.00     0.167 C 
BRANCH  10  11
ATOM     11  C   UNL d   1     -59.169 -99.161 -45.596  0.00  0.00     0.320 C 
ATOM     12  O   UNL d   1     -59.951 -99.484 -45.560  0.00  0.00    -0.257 OA
BRANCH  11  13
ATOM     13  O   UNL d   1     -58.920 -98.755 -46.269  0.00  0.00    -0.270 OA
BRANCH  13  14
ATOM     14  C   UNL d   1     -58.681 -99.160 -46.916  0.00  0.00     0.126 C 
ATOM     15  C   UNL d   1     -59.174 -99.202 -47.549  0.00  0.00     0.029 C 
ENDBRANCH  13  14
ENDBRANCH  11  13
ENDBRANCH  10  11
ENDBRANCH   9  10
ENDBRANCH   8   9
BRANCH   8  16
ATOM     16  C   UNL d   1     -57.662 -99.080 -43.664  0.00  0.00     0.018 A 
ATOM     17  C   UNL d   1     -57.168 -98.990 -43.010  0.00  0.00     0.002 A 
ATOM     18  C   UNL d   1     -57.456 -98.831 -42.264  0.00  0.00     0.000 A 
ATOM     19  C   UNL d   1     -58.304 -98.756 -42.170  0.00  0.00     0.000 A 
ATOM     20  C   UNL d   1     -58.805 -98.844 -42.820  0.00  0.00     0.000 A 
ATOM     21  C   UNL d   1     -58.487 -99.005 -43.565  0.00  0.00     0.002 A 
ENDBRANCH   8  16
ENDBRANCH   1   8
BRANCH   2  22
ATOM     22  N   UNL d   1     -56.735-100.498 -43.536  0.00  0.00    -0.208 NA
ATOM     23  C   UNL d   1     -56.586-101.302 -43.406  0.00  0.00     0.279 C 
ATOM     24  O   UNL d   1     -57.060-101.721 -42.907  0.00  0.00    -0.265 OA
BRANCH  23  25
ATOM     25  C   UNL d   1     -55.964-101.684 -43.777  0.00  0.00     0.058 A 
ATOM     26  C   UNL d   1     -55.707-101.448 -44.519  0.00  0.00     0.005 A 
ATOM     27  C   UNL d   1     -55.078-101.844 -44.878  0.00  0.00     0.000 A 
ATOM     28  C   UNL d   1     -54.716-102.467 -44.494  0.00  0.00     0.000 A 
ATOM     29  C   UNL d   1     -54.972-102.698 -43.761  0.00  0.00     0.000 A 
ATOM     30  C   UNL d   1     -55.601-102.301 -43.402  0.00  0.00     0.005 A 
ENDBRANCH  23  25
ENDBRANCH   2  22
TORSDOF 9
ENDMDL
MODEL 2
REMARK VINA RESULT:      86.0      1.455      2.672
REMARK  9 active torsions:
REMARK  status: ('A' for Active; 'I' for Inactive)
REMARK    1  A    between atoms: C_5  and  C_1 
REMARK    2  A    between atoms: N_4  and  C_2 
REMARK       I    between atoms: C_3  and  N_4 
REMARK    3  A    between atoms: C_10  and  C_3 
REMARK    4  A    between atoms: N_6  and  C_5 
REMARK    5  A    between atoms: C_12  and  C_5 
REMARK    6  A    between atoms: C_14  and  N_6 
REMARK    7  A    between atoms: C_8  and  C_14 
REMARK    8  A    between atoms: O_17  and  C_8 
REMARK    9  A    between atoms: C_23  and  O_17 
ROOT
ATOM      1  C   UNL d   1     -55.535 -99.526 -43.831  0.00  0.00     0.036 A 
ATOM      2  C   UNL d   1     -55.264-100.291 -43.806  0.00  0.00     0.086 A 
ATOM      3  C   UNL d   1     -55.403 -99.030 -43.193  0.00  0.00     0.010 A 
ATOM      4  C   UNL d   1     -54.858-100.579 -43.147  0.00  0.00     0.020 A 
ATOM      5  C   UNL d   1     -54.999 -99.300 -42.527  0.00  0.00     0.035 A 
ATOM      6  C   UNL d   1     -54.723-100.100 -42.514  0.00  0.00     0.008 A 
ATOM      7 BR   UNL d   1     -54.865 -98.789 -41.874  0.00  0.00    -0.049 Br
ENDROOT
BRANCH   1   8
ATOM      8  C   UNL d   1     -55.940 -99.239 -44.490  0.00  0.00     0.083 C 
BRANCH   8   9
ATOM      9  N   UNL d   1     -56.668 -98.882 -44.417  0.00  0.00    -0.238 NA
BRANCH   9  10
ATOM     10  C   UNL d   1     -57.343 -99.333 -44.596  0.00  0.00     0.167 C 
BRANCH  10  11
ATOM     11  C   UNL d   1     -57.975 -98.951 -45.001  0.00  0.00     0.320 C 
ATOM     12  O   UNL d   1     -57.878 -98.769 -45.822  0.00  0.00    -0.257 OA
BRANCH  11  13
ATOM     13  O   UNL d   1     -58.678 -98.756 -44.614  0.00  0.00    -0.270 OA
BRANCH  13  14
ATOM     14  C   UNL d   1     -58.842 -99.070 -43.898  0.00  0.00     0.126 C 
ATOM     15  C   UNL d   1     -59.611 -99.196 -43.699  0.00  0.00     0.029 C 
ENDBRANCH  13  14
ENDBRANCH  11  13
ENDBRANCH  10  11
ENDBRANCH   9  10
ENDBRANCH   8   9
BRANCH   8  16
ATOM     16  C   UNL d   1     -55.606 -99.313 -45.236  0.00  0.00     0.018 A 
ATOM     17  C   UNL d   1     -55.055 -98.763 -45.510  0.00  0.00     0.002 A 
ATOM     18  C   UNL d   1     -54.712 -98.820 -46.247  0.00  0.00     0.000 A 
ATOM     19  C   UNL d   1     -54.940 -99.479 -46.745  0.00  0.00     0.000 A 
ATOM     20  C   UNL d   1     -55.490-100.033 -46.478  0.00  0.00     0.000 A 
ATOM     21  C   UNL d   1     -55.823 -99.952 -45.726  0.00  0.00     0.002 A 
ENDBRANCH   8  16
ENDBRANCH   1   8
BRANCH   2  22
ATOM     22  N   UNL d   1     -55.403-100.799 -44.468  0.00  0.00    -0.208 NA
ATOM     23  C   UNL d   1     -55.497-101.613 -44.349  0.00  0.00     0.279 C 
ATOM     24  O   UNL d   1     -55.630-102.096 -44.980  0.00  0.00    -0.265 OA
BRANCH  23  25
ATOM     25  C   UNL d   1     -55.458-101.940 -43.599  0.00  0.00     0.058 A 
ATOM     26  C   UNL d   1     -56.101-101.906 -43.091  0.00  0.00     0.005 A 
ATOM     27  C   UNL d   1     -56.044-102.241 -42.338  0.00  0.00     0.000 A 
ATOM     28  C   UNL d   1     -55.351-102.603 -42.105  0.00  0.00     0.000 A 
ATOM     29  C   UNL d   1     -54.718-102.635 -42.609  0.00  0.00     0.000 A 
ATOM     30  C   UNL d   1     -54.775-102.300 -43.361  0.00  0.00     0.005 A 
ENDBRANCH  23  25
ENDBRANCH   2  22
TORSDOF 9
ENDMDL
