MODEL 1
REMARK VINA RESULT:      -4.0      0.000      0.000
REMARK  6 active torsions:
REMARK  status: ('A' for Active; 'I' for Inactive)
REMARK    1  A    between atoms: N_3  and  C_1 
REMARK       I    between atoms: C_7  and  N_3 
REMARK    2  A    between atoms: S_13  and  C_4 
REMARK    3  A    between atoms: C_20  and  C_7 
REMARK    4  A    between atoms: C_10  and  C_21 
REMARK       I    between atoms: N_12  and  C_10 
REMARK    5  A    between atoms: C_14  and  N_12 
REMARK    6  A    between atoms: C_21  and  S_13 
ROOT
ATOM      1  C   UNL d   1     -41.490-123.165 -50.812  0.00  0.00     0.286 C 
ATOM      2  N   UNL d   1     -42.053-122.720 -50.400  0.00  0.00    -0.207 NA
ATOM      3  O   UNL d   1     -41.125-123.813 -50.453  0.00  0.00    -0.265 OA
ENDROOT
BRANCH   1   4
ATOM      4  C   UNL d   1     -41.298-122.954 -51.583  0.00  0.00     0.100 C 
BRANCH   4   5
ATOM      5  S   UNL d   1     -41.185-123.542 -52.157  0.00  0.00    -0.054 SA
BRANCH   5   6
ATOM      6  C   UNL d   1     -41.462-123.418 -52.923  0.00  0.00     0.165 A 
ATOM      7  S   UNL d   1     -41.164-122.873 -53.457  0.00  0.00    -0.019 SA
ATOM      8  C   UNL d   1     -41.594-122.925 -54.156  0.00  0.00     0.219 A 
ATOM      9  N   UNL d   1     -42.166-123.513 -54.050  0.00  0.00    -0.120 NA
ATOM     10  N   UNL d   1     -42.085-123.817 -53.290  0.00  0.00    -0.133 NA
BRANCH   8  11
ATOM     11  N   UNL d   1     -41.472-122.471 -54.837  0.00  0.00    -0.181 NA
ATOM     12  C   UNL d   1     -42.127-122.208 -55.270  0.00  0.00     0.281 C 
ATOM     13  O   UNL d   1     -42.888-122.397 -55.025  0.00  0.00    -0.265 OA
BRANCH  12  14
ATOM     14  C   UNL d   1     -42.010-121.755 -55.950  0.00  0.00     0.058 C 
ATOM     15  C   UNL d   1     -42.661-121.536 -56.411  0.00  0.00     0.005 C 
ATOM     16  C   UNL d   1     -41.253-121.526 -56.163  0.00  0.00     0.005 C 
ENDBRANCH  12  14
ENDBRANCH   8  11
ENDBRANCH   5   6
ENDBRANCH   4   5
ENDBRANCH   1   4
BRANCH   2  17
ATOM     17  C   UNL d   1     -42.245-122.931 -49.625  0.00  0.00     0.087 A 
ATOM     18  C   UNL d   1     -41.670-122.885 -49.038  0.00  0.00     0.046 A 
ATOM     19  C   UNL d   1     -41.850-123.092 -48.267  0.00  0.00     0.124 A 
ATOM     20  O   UNL d   1     -41.271-123.045 -47.678  0.00  0.00    -0.301 OA
ATOM     21  C   UNL d   1     -42.614-123.349 -48.077  0.00  0.00     0.123 A 
ATOM     22  C   UNL d   1     -41.463-123.257 -46.899  0.00  0.00     0.149 A 
ATOM     23  C   UNL d   1     -42.228-123.514 -46.710  0.00  0.00     0.149 A 
ATOM     24  O   UNL d   1     -42.806-123.558 -47.311  0.00  0.00    -0.301 OA
ATOM     25  C   UNL d   1     -43.190-123.394 -48.668  0.00  0.00     0.028 A 
ATOM     26  C   UNL d   1     -43.005-123.185 -49.444  0.00  0.00     0.021 A 
ENDBRANCH   2  17
TORSDOF 6
ENDMDL
MODEL 2
REMARK VINA RESULT:      -3.1      1.200      6.379
REMARK  6 active torsions:
REMARK  status: ('A' for Active; 'I' for Inactive)
REMARK    1  A    between atoms: N_3  and  C_1 
REMARK       I    between atoms: C_7  and  N_3 
REMARK    2  A    between atoms: S_13  and  C_4 
REMARK    3  A    between atoms: C_20  and  C_7 
REMARK    4  A    between atoms: C_10  and  C_21 
REMARK       I    between atoms: N_12  and  C_10 
REMARK    5  A    between atoms: C_14  and  N_12 
REMARK    6  A    between atoms: C_21  and  S_13 
ROOT
ATOM      1  C   UNL d   1     -41.494-122.751 -52.509  0.00  0.00     0.286 C 
ATOM      2  N   UNL d   1     -41.724-122.061 -52.903  0.00  0.00    -0.207 NA
ATOM      3  O   UNL d   1     -41.333-123.442 -52.933  0.00  0.00    -0.265 OA
ENDROOT
BRANCH   1   4
ATOM      4  C   UNL d   1     -41.427-122.742 -51.689  0.00  0.00     0.100 C 
BRANCH   4   5
ATOM      5  S   UNL d   1     -41.461-123.453 -51.263  0.00  0.00    -0.054 SA
BRANCH   5   6
ATOM      6  C   UNL d   1     -41.894-123.484 -50.562  0.00  0.00     0.165 A 
ATOM      7  S   UNL d   1     -41.600-123.690 -49.827  0.00  0.00    -0.019 SA
ATOM      8  C   UNL d   1     -42.211-123.651 -49.278  0.00  0.00     0.219 A 
ATOM      9  N   UNL d   1     -42.893-123.417 -49.683  0.00  0.00    -0.120 NA
ATOM     10  N   UNL d   1     -42.697-123.313 -50.476  0.00  0.00    -0.133 NA
BRANCH   8  11
ATOM     11  N   UNL d   1     -42.149-123.817 -48.469  0.00  0.00    -0.181 NA
ATOM     12  C   UNL d   1     -42.342-123.229 -47.920  0.00  0.00     0.281 C 
ATOM     13  O   UNL d   1     -42.591-122.490 -48.175  0.00  0.00    -0.265 OA
BRANCH  12  14
ATOM     14  C   UNL d   1     -42.282-123.391 -47.112  0.00  0.00     0.058 C 
ATOM     15  C   UNL d   1     -42.967-123.547 -46.676  0.00  0.00     0.005 C 
ATOM     16  C   UNL d   1     -41.547-123.394 -46.751  0.00  0.00     0.005 C 
ENDBRANCH  12  14
ENDBRANCH   8  11
ENDBRANCH   5   6
ENDBRANCH   4   5
ENDBRANCH   1   4
BRANCH   2  17
ATOM     17  C   UNL d   1     -41.792-122.071 -53.726  0.00  0.00     0.087 A 
ATOM     18  C   UNL d   1     -42.535-121.991 -54.073  0.00  0.00     0.046 A 
ATOM     19  C   UNL d   1     -42.613-121.998 -54.887  0.00  0.00     0.124 A 
ATOM     20  O   UNL d   1     -43.360-121.918 -55.234  0.00  0.00    -0.301 OA
ATOM     21  C   UNL d   1     -41.943-122.087 -55.365  0.00  0.00     0.123 A 
ATOM     22  C   UNL d   1     -43.429-121.927 -56.060  0.00  0.00     0.149 A 
ATOM     23  C   UNL d   1     -42.758-122.016 -56.537  0.00  0.00     0.149 A 
ATOM     24  O   UNL d   1     -42.007-122.096 -56.179  0.00  0.00    -0.301 OA
ATOM     25  C   UNL d   1     -41.198-122.167 -55.014  0.00  0.00     0.028 A 
ATOM     26  C   UNL d   1     -41.123-122.159 -54.194  0.00  0.00     0.021 A 
ENDBRANCH   2  17
TORSDOF 6
ENDMDL
