MODEL 1
REMARK VINA RESULT:      -2.7      0.000      0.000
REMARK  6 active torsions:
REMARK  status: ('A' for Active; 'I' for Inactive)
REMARK    1  A    between atoms: C_5  and  N_1 
REMARK    2  A    between atoms: C_4  and  C_5 
REMARK       I    between atoms: N_8  and  C_4 
REMARK    3  A    between atoms: C_6  and  C_9 
REMARK    4  A    between atoms: O_19  and  C_6 
REMARK    5  A    between atoms: C_16  and  N_8 
REMARK    6  A    between atoms: C_22  and  O_19 
ROOT
ATOM      1  C   UNL d   1      32.524  17.966 -23.676  0.00  0.00     0.297 C 
ATOM      2  N   UNL d   1      33.238  18.324 -23.458  0.00  0.00    -0.207 NA
ATOM      3  O   UNL d   1      31.810  18.289 -23.417  0.00  0.00    -0.264 OA
ENDROOT
BRANCH   2   4
ATOM      4  C   UNL d   1      33.237  19.001 -22.984  0.00  0.00     0.085 A 
ATOM      5  C   UNL d   1      33.231  18.930 -22.162  0.00  0.00     0.019 A 
ATOM      6  C   UNL d   1      33.230  19.612 -21.704  0.00  0.00     0.007 A 
ATOM      7  C   UNL d   1      33.233  20.354 -22.049  0.00  0.00     0.064 A 
ATOM      8  C   UNL d   1      33.239  20.422 -22.871  0.00  0.00     0.007 A 
ATOM      9  C   UNL d   1      33.241  19.744 -23.345  0.00  0.00     0.019 A 
BRANCH   7  10
ATOM     10  C   UNL d   1      33.232  21.036 -21.578  0.00  0.00     0.300 C 
ATOM     11  O   UNL d   1      33.239  20.964 -20.756  0.00  0.00    -0.259 OA
BRANCH  10  12
ATOM     12  O   UNL d   1      33.223  21.774 -21.923  0.00  0.00    -0.271 OA
BRANCH  12  13
ATOM     13  C   UNL d   1      33.173  22.455 -21.465  0.00  0.00     0.126 C 
ATOM     14  C   UNL d   1      33.026  23.180 -21.806  0.00  0.00     0.029 C 
ENDBRANCH  12  13
ENDBRANCH  10  12
ENDBRANCH   7  10
ENDBRANCH   2   4
BRANCH   1  15
ATOM     15  C   UNL d   1      32.518  17.298 -24.143  0.00  0.00     0.148 C 
BRANCH  15  16
ATOM     16  N   UNL d   1      31.897  16.757 -24.085  0.00  0.00    -0.235 N 
ATOM     17  C   UNL d   1      31.207  16.874 -24.527  0.00  0.00     0.274 A 
ATOM     18  O   UNL d   1      31.142  17.531 -25.025  0.00  0.00    -0.266 OA
ATOM     19  C   UNL d   1      30.592  16.338 -24.469  0.00  0.00     0.097 A 
ATOM     20  S   UNL d   1      30.647  15.685 -23.979  0.00  0.00    -0.076 SA
ATOM     21  C   UNL d   1      31.329  15.566 -23.539  0.00  0.00     0.097 A 
ATOM     22  C   UNL d   1      31.959  16.097 -23.587  0.00  0.00     0.274 A 
ATOM     23  O   UNL d   1      32.644  15.980 -23.147  0.00  0.00    -0.266 OA
ENDBRANCH  15  16
ENDBRANCH   1  15
TORSDOF 6
ENDMDL
MODEL 2
REMARK VINA RESULT:      -2.6      0.463      1.274
REMARK  6 active torsions:
REMARK  status: ('A' for Active; 'I' for Inactive)
REMARK    1  A    between atoms: C_5  and  N_1 
REMARK    2  A    between atoms: C_4  and  C_5 
REMARK       I    between atoms: N_8  and  C_4 
REMARK    3  A    between atoms: C_6  and  C_9 
REMARK    4  A    between atoms: O_19  and  C_6 
REMARK    5  A    between atoms: C_16  and  N_8 
REMARK    6  A    between atoms: C_22  and  O_19 
ROOT
ATOM      1  C   UNL d   1      32.144  17.787 -23.810  0.00  0.00     0.297 C 
ATOM      2  N   UNL d   1      32.873  18.172 -23.736  0.00  0.00    -0.207 NA
ATOM      3  O   UNL d   1      31.497  18.046 -23.368  0.00  0.00    -0.264 OA
ENDROOT
BRANCH   2   4
ATOM      4  C   UNL d   1      32.953  18.815 -23.222  0.00  0.00     0.085 A 
ATOM      5  C   UNL d   1      32.848  19.584 -23.502  0.00  0.00     0.019 A 
ATOM      6  C   UNL d   1      32.931  20.211 -22.979  0.00  0.00     0.007 A 
ATOM      7  C   UNL d   1      33.114  20.087 -22.192  0.00  0.00     0.064 A 
ATOM      8  C   UNL d   1      33.218  19.316 -21.915  0.00  0.00     0.007 A 
ATOM      9  C   UNL d   1      33.138  18.674 -22.429  0.00  0.00     0.019 A 
BRANCH   7  10
ATOM     10  C   UNL d   1      33.195  20.727 -21.673  0.00  0.00     0.300 C 
ATOM     11  O   UNL d   1      33.230  20.591 -20.859  0.00  0.00    -0.259 OA
BRANCH  10  12
ATOM     12  O   UNL d   1      33.241  21.487 -21.961  0.00  0.00    -0.271 OA
BRANCH  12  13
ATOM     13  C   UNL d   1      33.178  22.136 -21.460  0.00  0.00     0.126 C 
ATOM     14  C   UNL d   1      33.129  22.893 -21.756  0.00  0.00     0.029 C 
ENDBRANCH  12  13
ENDBRANCH  10  12
ENDBRANCH   7  10
ENDBRANCH   2   4
BRANCH   1  15
ATOM     15  C   UNL d   1      32.057  17.152 -24.315  0.00  0.00     0.148 C 
BRANCH  15  16
ATOM     16  N   UNL d   1      31.387  16.673 -24.268  0.00  0.00    -0.235 N 
ATOM     17  C   UNL d   1      31.412  15.972 -23.826  0.00  0.00     0.274 A 
ATOM     18  O   UNL d   1      32.108  15.756 -23.436  0.00  0.00    -0.266 OA
ATOM     19  C   UNL d   1      30.748  15.498 -23.780  0.00  0.00     0.097 A 
ATOM     20  S   UNL d   1      30.055  15.705 -24.163  0.00  0.00    -0.076 SA
ATOM     21  C   UNL d   1      30.026  16.398 -24.601  0.00  0.00     0.097 A 
ATOM     22  C   UNL d   1      30.687  16.887 -24.658  0.00  0.00     0.274 A 
ATOM     23  O   UNL d   1      30.661  17.583 -25.097  0.00  0.00    -0.266 OA
ENDBRANCH  15  16
ENDBRANCH   1  15
TORSDOF 6
ENDMDL
MODEL 3
REMARK VINA RESULT:      -2.4      2.022      5.127
REMARK  6 active torsions:
REMARK  status: ('A' for Active; 'I' for Inactive)
REMARK    1  A    between atoms: C_5  and  N_1 
REMARK    2  A    between atoms: C_4  and  C_5 
REMARK       I    between atoms: N_8  and  C_4 
REMARK    3  A    between atoms: C_6  and  C_9 
REMARK    4  A    between atoms: O_19  and  C_6 
REMARK    5  A    between atoms: C_16  and  N_8 
REMARK    6  A    between atoms: C_22  and  O_19 
ROOT
ATOM      1  C   UNL d   1      32.833  20.035 -22.260  0.00  0.00     0.297 C 
ATOM      2  N   UNL d   1      33.241  19.438 -22.665  0.00  0.00    -0.207 NA
ATOM      3  O   UNL d   1      32.009  20.063 -22.295  0.00  0.00    -0.264 OA
ENDROOT
BRANCH   2   4
ATOM      4  C   UNL d   1      32.825  18.873 -23.101  0.00  0.00     0.085 A 
ATOM      5  C   UNL d   1      32.646  18.141 -22.765  0.00  0.00     0.019 A 
ATOM      6  C   UNL d   1      32.232  17.589 -23.211  0.00  0.00     0.007 A 
ATOM      7  C   UNL d   1      31.996  17.754 -23.977  0.00  0.00     0.064 A 
ATOM      8  C   UNL d   1      32.176  18.487 -24.310  0.00  0.00     0.007 A 
ATOM      9  C   UNL d   1      32.592  19.052 -23.874  0.00  0.00     0.019 A 
BRANCH   7  10
ATOM     10  C   UNL d   1      31.578  17.191 -24.418  0.00  0.00     0.300 C 
ATOM     11  O   UNL d   1      31.989  16.674 -24.912  0.00  0.00    -0.259 OA
BRANCH  10  12
ATOM     12  O   UNL d   1      30.767  17.146 -24.366  0.00  0.00    -0.271 OA
BRANCH  12  13
ATOM     13  C   UNL d   1      30.323  16.778 -24.952  0.00  0.00     0.126 C 
ATOM     14  C   UNL d   1      29.571  16.505 -24.801  0.00  0.00     0.029 C 
ENDBRANCH  12  13
ENDBRANCH  10  12
ENDBRANCH   7  10
ENDBRANCH   2   4
BRANCH   1  15
ATOM     15  C   UNL d   1      33.238  20.596 -21.828  0.00  0.00     0.148 C 
BRANCH  15  16
ATOM     16  N   UNL d   1      32.849  21.275 -21.564  0.00  0.00    -0.235 N 
ATOM     17  C   UNL d   1      32.537  21.298 -20.797  0.00  0.00     0.274 A 
ATOM     18  O   UNL d   1      32.616  20.643 -20.300  0.00  0.00    -0.266 OA
ATOM     19  C   UNL d   1      32.152  21.970 -20.536  0.00  0.00     0.097 A 
ATOM     20  S   UNL d   1      32.069  22.624 -21.022  0.00  0.00    -0.076 SA
ATOM     21  C   UNL d   1      32.377  22.605 -21.782  0.00  0.00     0.097 A 
ATOM     22  C   UNL d   1      32.768  21.934 -22.061  0.00  0.00     0.274 A 
ATOM     23  O   UNL d   1      33.078  21.912 -22.823  0.00  0.00    -0.266 OA
ENDBRANCH  15  16
ENDBRANCH   1  15
TORSDOF 6
ENDMDL
MODEL 4
REMARK VINA RESULT:      -1.5      1.073      1.956
REMARK  6 active torsions:
REMARK  status: ('A' for Active; 'I' for Inactive)
REMARK    1  A    between atoms: C_5  and  N_1 
REMARK    2  A    between atoms: C_4  and  C_5 
REMARK       I    between atoms: N_8  and  C_4 
REMARK    3  A    between atoms: C_6  and  C_9 
REMARK    4  A    between atoms: O_19  and  C_6 
REMARK    5  A    between atoms: C_16  and  N_8 
REMARK    6  A    between atoms: C_22  and  O_19 
ROOT
ATOM      1  C   UNL d   1      31.412  17.426 -24.388  0.00  0.00     0.297 C 
ATOM      2  N   UNL d   1      32.182  17.564 -24.118  0.00  0.00    -0.207 NA
ATOM      3  O   UNL d   1      30.880  18.054 -24.446  0.00  0.00    -0.264 OA
ENDROOT
BRANCH   2   4
ATOM      4  C   UNL d   1      32.418  18.328 -23.907  0.00  0.00     0.085 A 
ATOM      5  C   UNL d   1      32.496  18.911 -24.486  0.00  0.00     0.019 A 
ATOM      6  C   UNL d   1      32.731  19.665 -24.261  0.00  0.00     0.007 A 
ATOM      7  C   UNL d   1      32.887  19.845 -23.478  0.00  0.00     0.064 A 
ATOM      8  C   UNL d   1      32.808  19.260 -22.902  0.00  0.00     0.007 A 
ATOM      9  C   UNL d   1      32.572  18.496 -23.113  0.00  0.00     0.019 A 
BRANCH   7  10
ATOM     10  C   UNL d   1      33.123  20.609 -23.262  0.00  0.00     0.300 C 
ATOM     11  O   UNL d   1      33.241  21.180 -23.845  0.00  0.00    -0.259 OA
BRANCH  10  12
ATOM     12  O   UNL d   1      33.240  20.797 -22.478  0.00  0.00    -0.271 OA
BRANCH  12  13
ATOM     13  C   UNL d   1      33.139  21.566 -22.207  0.00  0.00     0.126 C 
ATOM     14  C   UNL d   1      33.141  21.735 -21.410  0.00  0.00     0.029 C 
ENDBRANCH  12  13
ENDBRANCH  10  12
ENDBRANCH   7  10
ENDBRANCH   2   4
BRANCH   1  15
ATOM     15  C   UNL d   1      31.172  16.675 -24.598  0.00  0.00     0.148 C 
BRANCH  15  16
ATOM     16  N   UNL d   1      30.524  16.328 -24.224  0.00  0.00    -0.235 N 
ATOM     17  C   UNL d   1      30.644  15.800 -23.597  0.00  0.00     0.274 A 
ATOM     18  O   UNL d   1      31.413  15.623 -23.349  0.00  0.00    -0.266 OA
ATOM     19  C   UNL d   1      30.002  15.456 -23.227  0.00  0.00     0.097 A 
ATOM     20  S   UNL d   1      29.237  15.625 -23.467  0.00  0.00    -0.076 SA
ATOM     21  C   UNL d   1      29.113  16.147 -24.087  0.00  0.00     0.097 A 
ATOM     22  C   UNL d   1      29.752  16.502 -24.471  0.00  0.00     0.274 A 
ATOM     23  O   UNL d   1      29.631  17.027 -25.094  0.00  0.00    -0.266 OA
ENDBRANCH  15  16
ENDBRANCH   1  15
TORSDOF 6
ENDMDL
MODEL 5
REMARK VINA RESULT:      -0.6      2.399      5.500
REMARK  6 active torsions:
REMARK  status: ('A' for Active; 'I' for Inactive)
REMARK    1  A    between atoms: C_5  and  N_1 
REMARK    2  A    between atoms: C_4  and  C_5 
REMARK       I    between atoms: N_8  and  C_4 
REMARK    3  A    between atoms: C_6  and  C_9 
REMARK    4  A    between atoms: O_19  and  C_6 
REMARK    5  A    between atoms: C_16  and  N_8 
REMARK    6  A    between atoms: C_22  and  O_19 
ROOT
ATOM      1  C   UNL d   1      33.107  21.572 -21.809  0.00  0.00     0.297 C 
ATOM      2  N   UNL d   1      33.240  21.360 -22.598  0.00  0.00    -0.207 NA
ATOM      3  O   UNL d   1      32.836  21.006 -21.273  0.00  0.00    -0.264 OA
ENDROOT
BRANCH   2   4
ATOM      4  C   UNL d   1      33.102  20.585 -22.849  0.00  0.00     0.085 A 
ATOM      5  C   UNL d   1      33.233  20.377 -23.637  0.00  0.00     0.019 A 
ATOM      6  C   UNL d   1      33.091  19.602 -23.871  0.00  0.00     0.007 A 
ATOM      7  C   UNL d   1      32.825  19.040 -23.339  0.00  0.00     0.064 A 
ATOM      8  C   UNL d   1      32.696  19.252 -22.552  0.00  0.00     0.007 A 
ATOM      9  C   UNL d   1      32.834  20.027 -22.301  0.00  0.00     0.019 A 
BRANCH   7  10
ATOM     10  C   UNL d   1      32.685  18.261 -23.585  0.00  0.00     0.300 C 
ATOM     11  O   UNL d   1      33.216  17.665 -23.376  0.00  0.00    -0.259 OA
BRANCH  10  12
ATOM     12  O   UNL d   1      32.028  18.083 -24.032  0.00  0.00    -0.271 OA
BRANCH  12  13
ATOM     13  C   UNL d   1      31.848  17.306 -24.231  0.00  0.00     0.126 C 
ATOM     14  C   UNL d   1      31.196  17.128 -24.685  0.00  0.00     0.029 C 
ENDBRANCH  12  13
ENDBRANCH  10  12
ENDBRANCH   7  10
ENDBRANCH   2   4
BRANCH   1  15
ATOM     15  C   UNL d   1      33.241  22.336 -21.554  0.00  0.00     0.148 C 
BRANCH  15  16
ATOM     16  N   UNL d   1      32.616  22.792 -21.266  0.00  0.00    -0.235 N 
ATOM     17  C   UNL d   1      32.446  22.790 -20.455  0.00  0.00     0.274 A 
ATOM     18  O   UNL d   1      32.901  22.333 -19.938  0.00  0.00    -0.266 OA
ATOM     19  C   UNL d   1      31.827  23.242 -20.170  0.00  0.00     0.097 A 
ATOM     20  S   UNL d   1      31.371  23.698 -20.674  0.00  0.00    -0.076 SA
ATOM     21  C   UNL d   1      31.537  23.702 -21.477  0.00  0.00     0.097 A 
ATOM     22  C   UNL d   1      32.158  23.252 -21.781  0.00  0.00     0.274 A 
ATOM     23  O   UNL d   1      32.326  23.254 -22.586  0.00  0.00    -0.266 OA
ENDBRANCH  15  16
ENDBRANCH   1  15
TORSDOF 6
ENDMDL
