MODEL 1
REMARK VINA RESULT:      69.8      0.000      0.000
REMARK  4 active torsions:
REMARK  status: ('A' for Active; 'I' for Inactive)
REMARK    1  A    between atoms: S_6  and  C_1 
REMARK    2  A    between atoms: C_9  and  N_2 
REMARK    3  A    between atoms: C_15  and  S_6 
REMARK    4  A    between atoms: C_14  and  C_9 
ROOT
ATOM      1  C   UNL d   1      45.226 -15.833  44.241  0.00  0.00     0.145 A 
ATOM      2  N   UNL d   1      45.246 -14.520  44.426  0.00  0.00    -0.270 N 
ATOM      3  C   UNL d   1      44.451 -15.590  44.396  0.00  0.00     0.130 A 
ATOM      4  C   UNL d   1      45.719 -15.173  44.259  0.00  0.00     0.183 A 
ATOM      5  C   UNL d   1      44.463 -14.773  44.512  0.00  0.00     0.168 A 
ATOM      6  N   UNL d   1      43.740 -16.004  44.447  0.00  0.00    -0.240 NA
ATOM      7  N   UNL d   1      43.765 -14.368  44.679  0.00  0.00    -0.225 NA
ATOM      8  C   UNL d   1      43.041 -15.600  44.614  0.00  0.00     0.099 A 
ATOM      9  C   UNL d   1      43.054 -14.782  44.730  0.00  0.00     0.101 A 
ATOM     10  N   UNL d   1      46.534 -15.155  44.135  0.00  0.00    -0.128 N 
ATOM     11  C   UNL d   1      42.330 -16.013  44.665  0.00  0.00     0.021 A 
ATOM     12  C   UNL d   1      42.355 -14.378  44.897  0.00  0.00     0.021 A 
ATOM     13  C   UNL d   1      41.645 -14.791  44.948  0.00  0.00     0.002 A 
ATOM     14  C   UNL d   1      41.632 -15.609  44.832  0.00  0.00     0.002 A 
ENDROOT
BRANCH   1  15
ATOM     15  S   UNL d   1      45.462 -16.611  44.092  0.00  0.00     0.214 S 
ATOM     16  O   UNL d   1      45.606 -16.486  44.892  0.00  0.00    -0.217 OA
ATOM     17  O   UNL d   1      45.316 -16.735  43.288  0.00  0.00    -0.217 OA
BRANCH  15  18
ATOM     18  C   UNL d   1      45.700 -17.388  43.958  0.00  0.00     0.088 A 
ATOM     19  C   UNL d   1      45.713 -17.596  43.157  0.00  0.00     0.011 A 
ATOM     20  C   UNL d   1      45.943 -18.364  42.937  0.00  0.00     0.001 A 
ATOM     21  C   UNL d   1      46.156 -18.916  43.514  0.00  0.00     0.000 A 
ATOM     22  C   UNL d   1      46.141 -18.704  44.312  0.00  0.00     0.001 A 
ATOM     23  C   UNL d   1      45.913 -17.939  44.536  0.00  0.00     0.011 A 
ENDBRANCH  15  18
ENDBRANCH   1  15
BRANCH   2  24
ATOM     24  C   UNL d   1      45.505 -13.738  44.498  0.00  0.00     0.108 C 
BRANCH  24  25
ATOM     25  C   UNL d   1      45.358 -13.200  43.897  0.00  0.00     0.118 A 
ATOM     26  O   UNL d   1      45.777 -13.138  43.198  0.00  0.00    -0.304 OA
ATOM     27  C   UNL d   1      45.445 -12.524  42.750  0.00  0.00     0.123 A 
ATOM     28  C   UNL d   1      44.821 -12.214  43.181  0.00  0.00     0.029 A 
ATOM     29  C   UNL d   1      44.771 -12.634  43.888  0.00  0.00     0.028 A 
ENDBRANCH  24  25
ENDBRANCH   2  24
TORSDOF 4
ENDMDL
