MODEL 1
REMARK VINA RESULT:      -0.8      0.000      0.000
REMARK  4 active torsions:
REMARK  status: ('A' for Active; 'I' for Inactive)
REMARK    1  A    between atoms: N_7  and  C_1 
REMARK    2  A    between atoms: C_11  and  C_2 
REMARK       I    between atoms: C_8  and  N_7 
REMARK    3  A    between atoms: C_13  and  C_8 
REMARK    4  A    between atoms: N_9  and  C_13 
ROOT
ATOM      1  C   UNL d   1      32.956  20.879 -21.722  0.00  0.00     0.142 A 
ATOM      2  C   UNL d   1      32.831  21.659 -21.510  0.00  0.00     0.024 A 
ATOM      3  C   UNL d   1      33.111  20.319 -21.137  0.00  0.00     0.297 A 
ATOM      4  C   UNL d   1      32.857  21.895 -20.723  0.00  0.00     0.020 A 
ATOM      5  N   UNL d   1      33.140  20.538 -20.339  0.00  0.00    -0.207 NA
ATOM      6  C   UNL d   1      33.011  21.335 -20.138  0.00  0.00     0.085 A 
ATOM      7  C   UNL d   1      32.732  22.672 -20.514  0.00  0.00     0.008 A 
ATOM      8  O   UNL d   1      33.240  19.520 -21.340  0.00  0.00    -0.264 OA
ATOM      9  C   UNL d   1      33.041  21.551 -19.343  0.00  0.00     0.020 A 
ATOM     10  C   UNL d   1      32.757  22.905 -19.730  0.00  0.00     0.035 A 
ATOM     11  C   UNL d   1      32.912  22.345 -19.145  0.00  0.00     0.008 A 
ATOM     12 BR   UNL d   1      32.631  23.702 -19.500  0.00  0.00    -0.049 Br
ENDROOT
BRANCH   1  13
ATOM     13  N   UNL d   1      32.932  20.631 -22.520  0.00  0.00    -0.202 NA
ATOM     14  C   UNL d   1      32.804  19.815 -22.687  0.00  0.00     0.297 C 
ATOM     15  O   UNL d   1      32.728  19.406 -22.179  0.00  0.00    -0.264 OA
BRANCH  14  16
ATOM     16  C   UNL d   1      32.780  19.572 -23.470  0.00  0.00     0.144 C 
BRANCH  16  17
ATOM     17  N   UNL d   1      32.576  18.779 -23.638  0.00  0.00    -0.295 N 
ATOM     18  C   UNL d   1      31.826  18.604 -23.921  0.00  0.00     0.107 A 
ATOM     19  C   UNL d   1      31.620  17.805 -24.091  0.00  0.00     0.142 A 
ATOM     20  O   UNL d   1      32.169  17.204 -23.973  0.00  0.00    -0.300 OA
ATOM     21  C   UNL d   1      32.944  17.398 -23.678  0.00  0.00     0.142 A 
ATOM     22  C   UNL d   1      33.132  18.181 -23.517  0.00  0.00     0.107 A 
ENDBRANCH  16  17
ENDBRANCH  14  16
ENDBRANCH   1  13
BRANCH   2  23
ATOM     23  C   UNL d   1      32.674  22.232 -22.108  0.00  0.00     0.002 A 
ATOM     24  C   UNL d   1      31.961  22.640 -22.105  0.00  0.00     0.000 A 
ATOM     25  C   UNL d   1      31.808  23.198 -22.687  0.00  0.00     0.000 A 
ATOM     26  C   UNL d   1      32.362  23.363 -23.289  0.00  0.00     0.000 A 
ATOM     27  C   UNL d   1      33.082  22.936 -23.275  0.00  0.00     0.000 A 
ATOM     28  C   UNL d   1      33.236  22.378 -22.692  0.00  0.00     0.000 A 
ENDBRANCH   2  23
TORSDOF 4
ENDMDL
MODEL 2
REMARK VINA RESULT:       0.5      4.400      6.144
REMARK  4 active torsions:
REMARK  status: ('A' for Active; 'I' for Inactive)
REMARK    1  A    between atoms: N_7  and  C_1 
REMARK    2  A    between atoms: C_11  and  C_2 
REMARK       I    between atoms: C_8  and  N_7 
REMARK    3  A    between atoms: C_13  and  C_8 
REMARK    4  A    between atoms: N_9  and  C_13 
ROOT
ATOM      1  C   UNL d   1      30.197  17.147 -24.602  0.00  0.00     0.142 A 
ATOM      2  C   UNL d   1      30.995  17.296 -24.507  0.00  0.00     0.024 A 
ATOM      3  C   UNL d   1      29.700  17.752 -24.864  0.00  0.00     0.297 A 
ATOM      4  C   UNL d   1      31.313  18.036 -24.668  0.00  0.00     0.020 A 
ATOM      5  N   UNL d   1      30.002  18.505 -25.031  0.00  0.00    -0.207 NA
ATOM      6  C   UNL d   1      30.816  18.640 -24.930  0.00  0.00     0.085 A 
ATOM      7  C   UNL d   1      32.108  18.182 -24.573  0.00  0.00     0.008 A 
ATOM      8  O   UNL d   1      28.884  17.614 -24.965  0.00  0.00    -0.264 OA
ATOM      9  C   UNL d   1      31.115  19.391 -25.097  0.00  0.00     0.020 A 
ATOM     10  C   UNL d   1      32.423  18.920 -24.733  0.00  0.00     0.035 A 
ATOM     11  C   UNL d   1      31.926  19.524 -24.995  0.00  0.00     0.008 A 
ATOM     12 BR   UNL d   1      33.241  19.084 -24.640  0.00  0.00    -0.049 Br
ENDROOT
BRANCH   1  13
ATOM     13  N   UNL d   1      29.866  16.397 -24.440  0.00  0.00    -0.202 NA
ATOM     14  C   UNL d   1      29.139  16.357 -24.015  0.00  0.00     0.297 C 
ATOM     15  O   UNL d   1      28.862  16.922 -23.828  0.00  0.00    -0.264 OA
BRANCH  14  16
ATOM     16  C   UNL d   1      28.815  15.621 -23.857  0.00  0.00     0.144 C 
BRANCH  16  17
ATOM     17  N   UNL d   1      27.993  15.566 -23.717  0.00  0.00    -0.295 N 
ATOM     18  C   UNL d   1      27.712  15.564 -22.947  0.00  0.00     0.107 A 
ATOM     19  C   UNL d   1      26.883  15.508 -22.805  0.00  0.00     0.142 A 
ATOM     20  O   UNL d   1      26.359  15.456 -23.437  0.00  0.00    -0.300 OA
ATOM     21  C   UNL d   1      26.664  15.460 -24.233  0.00  0.00     0.142 A 
ATOM     22  C   UNL d   1      27.474  15.514 -24.357  0.00  0.00     0.107 A 
ENDBRANCH  16  17
ENDBRANCH  14  16
ENDBRANCH   1  13
BRANCH   2  23
ATOM     23  C   UNL d   1      31.503  16.678 -24.239  0.00  0.00     0.002 A 
ATOM     24  C   UNL d   1      31.625  16.569 -23.435  0.00  0.00     0.000 A 
ATOM     25  C   UNL d   1      32.119  15.968 -23.174  0.00  0.00     0.000 A 
ATOM     26  C   UNL d   1      32.505  15.459 -23.710  0.00  0.00     0.000 A 
ATOM     27  C   UNL d   1      32.369  15.586 -24.527  0.00  0.00     0.000 A 
ATOM     28  C   UNL d   1      31.874  16.187 -24.788  0.00  0.00     0.000 A 
ENDBRANCH   2  23
TORSDOF 4
ENDMDL
MODEL 3
REMARK VINA RESULT:       1.1      2.033      4.474
REMARK  4 active torsions:
REMARK  status: ('A' for Active; 'I' for Inactive)
REMARK    1  A    between atoms: N_7  and  C_1 
REMARK    2  A    between atoms: C_11  and  C_2 
REMARK       I    between atoms: C_8  and  N_7 
REMARK    3  A    between atoms: C_13  and  C_8 
REMARK    4  A    between atoms: N_9  and  C_13 
ROOT
ATOM      1  C   UNL d   1      32.932  19.486 -22.545  0.00  0.00     0.142 A 
ATOM      2  C   UNL d   1      32.639  19.298 -23.284  0.00  0.00     0.024 A 
ATOM      3  C   UNL d   1      32.926  18.916 -21.948  0.00  0.00     0.297 A 
ATOM      4  C   UNL d   1      32.338  18.551 -23.445  0.00  0.00     0.020 A 
ATOM      5  N   UNL d   1      32.626  18.158 -22.092  0.00  0.00    -0.207 NA
ATOM      6  C   UNL d   1      32.331  17.981 -22.849  0.00  0.00     0.085 A 
ATOM      7  C   UNL d   1      32.046  18.366 -24.182  0.00  0.00     0.008 A 
ATOM      8  O   UNL d   1      33.222  19.095 -21.189  0.00  0.00    -0.264 OA
ATOM      9  C   UNL d   1      32.033  17.225 -22.990  0.00  0.00     0.020 A 
ATOM     10  C   UNL d   1      31.747  17.621 -24.341  0.00  0.00     0.035 A 
ATOM     11  C   UNL d   1      31.740  17.051 -23.745  0.00  0.00     0.008 A 
ATOM     12 BR   UNL d   1      31.443  17.417 -25.097  0.00  0.00    -0.049 Br
ENDROOT
BRANCH   1  13
ATOM     13  N   UNL d   1      33.241  20.244 -22.373  0.00  0.00    -0.202 NA
ATOM     14  C   UNL d   1      32.922  20.673 -21.720  0.00  0.00     0.297 C 
ATOM     15  O   UNL d   1      32.443  20.391 -21.372  0.00  0.00    -0.264 OA
BRANCH  14  16
ATOM     16  C   UNL d   1      33.225  21.416 -21.552  0.00  0.00     0.144 C 
BRANCH  16  17
ATOM     17  N   UNL d   1      32.873  21.864 -20.940  0.00  0.00    -0.295 N 
ATOM     18  C   UNL d   1      32.947  21.617 -20.162  0.00  0.00     0.107 A 
ATOM     19  C   UNL d   1      32.592  22.069 -19.545  0.00  0.00     0.142 A 
ATOM     20  O   UNL d   1      32.173  22.754 -19.724  0.00  0.00    -0.300 OA
ATOM     21  C   UNL d   1      32.103  22.999 -20.537  0.00  0.00     0.142 A 
ATOM     22  C   UNL d   1      32.454  22.550 -21.128  0.00  0.00     0.107 A 
ENDBRANCH  16  17
ENDBRANCH  14  16
ENDBRANCH   1  13
BRANCH   2  23
ATOM     23  C   UNL d   1      32.646  19.881 -23.893  0.00  0.00     0.002 A 
ATOM     24  C   UNL d   1      32.068  20.464 -23.908  0.00  0.00     0.000 A 
ATOM     25  C   UNL d   1      32.074  21.031 -24.501  0.00  0.00     0.000 A 
ATOM     26  C   UNL d   1      32.659  21.031 -25.097  0.00  0.00     0.000 A 
ATOM     27  C   UNL d   1      33.240  20.429 -25.065  0.00  0.00     0.000 A 
ATOM     28  C   UNL d   1      33.233  19.861 -24.472  0.00  0.00     0.000 A 
ENDBRANCH   2  23
TORSDOF 4
ENDMDL
MODEL 4
REMARK VINA RESULT:       1.6      1.152      1.601
REMARK  4 active torsions:
REMARK  status: ('A' for Active; 'I' for Inactive)
REMARK    1  A    between atoms: N_7  and  C_1 
REMARK    2  A    between atoms: C_11  and  C_2 
REMARK       I    between atoms: C_8  and  N_7 
REMARK    3  A    between atoms: C_13  and  C_8 
REMARK    4  A    between atoms: N_9  and  C_13 
ROOT
ATOM      1  C   UNL d   1      32.955  19.885 -22.911  0.00  0.00     0.142 A 
ATOM      2  C   UNL d   1      32.969  20.690 -22.768  0.00  0.00     0.024 A 
ATOM      3  C   UNL d   1      33.021  19.360 -22.279  0.00  0.00     0.297 A 
ATOM      4  C   UNL d   1      33.049  20.986 -22.006  0.00  0.00     0.020 A 
ATOM      5  N   UNL d   1      33.102  19.639 -21.503  0.00  0.00    -0.207 NA
ATOM      6  C   UNL d   1      33.115  20.460 -21.374  0.00  0.00     0.085 A 
ATOM      7  C   UNL d   1      33.063  21.788 -21.866  0.00  0.00     0.008 A 
ATOM      8  O   UNL d   1      33.008  18.536 -22.410  0.00  0.00    -0.264 OA
ATOM      9  C   UNL d   1      33.196  20.736 -20.601  0.00  0.00     0.020 A 
ATOM     10  C   UNL d   1      33.143  22.080 -21.106  0.00  0.00     0.035 A 
ATOM     11  C   UNL d   1      33.209  21.554 -20.474  0.00  0.00     0.008 A 
ATOM     12 BR   UNL d   1      33.159  22.904 -20.947  0.00  0.00    -0.049 Br
ENDROOT
BRANCH   1  13
ATOM     13  N   UNL d   1      32.874  19.577 -23.684  0.00  0.00    -0.202 NA
ATOM     14  C   UNL d   1      32.321  18.954 -23.816  0.00  0.00     0.297 C 
ATOM     15  O   UNL d   1      31.975  18.737 -23.303  0.00  0.00    -0.264 OA
BRANCH  14  16
ATOM     16  C   UNL d   1      32.242  18.651 -24.574  0.00  0.00     0.144 C 
BRANCH  16  17
ATOM     17  N   UNL d   1      31.915  17.888 -24.670  0.00  0.00    -0.295 N 
ATOM     18  C   UNL d   1      31.103  17.787 -24.636  0.00  0.00     0.107 A 
ATOM     19  C   UNL d   1      30.773  17.017 -24.732  0.00  0.00     0.142 A 
ATOM     20  O   UNL d   1      31.266  16.371 -24.860  0.00  0.00    -0.300 OA
ATOM     21  C   UNL d   1      32.109  16.489 -24.893  0.00  0.00     0.142 A 
ATOM     22  C   UNL d   1      32.417  17.245 -24.797  0.00  0.00     0.107 A 
ENDBRANCH  16  17
ENDBRANCH  14  16
ENDBRANCH   1  13
BRANCH   2  23
ATOM     23  C   UNL d   1      32.901  21.227 -23.414  0.00  0.00     0.002 A 
ATOM     24  C   UNL d   1      32.501  21.937 -23.315  0.00  0.00     0.000 A 
ATOM     25  C   UNL d   1      32.434  22.461 -23.945  0.00  0.00     0.000 A 
ATOM     26  C   UNL d   1      32.767  22.288 -24.690  0.00  0.00     0.000 A 
ATOM     27  C   UNL d   1      33.171  21.559 -24.772  0.00  0.00     0.000 A 
ATOM     28  C   UNL d   1      33.238  21.036 -24.142  0.00  0.00     0.000 A 
ENDBRANCH   2  23
TORSDOF 4
ENDMDL
