MODEL 1
REMARK VINA RESULT:      -2.9      0.000      0.000
REMARK  1 active torsions:
REMARK  status: ('A' for Active; 'I' for Inactive)
REMARK    1  A    between atoms: C_2  and  CA_3 
ROOT
ATOM      1  N   UNL d   1      31.920  21.873 -20.770  0.00  0.00    -0.237 NA
ATOM      2  CA  UNL d   1      32.250  22.531 -21.120  0.00  0.00     0.145 A 
ATOM      3  C   UNL d   1      32.872  22.444 -21.667  0.00  0.00     0.026 A 
ATOM      4  C   UNL d   1      32.199  21.125 -20.953  0.00  0.00     0.106 A 
ATOM      5  C   UNL d   1      32.822  21.038 -21.500  0.00  0.00     0.054 A 
ATOM      6  C   UNL d   1      33.148  21.701 -21.847  0.00  0.00     0.010 A 
ATOM      7 BR   UNL d   1      33.097  20.284 -21.679  0.00  0.00    -0.048 Br
ENDROOT
BRANCH   2   8
ATOM      8  C   UNL d   1      31.970  23.285 -20.937  0.00  0.00     0.229 C 
ATOM      9  O   UNL d   1      31.377  23.636 -21.391  0.00  0.00    -0.643 OA
ATOM     10  OXT UNL d   1      32.279  23.700 -20.298  0.00  0.00    -0.643 OA
ENDBRANCH   2   8
TORSDOF 1
ENDMDL
MODEL 2
REMARK VINA RESULT:      -2.3      2.181      2.565
REMARK  1 active torsions:
REMARK  status: ('A' for Active; 'I' for Inactive)
REMARK    1  A    between atoms: C_2  and  CA_3 
ROOT
ATOM      1  N   UNL d   1      33.017  22.002 -19.794  0.00  0.00    -0.237 NA
ATOM      2  CA  UNL d   1      32.568  22.332 -20.390  0.00  0.00     0.145 A 
ATOM      3  C   UNL d   1      32.336  23.130 -20.343  0.00  0.00     0.026 A 
ATOM      4  C   UNL d   1      33.241  22.455 -19.149  0.00  0.00     0.106 A 
ATOM      5  C   UNL d   1      33.009  23.254 -19.102  0.00  0.00     0.054 A 
ATOM      6  C   UNL d   1      32.560  23.577 -19.703  0.00  0.00     0.010 A 
ATOM      7 BR   UNL d   1      33.238  23.702 -18.452  0.00  0.00    -0.048 Br
ENDROOT
BRANCH   2   8
ATOM      8  C   UNL d   1      32.341  21.878 -21.040  0.00  0.00     0.229 C 
ATOM      9  O   UNL d   1      31.707  21.353 -20.988  0.00  0.00    -0.643 OA
ATOM     10  OXT UNL d   1      32.745  21.942 -21.753  0.00  0.00    -0.643 OA
ENDBRANCH   2   8
TORSDOF 1
ENDMDL
MODEL 3
REMARK VINA RESULT:      -2.3      2.097      2.459
REMARK  1 active torsions:
REMARK  status: ('A' for Active; 'I' for Inactive)
REMARK    1  A    between atoms: C_2  and  CA_3 
ROOT
ATOM      1  N   UNL d   1      32.270  21.481 -20.670  0.00  0.00    -0.237 NA
ATOM      2  CA  UNL d   1      32.755  21.231 -21.276  0.00  0.00     0.145 A 
ATOM      3  C   UNL d   1      33.054  21.782 -21.824  0.00  0.00     0.026 A 
ATOM      4  C   UNL d   1      32.075  22.274 -20.599  0.00  0.00     0.106 A 
ATOM      5  C   UNL d   1      32.374  22.825 -21.147  0.00  0.00     0.054 A 
ATOM      6  C   UNL d   1      32.860  22.568 -21.752  0.00  0.00     0.010 A 
ATOM      7 BR   UNL d   1      32.175  23.618 -21.069  0.00  0.00    -0.048 Br
ENDROOT
BRANCH   2   8
ATOM      8  C   UNL d   1      32.953  20.433 -21.350  0.00  0.00     0.229 C 
ATOM      9  O   UNL d   1      32.865  20.043 -22.071  0.00  0.00    -0.643 OA
ATOM     10  OXT UNL d   1      33.241  20.015 -20.704  0.00  0.00    -0.643 OA
ENDBRANCH   2   8
TORSDOF 1
ENDMDL
MODEL 4
REMARK VINA RESULT:      -2.3      6.909      7.368
REMARK  1 active torsions:
REMARK  status: ('A' for Active; 'I' for Inactive)
REMARK    1  A    between atoms: C_2  and  CA_3 
ROOT
ATOM      1  N   UNL d   1      29.517  16.486 -24.068  0.00  0.00    -0.237 NA
ATOM      2  CA  UNL d   1      29.094  16.041 -23.532  0.00  0.00     0.145 A 
ATOM      3  C   UNL d   1      29.493  15.529 -23.009  0.00  0.00     0.026 A 
ATOM      4  C   UNL d   1      30.335  16.432 -24.094  0.00  0.00     0.106 A 
ATOM      5  C   UNL d   1      30.733  15.921 -23.571  0.00  0.00     0.054 A 
ATOM      6  C   UNL d   1      30.303  15.477 -23.037  0.00  0.00     0.010 A 
ATOM      7 BR   UNL d   1      31.553  15.872 -23.604  0.00  0.00    -0.048 Br
ENDROOT
BRANCH   2   8
ATOM      8  C   UNL d   1      28.272  16.093 -23.504  0.00  0.00     0.229 C 
ATOM      9  O   UNL d   1      27.902  16.788 -23.255  0.00  0.00    -0.643 OA
ATOM     10  OXT UNL d   1      27.806  15.453 -23.723  0.00  0.00    -0.643 OA
ENDBRANCH   2   8
TORSDOF 1
ENDMDL
MODEL 5
REMARK VINA RESULT:      -2.2      6.878      7.260
REMARK  1 active torsions:
REMARK  status: ('A' for Active; 'I' for Inactive)
REMARK    1  A    between atoms: C_2  and  CA_3 
ROOT
ATOM      1  N   UNL d   1      29.575  15.600 -23.098  0.00  0.00    -0.237 NA
ATOM      2  CA  UNL d   1      29.142  16.091 -23.583  0.00  0.00     0.145 A 
ATOM      3  C   UNL d   1      29.531  16.591 -24.124  0.00  0.00     0.026 A 
ATOM      4  C   UNL d   1      30.394  15.595 -23.142  0.00  0.00     0.106 A 
ATOM      5  C   UNL d   1      30.783  16.095 -23.683  0.00  0.00     0.054 A 
ATOM      6  C   UNL d   1      30.342  16.585 -24.166  0.00  0.00     0.010 A 
ATOM      7 BR   UNL d   1      31.604  16.085 -23.721  0.00  0.00    -0.048 Br
ENDROOT
BRANCH   2   8
ATOM      8  C   UNL d   1      28.318  16.098 -23.541  0.00  0.00     0.229 C 
ATOM      9  O   UNL d   1      27.878  15.453 -23.806  0.00  0.00    -0.643 OA
ATOM     10  OXT UNL d   1      27.922  16.749 -23.233  0.00  0.00    -0.643 OA
ENDBRANCH   2   8
TORSDOF 1
ENDMDL
MODEL 6
REMARK VINA RESULT:      -2.1      6.611      7.137
REMARK  1 active torsions:
REMARK  status: ('A' for Active; 'I' for Inactive)
REMARK    1  A    between atoms: C_2  and  CA_3 
ROOT
ATOM      1  N   UNL d   1      30.265  16.617 -24.162  0.00  0.00    -0.237 NA
ATOM      2  CA  UNL d   1      30.750  16.175 -23.678  0.00  0.00     0.145 A 
ATOM      3  C   UNL d   1      30.418  15.628 -23.144  0.00  0.00     0.026 A 
ATOM      4  C   UNL d   1      29.452  16.526 -24.125  0.00  0.00     0.106 A 
ATOM      5  C   UNL d   1      29.120  15.979 -23.591  0.00  0.00     0.054 A 
ATOM      6  C   UNL d   1      29.612  15.539 -23.109  0.00  0.00     0.010 A 
ATOM      7 BR   UNL d   1      28.303  15.892 -23.559  0.00  0.00    -0.048 Br
ENDROOT
BRANCH   2   8
ATOM      8  C   UNL d   1      31.569  16.265 -23.714  0.00  0.00     0.229 C 
ATOM      9  O   UNL d   1      32.034  15.733 -24.140  0.00  0.00    -0.643 OA
ATOM     10  OXT UNL d   1      31.936  16.888 -23.323  0.00  0.00    -0.643 OA
ENDBRANCH   2   8
TORSDOF 1
ENDMDL
MODEL 7
REMARK VINA RESULT:      -2.0      6.180      6.624
REMARK  1 active torsions:
REMARK  status: ('A' for Active; 'I' for Inactive)
REMARK    1  A    between atoms: C_2  and  CA_3 
ROOT
ATOM      1  N   UNL d   1      30.205  16.242 -23.848  0.00  0.00    -0.237 NA
ATOM      2  CA  UNL d   1      29.988  16.851 -24.345  0.00  0.00     0.145 A 
ATOM      3  C   UNL d   1      30.558  17.403 -24.600  0.00  0.00     0.026 A 
ATOM      4  C   UNL d   1      30.982  16.171 -23.599  0.00  0.00     0.106 A 
ATOM      5  C   UNL d   1      31.552  16.723 -23.853  0.00  0.00     0.054 A 
ATOM      6  C   UNL d   1      31.328  17.330 -24.351  0.00  0.00     0.010 A 
ATOM      7 BR   UNL d   1      32.329  16.644 -23.599  0.00  0.00    -0.048 Br
ENDROOT
BRANCH   2   8
ATOM      8  C   UNL d   1      29.207  16.926 -24.598  0.00  0.00     0.229 C 
ATOM      9  O   UNL d   1      28.744  17.564 -24.355  0.00  0.00    -0.643 OA
ATOM     10  OXT UNL d   1      28.876  16.363 -25.097  0.00  0.00    -0.643 OA
ENDBRANCH   2   8
TORSDOF 1
ENDMDL
MODEL 8
REMARK VINA RESULT:      -1.9      2.443      2.880
REMARK  1 active torsions:
REMARK  status: ('A' for Active; 'I' for Inactive)
REMARK    1  A    between atoms: C_2  and  CA_3 
ROOT
ATOM      1  N   UNL d   1      32.617  20.398 -21.298  0.00  0.00    -0.237 NA
ATOM      2  CA  UNL d   1      32.989  20.472 -22.020  0.00  0.00     0.145 A 
ATOM      3  C   UNL d   1      33.215  21.224 -22.297  0.00  0.00     0.026 A 
ATOM      4  C   UNL d   1      32.465  21.063 -20.844  0.00  0.00     0.106 A 
ATOM      5  C   UNL d   1      32.691  21.815 -21.121  0.00  0.00     0.054 A 
ATOM      6  C   UNL d   1      33.063  21.882 -21.845  0.00  0.00     0.010 A 
ATOM      7 BR   UNL d   1      32.535  22.477 -20.659  0.00  0.00    -0.048 Br
ENDROOT
BRANCH   2   8
ATOM      8  C   UNL d   1      33.144  19.805 -22.480  0.00  0.00     0.229 C 
ATOM      9  O   UNL d   1      33.241  19.064 -22.129  0.00  0.00    -0.643 OA
ATOM     10  OXT UNL d   1      33.204  19.867 -23.297  0.00  0.00    -0.643 OA
ENDBRANCH   2   8
TORSDOF 1
ENDMDL
MODEL 9
REMARK VINA RESULT:      -1.9      5.327      5.893
REMARK  1 active torsions:
REMARK  status: ('A' for Active; 'I' for Inactive)
REMARK    1  A    between atoms: C_2  and  CA_3 
ROOT
ATOM      1  N   UNL d   1      31.031  17.621 -24.365  0.00  0.00    -0.237 NA
ATOM      2  CA  UNL d   1      31.759  17.576 -24.002  0.00  0.00     0.145 A 
ATOM      3  C   UNL d   1      31.970  16.893 -23.574  0.00  0.00     0.026 A 
ATOM      4  C   UNL d   1      30.505  16.994 -24.311  0.00  0.00     0.106 A 
ATOM      5  C   UNL d   1      30.716  16.311 -23.884  0.00  0.00     0.054 A 
ATOM      6  C   UNL d   1      31.447  16.274 -23.522  0.00  0.00     0.010 A 
ATOM      7 BR   UNL d   1      30.183  15.688 -23.834  0.00  0.00    -0.048 Br
ENDROOT
BRANCH   2   8
ATOM      8  C   UNL d   1      32.291  18.205 -24.054  0.00  0.00     0.229 C 
ATOM      9  O   UNL d   1      32.485  18.650 -23.387  0.00  0.00    -0.643 OA
ATOM     10  OXT UNL d   1      32.636  18.398 -24.775  0.00  0.00    -0.643 OA
ENDBRANCH   2   8
TORSDOF 1
ENDMDL
