MODEL 1
REMARK VINA RESULT:      45.3      0.000      0.000
REMARK  4 active torsions:
REMARK  status: ('A' for Active; 'I' for Inactive)
REMARK    1  A    between atoms: N_5  and  C_1 
REMARK    2  A    between atoms: C_8  and  C_2 
REMARK       I    between atoms: C_7  and  N_5 
REMARK    3  A    between atoms: C_10  and  C_7 
REMARK    4  A    between atoms: N_9  and  C_8 
ROOT
ATOM      1  C   UNL d   1      13.861  13.736  -3.131  0.00  0.00     0.115 A 
ATOM      2  C   UNL d   1      14.044  12.936  -3.186  0.00  0.00     0.042 A 
ATOM      3  S   UNL d   1      13.358  13.928  -3.772  0.00  0.00    -0.068 SA
ATOM      4  C   UNL d   1      13.659  12.631  -3.857  0.00  0.00     0.009 A 
ATOM      5  C   UNL d   1      13.241  13.255  -4.206  0.00  0.00     0.031 A 
ATOM      6  C   UNL d   1      13.682  11.851  -4.132  0.00  0.00     0.001 C 
ATOM      7  C   UNL d   1      12.774  13.207  -4.890  0.00  0.00     0.007 C 
ENDROOT
BRANCH   1   8
ATOM      8  N   UNL d   1      14.169  14.188  -2.514  0.00  0.00    -0.201 NA
ATOM      9  C   UNL d   1      14.304  14.993  -2.619  0.00  0.00     0.280 C 
ATOM     10  O   UNL d   1      14.131  15.346  -3.343  0.00  0.00    -0.265 OA
BRANCH   9  11
ATOM     11  C   UNL d   1      14.611  15.446  -2.002  0.00  0.00     0.058 A 
ATOM     12  C   UNL d   1      14.983  16.162  -2.161  0.00  0.00     0.007 A 
ATOM     13  C   UNL d   1      15.294  16.620  -1.537  0.00  0.00     0.030 A 
ATOM     14  C   UNL d   1      15.229  16.356  -0.761  0.00  0.00     0.140 A 
ATOM     15  C   UNL d   1      14.857  15.639  -0.601  0.00  0.00     0.030 A 
ATOM     16  F   UNL d   1      15.537  16.808  -0.144  0.00  0.00    -0.204 F 
ATOM     17  C   UNL d   1      14.546  15.182  -1.225  0.00  0.00     0.007 A 
ENDBRANCH   9  11
ENDBRANCH   1   8
BRANCH   2  18
ATOM     18  C   UNL d   1      14.531  12.505  -2.663  0.00  0.00     0.082 C 
BRANCH  18  19
ATOM     19  N   UNL d   1      14.250  12.297  -1.915  0.00  0.00    -0.302 N 
ATOM     20  C   UNL d   1      14.858  12.268  -1.356  0.00  0.00     0.080 A 
ATOM     21  C   UNL d   1      14.812  12.085  -0.560  0.00  0.00     0.019 A 
ATOM     22  C   UNL d   1      14.148  11.883  -0.113  0.00  0.00     0.002 A 
ATOM     23  C   UNL d   1      13.363  11.815  -0.356  0.00  0.00     0.002 A 
ATOM     24  C   UNL d   1      13.050  11.933  -1.113  0.00  0.00     0.019 A 
ATOM     25  C   UNL d   1      13.442  12.147  -1.803  0.00  0.00     0.080 A 
ENDBRANCH  18  19
ENDBRANCH   2  18
TORSDOF 4
ENDMDL
MODEL 2
REMARK VINA RESULT:      47.0      1.279      2.725
REMARK  4 active torsions:
REMARK  status: ('A' for Active; 'I' for Inactive)
REMARK    1  A    between atoms: N_5  and  C_1 
REMARK    2  A    between atoms: C_8  and  C_2 
REMARK       I    between atoms: C_7  and  N_5 
REMARK    3  A    between atoms: C_10  and  C_7 
REMARK    4  A    between atoms: N_9  and  C_8 
ROOT
ATOM      1  C   UNL d   1      14.582  13.585  -1.555  0.00  0.00     0.115 A 
ATOM      2  C   UNL d   1      13.936  13.143  -1.809  0.00  0.00     0.042 A 
ATOM      3  S   UNL d   1      15.014  13.117  -1.011  0.00  0.00    -0.068 SA
ATOM      4  C   UNL d   1      13.965  12.405  -1.427  0.00  0.00     0.009 A 
ATOM      5  C   UNL d   1      14.635  12.405  -0.940  0.00  0.00     0.031 A 
ATOM      6  C   UNL d   1      13.429  11.780  -1.512  0.00  0.00     0.001 C 
ATOM      7  C   UNL d   1      14.884  11.781  -0.453  0.00  0.00     0.007 C 
ENDROOT
BRANCH   1   8
ATOM      8  N   UNL d   1      14.699  14.349  -1.843  0.00  0.00    -0.201 NA
ATOM      9  C   UNL d   1      14.831  14.971  -1.321  0.00  0.00     0.280 C 
ATOM     10  O   UNL d   1      14.846  14.829  -0.509  0.00  0.00    -0.265 OA
BRANCH   9  11
ATOM     11  C   UNL d   1      14.948  15.735  -1.609  0.00  0.00     0.058 A 
ATOM     12  C   UNL d   1      15.007  15.866  -2.419  0.00  0.00     0.007 A 
ATOM     13  C   UNL d   1      15.125  16.638  -2.710  0.00  0.00     0.030 A 
ATOM     14  C   UNL d   1      15.183  17.271  -2.188  0.00  0.00     0.140 A 
ATOM     15  C   UNL d   1      15.125  17.141  -1.377  0.00  0.00     0.030 A 
ATOM     16  F   UNL d   1      15.301  18.035  -2.476  0.00  0.00    -0.204 F 
ATOM     17  C   UNL d   1      15.006  16.369  -1.086  0.00  0.00     0.007 A 
ENDBRANCH   9  11
ENDBRANCH   1   8
BRANCH   2  18
ATOM     18  C   UNL d   1      13.355  13.391  -2.354  0.00  0.00     0.082 C 
BRANCH  18  19
ATOM     19  N   UNL d   1      13.310  13.038  -3.099  0.00  0.00    -0.302 N 
ATOM     20  C   UNL d   1      13.070  13.576  -3.678  0.00  0.00     0.080 A 
ATOM     21  C   UNL d   1      12.957  13.449  -4.479  0.00  0.00     0.019 A 
ATOM     22  C   UNL d   1      13.056  12.752  -4.910  0.00  0.00     0.002 A 
ATOM     23  C   UNL d   1      13.291  12.008  -4.644  0.00  0.00     0.002 A 
ATOM     24  C   UNL d   1      13.488  11.780  -3.873  0.00  0.00     0.019 A 
ATOM     25  C   UNL d   1      13.496  12.235  -3.189  0.00  0.00     0.080 A 
ENDBRANCH  18  19
ENDBRANCH   2  18
TORSDOF 4
ENDMDL
