MODEL 1
REMARK VINA RESULT:      93.2      0.000      0.000
REMARK  5 active torsions:
REMARK  status: ('A' for Active; 'I' for Inactive)
REMARK    1  A    between atoms: C_14  and  N_4 
REMARK    2  A    between atoms: C_15  and  C_9 
REMARK    3  A    between atoms: O_18  and  C_12 
REMARK    4  A    between atoms: O_19  and  C_13 
REMARK    5  A    between atoms: C_16  and  C_14 
ROOT
ATOM      1  C   UNL d   1      58.830  49.540  50.991  0.00  0.00     0.056 A 
ATOM      2  C   UNL d   1      59.027  49.578  51.797  0.00  0.00     0.107 A 
ATOM      3  C   UNL d   1      59.815  49.593  52.030  0.00  0.00     0.038 A 
ATOM      4  N   UNL d   1      60.224  49.534  50.663  0.00  0.00    -0.304 N 
ATOM      5  N   UNL d   1      58.323  49.592  52.223  0.00  0.00    -0.148 NA
ATOM      6  C   UNL d   1      59.429  49.518  50.424  0.00  0.00     0.083 A 
ATOM      7  N   UNL d   1      57.697  49.564  51.685  0.00  0.00    -0.148 NA
ATOM      8  C   UNL d   1      60.414  49.572  51.463  0.00  0.00     0.068 A 
ATOM      9  C   UNL d   1      58.003  49.532  50.925  0.00  0.00     0.106 A 
ATOM     10  C   UNL d   1      61.204  49.587  51.696  0.00  0.00     0.044 A 
ATOM     11  C   UNL d   1      60.007  49.631  52.830  0.00  0.00     0.029 A 
ATOM     12  C   UNL d   1      61.394  49.625  52.496  0.00  0.00     0.118 A 
ATOM     13  C   UNL d   1      60.796  49.647  53.063  0.00  0.00     0.116 A 
ENDROOT
BRANCH   4  14
ATOM     14  C   UNL d   1      60.823  49.513  50.096  0.00  0.00     0.080 C 
BRANCH  14  15
ATOM     15  C   UNL d   1      61.200  48.801  49.921  0.00  0.00     0.018 A 
ATOM     16  C   UNL d   1      60.799  48.079  50.034  0.00  0.00     0.004 A 
ATOM     17  C   UNL d   1      61.174  47.368  49.859  0.00  0.00     0.030 A 
ATOM     18  C   UNL d   1      61.957  47.365  49.569  0.00  0.00     0.140 A 
ATOM     19  C   UNL d   1      62.357  48.087  49.457  0.00  0.00     0.030 A 
ATOM     20  F   UNL d   1      62.340  46.644  49.391  0.00  0.00    -0.204 F 
ATOM     21  C   UNL d   1      61.978  48.800  49.633  0.00  0.00     0.004 A 
ENDBRANCH  14  15
ENDBRANCH   4  14
BRANCH   9  22
ATOM     22  C   UNL d   1      57.496  49.499  50.275  0.00  0.00     0.019 A 
ATOM     23  C   UNL d   1      57.797  49.336  49.526  0.00  0.00     0.002 A 
ATOM     24  C   UNL d   1      57.284  49.304  48.876  0.00  0.00     0.000 A 
ATOM     25  C   UNL d   1      56.471  49.435  48.977  0.00  0.00     0.000 A 
ATOM     26  C   UNL d   1      56.176  49.599  49.732  0.00  0.00     0.000 A 
ATOM     27  C   UNL d   1      56.685  49.631  50.378  0.00  0.00     0.002 A 
ENDBRANCH   9  22
BRANCH  12  28
ATOM     28  O   UNL d   1      62.202  49.641  52.730  0.00  0.00    -0.326 OA
ATOM     29  C   UNL d   1      62.444  49.214  53.395  0.00  0.00     0.181 C 
ENDBRANCH  12  28
BRANCH  13  30
ATOM     30  O   UNL d   1      60.995  49.684  53.872  0.00  0.00    -0.326 OA
ATOM     31  C   UNL d   1      60.467  49.396  54.441  0.00  0.00     0.181 C 
ENDBRANCH  13  30
TORSDOF 5
ENDMDL
