MODEL 1
REMARK VINA RESULT:      -5.1      0.000      0.000
REMARK  6 active torsions:
REMARK  status: ('A' for Active; 'I' for Inactive)
REMARK    1  A    between atoms: N_2  and  S_1 
REMARK    2  A    between atoms: C_7  and  S_1 
REMARK    3  A    between atoms: C_8  and  N_2 
REMARK    4  A    between atoms: N_3  and  C_9 
REMARK    5  A    between atoms: N_4  and  N_3 
REMARK    6  A    between atoms: C_10  and  N_4 
ROOT
ATOM      1  C   UNL d   1     -41.351-122.562 -50.528  0.00  0.00     0.094 A 
ATOM      2  C   UNL d   1     -41.761-122.592 -52.121  0.00  0.00     0.103 A 
ATOM      3  C   UNL d   1     -41.123-123.200 -51.005  0.00  0.00     0.021 A 
ATOM      4  C   UNL d   1     -41.785-121.941 -50.854  0.00  0.00     0.021 A 
ATOM      5  C   UNL d   1     -41.995-121.948 -51.656  0.00  0.00     0.022 A 
ATOM      6  C   UNL d   1     -41.327-123.213 -51.796  0.00  0.00     0.022 A 
ENDROOT
BRANCH   1   7
ATOM      7  N   UNL d   1     -41.147-122.545 -49.730  0.00  0.00    -0.158 NA
BRANCH   7   8
ATOM      8  S   UNL d   1     -41.671-122.851 -49.171  0.00  0.00     0.285 S 
ATOM      9  O   UNL d   1     -41.215-123.537 -49.132  0.00  0.00    -0.198 OA
ATOM     10  O   UNL d   1     -42.127-122.164 -49.210  0.00  0.00    -0.198 OA
BRANCH   8  11
ATOM     11  C   UNL d   1     -42.185-123.171 -48.611  0.00  0.00     0.105 A 
ATOM     12  C   UNL d   1     -41.930-123.246 -47.824  0.00  0.00     0.013 A 
ATOM     13  C   UNL d   1     -42.437-123.565 -47.258  0.00  0.00     0.001 A 
ATOM     14  C   UNL d   1     -43.194-123.809 -47.472  0.00  0.00     0.000 A 
ATOM     15  C   UNL d   1     -43.448-123.734 -48.259  0.00  0.00     0.001 A 
ATOM     16  C   UNL d   1     -42.941-123.415 -48.825  0.00  0.00     0.013 A 
ENDBRANCH   8  11
ENDBRANCH   7   8
ENDBRANCH   1   7
BRANCH   2  17
ATOM     17  N   UNL d   1     -41.964-122.611 -52.922  0.00  0.00    -0.148 NA
BRANCH  17  18
ATOM     18  N   UNL d   1     -41.563-122.126 -53.457  0.00  0.00    -0.148 NA
BRANCH  18  19
ATOM     19  C   UNL d   1     -41.811-122.096 -54.245  0.00  0.00     0.103 A 
ATOM     20  C   UNL d   1     -42.568-121.846 -54.435  0.00  0.00     0.021 A 
ATOM     21  C   UNL d   1     -42.814-121.816 -55.212  0.00  0.00     0.002 A 
ATOM     22  C   UNL d   1     -42.296-122.038 -55.814  0.00  0.00     0.000 A 
ATOM     23  C   UNL d   1     -41.532-122.291 -55.640  0.00  0.00     0.002 A 
ATOM     24  C   UNL d   1     -41.293-122.318 -54.848  0.00  0.00     0.021 A 
ENDBRANCH  18  19
ENDBRANCH  17  18
ENDBRANCH   2  17
TORSDOF 6
ENDMDL
MODEL 2
REMARK VINA RESULT:      -4.7      1.745      5.606
REMARK  6 active torsions:
REMARK  status: ('A' for Active; 'I' for Inactive)
REMARK    1  A    between atoms: N_2  and  S_1 
REMARK    2  A    between atoms: C_7  and  S_1 
REMARK    3  A    between atoms: C_8  and  N_2 
REMARK    4  A    between atoms: N_3  and  C_9 
REMARK    5  A    between atoms: N_4  and  N_3 
REMARK    6  A    between atoms: C_10  and  N_4 
ROOT
ATOM      1  C   UNL d   1     -41.368-122.091 -52.376  0.00  0.00     0.094 A 
ATOM      2  C   UNL d   1     -41.856-122.774 -50.961  0.00  0.00     0.103 A 
ATOM      3  C   UNL d   1     -41.627-121.613 -51.750  0.00  0.00     0.021 A 
ATOM      4  C   UNL d   1     -41.356-122.912 -52.288  0.00  0.00     0.021 A 
ATOM      5  C   UNL d   1     -41.600-123.263 -51.578  0.00  0.00     0.022 A 
ATOM      6  C   UNL d   1     -41.869-121.954 -51.049  0.00  0.00     0.022 A 
ENDROOT
BRANCH   1   7
ATOM      7  N   UNL d   1     -41.123-121.752 -53.086  0.00  0.00    -0.158 NA
BRANCH   7   8
ATOM      8  S   UNL d   1     -41.578-121.860 -53.766  0.00  0.00     0.285 S 
ATOM      9  O   UNL d   1     -41.130-122.528 -53.949  0.00  0.00    -0.198 OA
ATOM     10  O   UNL d   1     -42.026-121.192 -53.583  0.00  0.00    -0.198 OA
BRANCH   8  11
ATOM     11  C   UNL d   1     -42.023-121.982 -54.450  0.00  0.00     0.105 A 
ATOM     12  C   UNL d   1     -41.632-122.162 -55.160  0.00  0.00     0.013 A 
ATOM     13  C   UNL d   1     -42.069-122.286 -55.848  0.00  0.00     0.001 A 
ATOM     14  C   UNL d   1     -42.890-122.232 -55.831  0.00  0.00     0.000 A 
ATOM     15  C   UNL d   1     -43.281-122.053 -55.120  0.00  0.00     0.001 A 
ATOM     16  C   UNL d   1     -42.844-121.929 -54.432  0.00  0.00     0.013 A 
ENDBRANCH   8  11
ENDBRANCH   7   8
ENDBRANCH   1   7
BRANCH   2  17
ATOM     17  N   UNL d   1     -42.102-123.112 -50.249  0.00  0.00    -0.148 NA
BRANCH  17  18
ATOM     18  N   UNL d   1     -41.999-122.697 -49.542  0.00  0.00    -0.148 NA
BRANCH  18  19
ATOM     19  C   UNL d   1     -42.159-123.071 -48.822  0.00  0.00     0.103 A 
ATOM     20  C   UNL d   1     -41.547-123.333 -48.344  0.00  0.00     0.021 A 
ATOM     21  C   UNL d   1     -41.701-123.702 -47.634  0.00  0.00     0.002 A 
ATOM     22  C   UNL d   1     -42.482-123.812 -47.392  0.00  0.00     0.000 A 
ATOM     23  C   UNL d   1     -43.109-123.554 -47.861  0.00  0.00     0.002 A 
ATOM     24  C   UNL d   1     -42.940-123.181 -48.580  0.00  0.00     0.021 A 
ENDBRANCH  18  19
ENDBRANCH  17  18
ENDBRANCH   2  17
TORSDOF 6
ENDMDL
