MODEL 1
REMARK VINA RESULT:      -6.4      0.000      0.000
REMARK  8 active torsions:
REMARK  status: ('A' for Active; 'I' for Inactive)
REMARK    1  A    between atoms: C_8  and  N_3 
REMARK    2  A    between atoms: S_7  and  C_5 
REMARK    3  A    between atoms: C_17  and  S_7 
REMARK    4  A    between atoms: C_20  and  C_8 
REMARK    5  A    between atoms: C_9  and  C_17 
REMARK       I    between atoms: N_12  and  C_9 
REMARK    6  A    between atoms: C_11  and  C_13 
REMARK    7  A    between atoms: C_13  and  N_12 
REMARK    8  A    between atoms: O_21  and  C_15 
ROOT
ATOM      1  N   UNL d   1     -45.465  13.709  22.304  0.00  0.00    -0.185 NA
ATOM      2  C   UNL d   1     -46.198  13.956  22.594  0.00  0.00     0.354 A 
ATOM      3  N   UNL d   1     -46.672  13.428  23.019  0.00  0.00    -0.258 N 
ATOM      4  C   UNL d   1     -45.683  12.422  22.861  0.00  0.00     0.040 A 
ATOM      5  C   UNL d   1     -45.207  12.942  22.438  0.00  0.00     0.117 A 
ATOM      6  C   UNL d   1     -46.414  12.661  23.152  0.00  0.00     0.070 A 
ATOM      7  O   UNL d   1     -46.461  14.739  22.458  0.00  0.00    -0.244 OA
ATOM      8  C   UNL d   1     -45.586  11.633  23.084  0.00  0.00     0.004 A 
ATOM      9  C   UNL d   1     -46.774  12.040  23.550  0.00  0.00     0.018 A 
ATOM     10  C   UNL d   1     -46.248  11.394  23.505  0.00  0.00     0.002 A 
ENDROOT
BRANCH   5  11
ATOM     11  S   UNL d   1     -44.472  12.695  22.148  0.00  0.00    -0.062 SA
BRANCH  11  12
ATOM     12  C   UNL d   1     -44.068  13.151  21.595  0.00  0.00     0.099 C 
BRANCH  12  13
ATOM     13  C   UNL d   1     -43.251  13.049  21.499  0.00  0.00     0.286 C 
ATOM     14  N   UNL d   1     -42.765  13.692  21.368  0.00  0.00    -0.206 NA
ATOM     15  O   UNL d   1     -42.921  12.284  21.536  0.00  0.00    -0.265 OA
BRANCH  14  16
ATOM     16  C   UNL d   1     -41.949  13.590  21.272  0.00  0.00     0.104 C 
BRANCH  16  17
ATOM     17  C   UNL d   1     -41.467  14.232  21.106  0.00  0.00     0.042 A 
ATOM     18  C   UNL d   1     -40.662  14.213  21.297  0.00  0.00     0.096 A 
ATOM     19  C   UNL d   1     -40.180  14.859  21.129  0.00  0.00     0.024 A 
ATOM     20  C   UNL d   1     -40.492  15.530  20.772  0.00  0.00     0.002 A 
ATOM     21  C   UNL d   1     -41.297  15.561  20.577  0.00  0.00     0.000 A 
ATOM     22  C   UNL d   1     -41.791  14.910  20.743  0.00  0.00     0.004 A 
BRANCH  18  23
ATOM     23  O   UNL d   1     -40.338  13.538  21.658  0.00  0.00    -0.328 OA
ATOM     24  C   UNL d   1     -39.554  13.564  21.928  0.00  0.00     0.181 C 
ENDBRANCH  18  23
ENDBRANCH  16  17
ENDBRANCH  14  16
ENDBRANCH  12  13
ENDBRANCH  11  12
ENDBRANCH   5  11
BRANCH   3  25
ATOM     25  C   UNL d   1     -47.407  13.675  23.309  0.00  0.00     0.085 C 
BRANCH  25  26
ATOM     26  C   UNL d   1     -48.036  13.797  22.785  0.00  0.00     0.021 A 
ATOM     27  C   UNL d   1     -48.366  13.159  22.389  0.00  0.00     0.022 A 
ATOM     28  C   UNL d   1     -48.994  13.290  21.868  0.00  0.00     0.099 A 
ATOM     29  N   UNL d   1     -49.288  14.050  21.745  0.00  0.00    -0.242 NA
ATOM     30  C   UNL d   1     -48.954  14.680  22.143  0.00  0.00     0.099 A 
ATOM     31  C   UNL d   1     -48.317  14.559  22.674  0.00  0.00     0.022 A 
ENDBRANCH  25  26
ENDBRANCH   3  25
TORSDOF 8
ENDMDL
MODEL 2
REMARK VINA RESULT:      -6.2      2.114      6.803
REMARK  8 active torsions:
REMARK  status: ('A' for Active; 'I' for Inactive)
REMARK    1  A    between atoms: C_8  and  N_3 
REMARK    2  A    between atoms: S_7  and  C_5 
REMARK    3  A    between atoms: C_17  and  S_7 
REMARK    4  A    between atoms: C_20  and  C_8 
REMARK    5  A    between atoms: C_9  and  C_17 
REMARK       I    between atoms: N_12  and  C_9 
REMARK    6  A    between atoms: C_11  and  C_13 
REMARK    7  A    between atoms: C_13  and  N_12 
REMARK    8  A    between atoms: O_21  and  C_15 
ROOT
ATOM      1  N   UNL d   1     -41.721  13.684  19.890  0.00  0.00    -0.185 NA
ATOM      2  C   UNL d   1     -41.194  14.046  19.365  0.00  0.00     0.354 A 
ATOM      3  N   UNL d   1     -40.508  14.406  19.656  0.00  0.00    -0.258 N 
ATOM      4  C   UNL d   1     -40.880  14.041  20.976  0.00  0.00     0.040 A 
ATOM      5  C   UNL d   1     -41.564  13.681  20.695  0.00  0.00     0.117 A 
ATOM      6  C   UNL d   1     -40.351  14.403  20.460  0.00  0.00     0.070 A 
ATOM      7  O   UNL d   1     -41.355  14.049  18.544  0.00  0.00    -0.244 OA
ATOM      8  C   UNL d   1     -40.569  14.131  21.735  0.00  0.00     0.004 A 
ATOM      9  C   UNL d   1     -39.720  14.716  20.880  0.00  0.00     0.018 A 
ATOM     10  C   UNL d   1     -39.862  14.543  21.684  0.00  0.00     0.002 A 
ENDROOT
BRANCH   5  11
ATOM     11  S   UNL d   1     -42.092  13.319  21.219  0.00  0.00    -0.062 SA
BRANCH  11  12
ATOM     12  C   UNL d   1     -42.896  13.291  21.047  0.00  0.00     0.099 C 
BRANCH  12  13
ATOM     13  C   UNL d   1     -43.402  12.845  21.529  0.00  0.00     0.286 C 
ATOM     14  N   UNL d   1     -44.144  13.125  21.722  0.00  0.00    -0.206 NA
ATOM     15  O   UNL d   1     -43.152  12.104  21.821  0.00  0.00    -0.265 OA
BRANCH  14  16
ATOM     16  C   UNL d   1     -44.650  12.680  22.204  0.00  0.00     0.104 C 
BRANCH  16  17
ATOM     17  C   UNL d   1     -45.355  13.001  22.473  0.00  0.00     0.042 A 
ATOM     18  C   UNL d   1     -45.824  12.586  23.015  0.00  0.00     0.096 A 
ATOM     19  C   UNL d   1     -46.532  12.910  23.284  0.00  0.00     0.024 A 
ATOM     20  C   UNL d   1     -46.780  13.646  23.019  0.00  0.00     0.002 A 
ATOM     21  C   UNL d   1     -46.319  14.071  22.477  0.00  0.00     0.000 A 
ATOM     22  C   UNL d   1     -45.601  13.750  22.200  0.00  0.00     0.004 A 
BRANCH  18  23
ATOM     23  O   UNL d   1     -45.580  11.840  23.289  0.00  0.00    -0.328 OA
ATOM     24  C   UNL d   1     -46.123  11.364  23.698  0.00  0.00     0.181 C 
ENDBRANCH  18  23
ENDBRANCH  16  17
ENDBRANCH  14  16
ENDBRANCH  12  13
ENDBRANCH  11  12
ENDBRANCH   5  11
BRANCH   3  25
ATOM     25  C   UNL d   1     -39.980  14.769  19.131  0.00  0.00     0.085 C 
BRANCH  25  26
ATOM     26  C   UNL d   1     -39.493  14.303  18.650  0.00  0.00     0.021 A 
ATOM     27  C   UNL d   1     -38.798  13.992  18.955  0.00  0.00     0.022 A 
ATOM     28  C   UNL d   1     -38.318  13.529  18.467  0.00  0.00     0.099 A 
ATOM     29  N   UNL d   1     -38.531  13.379  17.685  0.00  0.00    -0.242 NA
ATOM     30  C   UNL d   1     -39.224  13.692  17.390  0.00  0.00     0.099 A 
ATOM     31  C   UNL d   1     -39.719  14.164  17.874  0.00  0.00     0.022 A 
ENDBRANCH  25  26
ENDBRANCH   3  25
TORSDOF 8
ENDMDL
MODEL 3
REMARK VINA RESULT:      -5.7      1.321      1.878
REMARK  8 active torsions:
REMARK  status: ('A' for Active; 'I' for Inactive)
REMARK    1  A    between atoms: C_8  and  N_3 
REMARK    2  A    between atoms: S_7  and  C_5 
REMARK    3  A    between atoms: C_17  and  S_7 
REMARK    4  A    between atoms: C_20  and  C_8 
REMARK    5  A    between atoms: C_9  and  C_17 
REMARK       I    between atoms: N_12  and  C_9 
REMARK    6  A    between atoms: C_11  and  C_13 
REMARK    7  A    between atoms: C_13  and  N_12 
REMARK    8  A    between atoms: O_21  and  C_15 
ROOT
ATOM      1  N   UNL d   1     -45.238  12.328  22.600  0.00  0.00    -0.185 NA
ATOM      2  C   UNL d   1     -45.886  12.125  23.071  0.00  0.00     0.354 A 
ATOM      3  N   UNL d   1     -46.474  12.687  23.225  0.00  0.00    -0.258 N 
ATOM      4  C   UNL d   1     -45.766  13.636  22.443  0.00  0.00     0.040 A 
ATOM      5  C   UNL d   1     -45.178  13.083  22.286  0.00  0.00     0.117 A 
ATOM      6  C   UNL d   1     -46.414  13.442  22.911  0.00  0.00     0.070 A 
ATOM      7  O   UNL d   1     -45.947  11.354  23.391  0.00  0.00    -0.244 OA
ATOM      8  C   UNL d   1     -45.867  14.423  22.216  0.00  0.00     0.004 A 
ATOM      9  C   UNL d   1     -46.914  14.088  22.981  0.00  0.00     0.018 A 
ATOM     10  C   UNL d   1     -46.565  14.705  22.541  0.00  0.00     0.002 A 
ENDROOT
BRANCH   5  11
ATOM     11  S   UNL d   1     -44.529  13.286  21.814  0.00  0.00    -0.062 SA
BRANCH  11  12
ATOM     12  C   UNL d   1     -43.838  12.841  21.844  0.00  0.00     0.099 C 
BRANCH  12  13
ATOM     13  C   UNL d   1     -43.279  12.912  21.235  0.00  0.00     0.286 C 
ATOM     14  N   UNL d   1     -42.601  13.352  21.344  0.00  0.00    -0.206 NA
ATOM     15  O   UNL d   1     -43.410  12.529  20.505  0.00  0.00    -0.265 OA
BRANCH  14  16
ATOM     16  C   UNL d   1     -42.043  13.423  20.736  0.00  0.00     0.104 C 
BRANCH  16  17
ATOM     17  C   UNL d   1     -41.345  13.835  20.860  0.00  0.00     0.042 A 
ATOM     18  C   UNL d   1     -40.915  14.134  20.218  0.00  0.00     0.096 A 
ATOM     19  C   UNL d   1     -40.214  14.547  20.344  0.00  0.00     0.024 A 
ATOM     20  C   UNL d   1     -39.933  14.668  21.107  0.00  0.00     0.002 A 
ATOM     21  C   UNL d   1     -40.355  14.373  21.757  0.00  0.00     0.000 A 
ATOM     22  C   UNL d   1     -41.065  13.954  21.637  0.00  0.00     0.004 A 
BRANCH  18  23
ATOM     23  O   UNL d   1     -41.191  14.016  19.443  0.00  0.00    -0.328 OA
ATOM     24  C   UNL d   1     -40.729  14.279  18.806  0.00  0.00     0.181 C 
ENDBRANCH  18  23
ENDBRANCH  16  17
ENDBRANCH  14  16
ENDBRANCH  12  13
ENDBRANCH  11  12
ENDBRANCH   5  11
BRANCH   3  25
ATOM     25  C   UNL d   1     -47.123  12.484  23.697  0.00  0.00     0.085 C 
BRANCH  25  26
ATOM     26  C   UNL d   1     -47.793  12.143  23.351  0.00  0.00     0.021 A 
ATOM     27  C   UNL d   1     -47.731  11.422  22.965  0.00  0.00     0.022 A 
ATOM     28  C   UNL d   1     -48.405  11.090  22.622  0.00  0.00     0.099 A 
ATOM     29  N   UNL d   1     -49.133  11.474  22.665  0.00  0.00    -0.242 NA
ATOM     30  C   UNL d   1     -49.187  12.191  23.051  0.00  0.00     0.099 A 
ATOM     31  C   UNL d   1     -48.510  12.539  23.403  0.00  0.00     0.022 A 
ENDBRANCH  25  26
ENDBRANCH   3  25
TORSDOF 8
ENDMDL
