MODEL 1
REMARK VINA RESULT:      -5.0      0.000      0.000
REMARK  1 active torsions:
REMARK  status: ('A' for Active; 'I' for Inactive)
REMARK    1  A    between atoms: N_3  and  C_1 
ROOT
ATOM      1  C   UNL d   1      56.583   0.095  32.405  0.00  0.00     0.158 A 
ATOM      2  C   UNL d   1      56.616  -0.695  32.158  0.00  0.00     0.103 A 
ATOM      3  C   UNL d   1      56.249  -1.289  32.600  0.00  0.00     0.104 C 
ATOM      4  N   UNL d   1      55.882  -1.876  33.044  0.00  0.00    -0.191 NA
ATOM      5  N   UNL d   1      56.952   0.682  31.958  0.00  0.00    -0.226 NA
ATOM      6  C   UNL d   1      57.017  -0.893  31.465  0.00  0.00     0.015 A 
ATOM      7  C   UNL d   1      57.351   0.483  31.267  0.00  0.00     0.101 A 
ATOM      8  C   UNL d   1      57.384  -0.307  31.020  0.00  0.00     0.021 A 
ENDROOT
BRANCH   1   9
ATOM      9  N   UNL d   1      56.183   0.290  33.095  0.00  0.00    -0.286 N 
ATOM     10  C   UNL d   1      56.607   0.408  33.797  0.00  0.00     0.102 A 
ATOM     11  C   UNL d   1      56.208   0.603  34.485  0.00  0.00     0.118 A 
ATOM     12  N   UNL d   1      55.391   0.682  34.484  0.00  0.00    -0.239 NA
ATOM     13  C   UNL d   1      54.970   0.565  33.785  0.00  0.00     0.118 A 
ATOM     14  C   UNL d   1      55.365   0.368  33.089  0.00  0.00     0.102 A 
ENDBRANCH   1   9
TORSDOF 1
ENDMDL
MODEL 2
REMARK VINA RESULT:      -4.3      0.895      2.884
REMARK  1 active torsions:
REMARK  status: ('A' for Active; 'I' for Inactive)
REMARK    1  A    between atoms: N_3  and  C_1 
ROOT
ATOM      1  C   UNL d   1      55.995   0.229  33.024  0.00  0.00     0.158 A 
ATOM      2  C   UNL d   1      56.383   0.489  33.707  0.00  0.00     0.103 A 
ATOM      3  C   UNL d   1      57.204   0.586  33.713  0.00  0.00     0.104 C 
ATOM      4  N   UNL d   1      58.020   0.681  33.713  0.00  0.00    -0.191 NA
ATOM      5  N   UNL d   1      55.175   0.134  33.026  0.00  0.00    -0.226 NA
ATOM      6  C   UNL d   1      55.949   0.653  34.390  0.00  0.00     0.015 A 
ATOM      7  C   UNL d   1      54.744   0.298  33.707  0.00  0.00     0.101 A 
ATOM      8  C   UNL d   1      55.132   0.558  34.391  0.00  0.00     0.021 A 
ENDROOT
BRANCH   1   9
ATOM      9  N   UNL d   1      56.428   0.067  32.346  0.00  0.00    -0.286 N 
ATOM     10  C   UNL d   1      56.621  -0.717  32.158  0.00  0.00     0.102 A 
ATOM     11  C   UNL d   1      57.053  -0.878  31.482  0.00  0.00     0.118 A 
ATOM     12  N   UNL d   1      57.296  -0.270  30.988  0.00  0.00    -0.239 NA
ATOM     13  C   UNL d   1      57.104   0.509  31.174  0.00  0.00     0.118 A 
ATOM     14  C   UNL d   1      56.669   0.679  31.854  0.00  0.00     0.102 A 
ENDBRANCH   1   9
TORSDOF 1
ENDMDL
MODEL 3
REMARK VINA RESULT:      -4.1      1.035      1.684
REMARK  1 active torsions:
REMARK  status: ('A' for Active; 'I' for Inactive)
REMARK    1  A    between atoms: N_3  and  C_1 
ROOT
ATOM      1  C   UNL d   1      57.017   0.164  31.937  0.00  0.00     0.158 A 
ATOM      2  C   UNL d   1      57.710   0.473  32.267  0.00  0.00     0.103 A 
ATOM      3  C   UNL d   1      57.775   0.578  33.085  0.00  0.00     0.104 C 
ATOM      4  N   UNL d   1      57.835   0.679  33.898  0.00  0.00    -0.191 NA
ATOM      5  N   UNL d   1      56.959   0.063  31.120  0.00  0.00    -0.226 NA
ATOM      6  C   UNL d   1      58.342   0.680  31.779  0.00  0.00     0.015 A 
ATOM      7  C   UNL d   1      57.590   0.269  30.635  0.00  0.00     0.101 A 
ATOM      8  C   UNL d   1      58.284   0.579  30.965  0.00  0.00     0.021 A 
ENDROOT
BRANCH   1   9
ATOM      9  N   UNL d   1      56.389  -0.041  32.424  0.00  0.00    -0.286 N 
ATOM     10  C   UNL d   1      56.257  -0.836  32.613  0.00  0.00     0.102 A 
ATOM     11  C   UNL d   1      55.630  -1.041  33.099  0.00  0.00     0.118 A 
ATOM     12  N   UNL d   1      55.132  -0.463  33.400  0.00  0.00    -0.239 NA
ATOM     13  C   UNL d   1      55.263   0.329  33.213  0.00  0.00     0.118 A 
ATOM     14  C   UNL d   1      55.893   0.541  32.724  0.00  0.00     0.102 A 
ENDBRANCH   1   9
TORSDOF 1
ENDMDL
MODEL 4
REMARK VINA RESULT:      -3.7      0.894      2.570
REMARK  1 active torsions:
REMARK  status: ('A' for Active; 'I' for Inactive)
REMARK    1  A    between atoms: N_3  and  C_1 
ROOT
ATOM      1  C   UNL d   1      56.283   0.109  32.838  0.00  0.00     0.158 A 
ATOM      2  C   UNL d   1      55.977  -0.660  32.833  0.00  0.00     0.103 A 
ATOM      3  C   UNL d   1      56.306  -1.240  32.343  0.00  0.00     0.104 C 
ATOM      4  N   UNL d   1      56.637  -1.812  31.854  0.00  0.00    -0.191 NA
ATOM      5  N   UNL d   1      55.950   0.682  33.329  0.00  0.00    -0.226 NA
ATOM      6  C   UNL d   1      55.340  -0.853  33.319  0.00  0.00     0.015 A 
ATOM      7  C   UNL d   1      55.314   0.488  33.814  0.00  0.00     0.101 A 
ATOM      8  C   UNL d   1      55.008  -0.281  33.809  0.00  0.00     0.021 A 
ENDROOT
BRANCH   1   9
ATOM      9  N   UNL d   1      56.918   0.299  32.353  0.00  0.00    -0.286 N 
ATOM     10  C   UNL d   1      56.786   0.491  31.558  0.00  0.00     0.102 A 
ATOM     11  C   UNL d   1      57.419   0.681  31.075  0.00  0.00     0.118 A 
ATOM     12  N   UNL d   1      58.184   0.682  31.372  0.00  0.00    -0.239 NA
ATOM     13  C   UNL d   1      58.315   0.491  32.163  0.00  0.00     0.118 A 
ATOM     14  C   UNL d   1      57.682   0.299  32.655  0.00  0.00     0.102 A 
ENDBRANCH   1   9
TORSDOF 1
ENDMDL
MODEL 5
REMARK VINA RESULT:      -3.4      8.480      9.721
REMARK  1 active torsions:
REMARK  status: ('A' for Active; 'I' for Inactive)
REMARK    1  A    between atoms: N_3  and  C_1 
ROOT
ATOM      1  C   UNL d   1      60.525  -7.683  35.503  0.00  0.00     0.158 A 
ATOM      2  C   UNL d   1      59.832  -7.594  35.947  0.00  0.00     0.103 A 
ATOM      3  C   UNL d   1      59.291  -8.215  36.012  0.00  0.00     0.104 C 
ATOM      4  N   UNL d   1      58.757  -8.837  36.072  0.00  0.00    -0.191 NA
ATOM      5  N   UNL d   1      61.060  -7.058  35.444  0.00  0.00    -0.226 NA
ATOM      6  C   UNL d   1      59.677  -6.879  36.330  0.00  0.00     0.015 A 
ATOM      7  C   UNL d   1      60.905  -6.346  35.826  0.00  0.00     0.101 A 
ATOM      8  C   UNL d   1      60.212  -6.256  36.270  0.00  0.00     0.021 A 
ENDROOT
BRANCH   1   9
ATOM      9  N   UNL d   1      60.677  -8.395  35.124  0.00  0.00    -0.286 N 
ATOM     10  C   UNL d   1      60.522  -8.471  34.314  0.00  0.00     0.102 A 
ATOM     11  C   UNL d   1      60.675  -9.181  33.935  0.00  0.00     0.118 A 
ATOM     12  N   UNL d   1      60.979  -9.818  34.353  0.00  0.00    -0.239 NA
ATOM     13  C   UNL d   1      61.133  -9.742  35.159  0.00  0.00     0.118 A 
ATOM     14  C   UNL d   1      60.983  -9.030  35.546  0.00  0.00     0.102 A 
ENDBRANCH   1   9
TORSDOF 1
ENDMDL
MODEL 6
REMARK VINA RESULT:      -2.7      9.446      9.971
REMARK  1 active torsions:
REMARK  status: ('A' for Active; 'I' for Inactive)
REMARK    1  A    between atoms: N_3  and  C_1 
ROOT
ATOM      1  C   UNL d   1      59.968  -9.308  33.996  0.00  0.00     0.158 A 
ATOM      2  C   UNL d   1      59.465  -9.564  33.390  0.00  0.00     0.103 A 
ATOM      3  C   UNL d   1      58.661  -9.689  33.537  0.00  0.00     0.104 C 
ATOM      4  N   UNL d   1      57.862  -9.811  33.688  0.00  0.00    -0.191 NA
ATOM      5  N   UNL d   1      60.769  -9.186  33.842  0.00  0.00    -0.226 NA
ATOM      6  C   UNL d   1      59.765  -9.696  32.633  0.00  0.00     0.015 A 
ATOM      7  C   UNL d   1      61.068  -9.318  33.087  0.00  0.00     0.101 A 
ATOM      8  C   UNL d   1      60.565  -9.574  32.481  0.00  0.00     0.021 A 
ENDROOT
BRANCH   1   9
ATOM      9  N   UNL d   1      59.667  -9.177  34.748  0.00  0.00    -0.286 N 
ATOM     10  C   UNL d   1      59.467  -8.409  34.984  0.00  0.00     0.102 A 
ATOM     11  C   UNL d   1      59.167  -8.278  35.735  0.00  0.00     0.118 A 
ATOM     12  N   UNL d   1      59.062  -8.904  36.255  0.00  0.00    -0.239 NA
ATOM     13  C   UNL d   1      59.261  -9.668  36.021  0.00  0.00     0.118 A 
ATOM     14  C   UNL d   1      59.564  -9.807  35.266  0.00  0.00     0.102 A 
ENDBRANCH   1   9
TORSDOF 1
ENDMDL
MODEL 7
REMARK VINA RESULT:      -2.6      3.871      5.231
REMARK  1 active torsions:
REMARK  status: ('A' for Active; 'I' for Inactive)
REMARK    1  A    between atoms: N_3  and  C_1 
ROOT
ATOM      1  C   UNL d   1      59.181  -1.944  29.035  0.00  0.00     0.158 A 
ATOM      2  C   UNL d   1      60.006  -2.004  29.080  0.00  0.00     0.103 A 
ATOM      3  C   UNL d   1      60.470  -1.331  29.202  0.00  0.00     0.104 C 
ATOM      4  N   UNL d   1      60.926  -0.659  29.323  0.00  0.00    -0.191 NA
ATOM      5  N   UNL d   1      58.724  -2.620  28.913  0.00  0.00    -0.226 NA
ATOM      6  C   UNL d   1      60.370  -2.741  29.003  0.00  0.00     0.015 A 
ATOM      7  C   UNL d   1      59.089  -3.354  28.837  0.00  0.00     0.101 A 
ATOM      8  C   UNL d   1      59.913  -3.414  28.882  0.00  0.00     0.021 A 
ENDROOT
BRANCH   1   9
ATOM      9  N   UNL d   1      58.821  -1.211  29.112  0.00  0.00    -0.286 N 
ATOM     10  C   UNL d   1      58.535  -0.968  29.850  0.00  0.00     0.102 A 
ATOM     11  C   UNL d   1      58.175  -0.235  29.926  0.00  0.00     0.118 A 
ATOM     12  N   UNL d   1      58.096   0.259  29.277  0.00  0.00    -0.239 NA
ATOM     13  C   UNL d   1      58.381   0.017  28.542  0.00  0.00     0.118 A 
ATOM     14  C   UNL d   1      58.744  -0.719  28.458  0.00  0.00     0.102 A 
ENDBRANCH   1   9
TORSDOF 1
ENDMDL
MODEL 8
REMARK VINA RESULT:      -2.3      4.068      5.453
REMARK  1 active torsions:
REMARK  status: ('A' for Active; 'I' for Inactive)
REMARK    1  A    between atoms: N_3  and  C_1 
ROOT
ATOM      1  C   UNL d   1      59.685  -1.506  28.952  0.00  0.00     0.158 A 
ATOM      2  C   UNL d   1      58.914  -1.599  29.240  0.00  0.00     0.103 A 
ATOM      3  C   UNL d   1      58.516  -0.963  29.587  0.00  0.00     0.104 C 
ATOM      4  N   UNL d   1      58.126  -0.327  29.932  0.00  0.00    -0.191 NA
ATOM      5  N   UNL d   1      60.075  -2.145  28.606  0.00  0.00    -0.226 NA
ATOM      6  C   UNL d   1      58.537  -2.330  29.181  0.00  0.00     0.015 A 
ATOM      7  C   UNL d   1      59.699  -2.874  28.548  0.00  0.00     0.101 A 
ATOM      8  C   UNL d   1      58.928  -2.967  28.836  0.00  0.00     0.021 A 
ENDROOT
BRANCH   1   9
ATOM      9  N   UNL d   1      60.058  -0.777  29.012  0.00  0.00    -0.286 N 
ATOM     10  C   UNL d   1      60.585  -0.634  29.634  0.00  0.00     0.102 A 
ATOM     11  C   UNL d   1      60.957   0.093  29.694  0.00  0.00     0.118 A 
ATOM     12  N   UNL d   1      60.811   0.681  29.140  0.00  0.00    -0.239 NA
ATOM     13  C   UNL d   1      60.287   0.538  28.521  0.00  0.00     0.118 A 
ATOM     14  C   UNL d   1      59.909  -0.191  28.455  0.00  0.00     0.102 A 
ENDBRANCH   1   9
TORSDOF 1
ENDMDL
MODEL 9
REMARK VINA RESULT:      -2.2      1.926      3.256
REMARK  1 active torsions:
REMARK  status: ('A' for Active; 'I' for Inactive)
REMARK    1  A    between atoms: N_3  and  C_1 
ROOT
ATOM      1  C   UNL d   1      58.193   0.181  30.059  0.00  0.00     0.158 A 
ATOM      2  C   UNL d   1      58.949   0.481  30.209  0.00  0.00     0.103 A 
ATOM      3  C   UNL d   1      59.214   0.583  30.986  0.00  0.00     0.104 C 
ATOM      4  N   UNL d   1      59.472   0.682  31.760  0.00  0.00    -0.191 NA
ATOM      5  N   UNL d   1      57.935   0.082  29.281  0.00  0.00    -0.226 NA
ATOM      6  C   UNL d   1      59.445   0.681  29.581  0.00  0.00     0.015 A 
ATOM      7  C   UNL d   1      58.431   0.282  28.656  0.00  0.00     0.101 A 
ATOM      8  C   UNL d   1      59.188   0.582  28.806  0.00  0.00     0.021 A 
ENDROOT
BRANCH   1   9
ATOM      9  N   UNL d   1      57.701  -0.018  30.685  0.00  0.00    -0.286 N 
ATOM     10  C   UNL d   1      57.352   0.580  31.140  0.00  0.00     0.102 A 
ATOM     11  C   UNL d   1      56.861   0.381  31.765  0.00  0.00     0.118 A 
ATOM     12  N   UNL d   1      56.712  -0.405  31.944  0.00  0.00    -0.239 NA
ATOM     13  C   UNL d   1      57.059  -1.000  31.491  0.00  0.00     0.118 A 
ATOM     14  C   UNL d   1      57.554  -0.807  30.860  0.00  0.00     0.102 A 
ENDBRANCH   1   9
TORSDOF 1
ENDMDL
