MODEL 1
REMARK VINA RESULT:      -7.1      0.000      0.000
REMARK  5 active torsions:
REMARK  status: ('A' for Active; 'I' for Inactive)
REMARK    1  A    between atoms: C_3  and  N_1 
REMARK    2  A    between atoms: C_4  and  N_1 
REMARK    3  A    between atoms: N_7  and  C_3 
REMARK    4  A    between atoms: C_10  and  N_7 
REMARK    5  A    between atoms: C_8  and  C_10 
ROOT
ATOM      1  N   UNL d   1      53.126  32.860  54.274  0.00  0.00    -0.198 NA
ENDROOT
BRANCH   1   2
ATOM      2  C   UNL d   1      53.577  32.338  53.810  0.00  0.00     0.222 C 
ATOM      3  S   UNL d   1      54.316  32.524  53.610  0.00  0.00    -0.037 SA
BRANCH   2   4
ATOM      4  N   UNL d   1      53.256  31.648  53.568  0.00  0.00    -0.216 NA
BRANCH   4   5
ATOM      5  C   UNL d   1      53.678  30.948  53.649  0.00  0.00     0.101 C 
BRANCH   5   6
ATOM      6  C   UNL d   1      53.305  30.216  53.493  0.00  0.00     0.019 C 
ATOM      7  C   UNL d   1      52.905  30.099  52.781  0.00  0.00     0.002 C 
ATOM      8  C   UNL d   1      53.340  29.611  54.053  0.00  0.00     0.002 C 
ENDBRANCH   5   6
ENDBRANCH   4   5
ENDBRANCH   2   4
ENDBRANCH   1   2
BRANCH   1   9
ATOM      9  C   UNL d   1      52.775  33.519  53.925  0.00  0.00     0.167 A 
ATOM     10  N   UNL d   1      52.021  33.463  53.596  0.00  0.00    -0.206 NA
ATOM     11  C   UNL d   1      51.670  34.123  53.247  0.00  0.00     0.185 A 
ATOM     12  N   UNL d   1      50.919  34.054  52.923  0.00  0.00    -0.127 N 
ATOM     13  C   UNL d   1      52.075  34.839  53.227  0.00  0.00     0.041 A 
ATOM     14  C   UNL d   1      52.836  34.902  53.557  0.00  0.00     0.006 A 
ATOM     15  C   UNL d   1      53.184  34.235  53.907  0.00  0.00     0.039 A 
ENDBRANCH   1   9
TORSDOF 5
ENDMDL
MODEL 2
REMARK VINA RESULT:      -6.8      1.677      3.864
REMARK  5 active torsions:
REMARK  status: ('A' for Active; 'I' for Inactive)
REMARK    1  A    between atoms: C_3  and  N_1 
REMARK    2  A    between atoms: C_4  and  N_1 
REMARK    3  A    between atoms: N_7  and  C_3 
REMARK    4  A    between atoms: C_10  and  N_7 
REMARK    5  A    between atoms: C_8  and  C_10 
ROOT
ATOM      1  N   UNL d   1      53.891  31.468  53.330  0.00  0.00    -0.198 NA
ENDROOT
BRANCH   1   2
ATOM      2  C   UNL d   1      53.526  32.184  53.542  0.00  0.00     0.222 C 
ATOM      3  S   UNL d   1      52.964  32.493  53.085  0.00  0.00    -0.037 SA
BRANCH   2   4
ATOM      4  N   UNL d   1      53.749  32.556  54.213  0.00  0.00    -0.216 NA
BRANCH   4   5
ATOM      5  C   UNL d   1      54.058  33.315  54.178  0.00  0.00     0.101 C 
BRANCH   5   6
ATOM      6  C   UNL d   1      54.288  33.706  54.881  0.00  0.00     0.019 C 
ATOM      7  C   UNL d   1      53.738  34.155  55.302  0.00  0.00     0.002 C 
ATOM      8  C   UNL d   1      55.064  33.640  55.152  0.00  0.00     0.002 C 
ENDBRANCH   5   6
ENDBRANCH   4   5
ENDBRANCH   2   4
ENDBRANCH   1   2
BRANCH   1   9
ATOM      9  C   UNL d   1      53.479  30.759  53.412  0.00  0.00     0.167 A 
ATOM     10  N   UNL d   1      53.647  30.251  54.040  0.00  0.00    -0.206 NA
ATOM     11  C   UNL d   1      53.235  29.542  54.123  0.00  0.00     0.185 A 
ATOM     12  N   UNL d   1      53.412  29.046  54.752  0.00  0.00    -0.127 N 
ATOM     13  C   UNL d   1      52.654  29.340  53.576  0.00  0.00     0.041 A 
ATOM     14  C   UNL d   1      52.480  29.847  52.940  0.00  0.00     0.006 A 
ATOM     15  C   UNL d   1      52.898  30.560  52.862  0.00  0.00     0.039 A 
ENDBRANCH   1   9
TORSDOF 5
ENDMDL
MODEL 3
REMARK VINA RESULT:      -6.6      1.428      1.768
REMARK  5 active torsions:
REMARK  status: ('A' for Active; 'I' for Inactive)
REMARK    1  A    between atoms: C_3  and  N_1 
REMARK    2  A    between atoms: C_4  and  N_1 
REMARK    3  A    between atoms: N_7  and  C_3 
REMARK    4  A    between atoms: C_10  and  N_7 
REMARK    5  A    between atoms: C_8  and  C_10 
ROOT
ATOM      1  N   UNL d   1      53.830  32.674  53.262  0.00  0.00    -0.198 NA
ENDROOT
BRANCH   1   2
ATOM      2  C   UNL d   1      53.173  32.166  53.230  0.00  0.00     0.222 C 
ATOM      3  S   UNL d   1      52.489  32.421  52.935  0.00  0.00    -0.037 SA
BRANCH   2   4
ATOM      4  N   UNL d   1      53.240  31.418  53.501  0.00  0.00    -0.216 NA
BRANCH   4   5
ATOM      5  C   UNL d   1      52.988  30.789  53.037  0.00  0.00     0.101 C 
BRANCH   5   6
ATOM      6  C   UNL d   1      52.996  30.012  53.347  0.00  0.00     0.019 C 
ATOM      7  C   UNL d   1      53.686  29.709  53.683  0.00  0.00     0.002 C 
ATOM      8  C   UNL d   1      52.313  29.551  53.314  0.00  0.00     0.002 C 
ENDBRANCH   5   6
ENDBRANCH   4   5
ENDBRANCH   2   4
ENDBRANCH   1   2
BRANCH   1   9
ATOM      9  C   UNL d   1      53.918  33.190  53.899  0.00  0.00     0.167 A 
ATOM     10  N   UNL d   1      53.459  33.875  53.945  0.00  0.00    -0.206 NA
ATOM     11  C   UNL d   1      53.547  34.391  54.582  0.00  0.00     0.185 A 
ATOM     12  N   UNL d   1      53.084  35.068  54.615  0.00  0.00    -0.127 N 
ATOM     13  C   UNL d   1      54.094  34.222  55.173  0.00  0.00     0.041 A 
ATOM     14  C   UNL d   1      54.559  33.534  55.132  0.00  0.00     0.006 A 
ATOM     15  C   UNL d   1      54.467  33.018  54.489  0.00  0.00     0.039 A 
ENDBRANCH   1   9
TORSDOF 5
ENDMDL
MODEL 4
REMARK VINA RESULT:      -6.6      1.734      3.314
REMARK  5 active torsions:
REMARK  status: ('A' for Active; 'I' for Inactive)
REMARK    1  A    between atoms: C_3  and  N_1 
REMARK    2  A    between atoms: C_4  and  N_1 
REMARK    3  A    between atoms: N_7  and  C_3 
REMARK    4  A    between atoms: C_10  and  N_7 
REMARK    5  A    between atoms: C_8  and  C_10 
ROOT
ATOM      1  N   UNL d   1      53.759  32.626  53.230  0.00  0.00    -0.198 NA
ENDROOT
BRANCH   1   2
ATOM      2  C   UNL d   1      52.942  32.547  53.100  0.00  0.00     0.222 C 
ATOM      3  S   UNL d   1      52.616  31.831  53.047  0.00  0.00    -0.037 SA
BRANCH   2   4
ATOM      4  N   UNL d   1      52.488  33.200  53.030  0.00  0.00    -0.216 NA
BRANCH   4   5
ATOM      5  C   UNL d   1      51.783  33.168  52.611  0.00  0.00     0.101 C 
BRANCH   5   6
ATOM      6  C   UNL d   1      51.329  33.861  52.502  0.00  0.00     0.019 C 
ATOM      7  C   UNL d   1      50.744  34.061  53.049  0.00  0.00     0.002 C 
ATOM      8  C   UNL d   1      51.467  34.344  51.849  0.00  0.00     0.002 C 
ENDBRANCH   5   6
ENDBRANCH   4   5
ENDBRANCH   2   4
ENDBRANCH   1   2
BRANCH   1   9
ATOM      9  C   UNL d   1      54.039  32.783  53.989  0.00  0.00     0.167 A 
ATOM     10  N   UNL d   1      54.582  33.392  54.113  0.00  0.00    -0.206 NA
ATOM     11  C   UNL d   1      54.863  33.549  54.873  0.00  0.00     0.185 A 
ATOM     12  N   UNL d   1      55.403  34.157  54.983  0.00  0.00    -0.127 N 
ATOM     13  C   UNL d   1      54.599  33.098  55.508  0.00  0.00     0.041 A 
ATOM     14  C   UNL d   1      54.052  32.483  55.389  0.00  0.00     0.006 A 
ATOM     15  C   UNL d   1      53.773  32.329  54.623  0.00  0.00     0.039 A 
ENDBRANCH   1   9
TORSDOF 5
ENDMDL
MODEL 5
REMARK VINA RESULT:      -6.6      1.157      3.597
REMARK  5 active torsions:
REMARK  status: ('A' for Active; 'I' for Inactive)
REMARK    1  A    between atoms: C_3  and  N_1 
REMARK    2  A    between atoms: C_4  and  N_1 
REMARK    3  A    between atoms: N_7  and  C_3 
REMARK    4  A    between atoms: C_10  and  N_7 
REMARK    5  A    between atoms: C_8  and  C_10 
ROOT
ATOM      1  N   UNL d   1      53.090  32.813  52.904  0.00  0.00    -0.198 NA
ENDROOT
BRANCH   1   2
ATOM      2  C   UNL d   1      52.562  33.309  53.312  0.00  0.00     0.222 C 
ATOM      3  S   UNL d   1      52.788  33.671  53.973  0.00  0.00    -0.037 SA
BRANCH   2   4
ATOM      4  N   UNL d   1      51.823  33.416  53.028  0.00  0.00    -0.216 NA
BRANCH   4   5
ATOM      5  C   UNL d   1      51.543  34.174  52.884  0.00  0.00     0.101 C 
BRANCH   5   6
ATOM      6  C   UNL d   1      50.791  34.283  52.536  0.00  0.00     0.019 C 
ATOM      7  C   UNL d   1      50.704  34.227  51.717  0.00  0.00     0.002 C 
ATOM      8  C   UNL d   1      50.138  34.447  53.012  0.00  0.00     0.002 C 
ENDBRANCH   5   6
ENDBRANCH   4   5
ENDBRANCH   2   4
ENDBRANCH   1   2
BRANCH   1   9
ATOM      9  C   UNL d   1      53.209  32.040  53.164  0.00  0.00     0.167 A 
ATOM     10  N   UNL d   1      52.840  31.411  52.778  0.00  0.00    -0.206 NA
ATOM     11  C   UNL d   1      52.958  30.638  53.038  0.00  0.00     0.185 A 
ATOM     12  N   UNL d   1      52.586  30.021  52.645  0.00  0.00    -0.127 N 
ATOM     13  C   UNL d   1      53.445  30.493  53.685  0.00  0.00     0.041 A 
ATOM     14  C   UNL d   1      53.820  31.123  54.079  0.00  0.00     0.006 A 
ATOM     15  C   UNL d   1      53.697  31.899  53.812  0.00  0.00     0.039 A 
ENDBRANCH   1   9
TORSDOF 5
ENDMDL
