MODEL 1
REMARK VINA RESULT:      71.8      0.000      0.000
REMARK  6 active torsions:
REMARK  status: ('A' for Active; 'I' for Inactive)
REMARK    1  A    between atoms: C_7  and  C_1 
REMARK    2  A    between atoms: C_10  and  C_2 
REMARK    3  A    between atoms: C_8  and  C_7 
REMARK    4  A    between atoms: C_9  and  C_8 
REMARK    5  A    between atoms: C_13  and  C_9 
REMARK    6  A    between atoms: O_20  and  C_16 
ROOT
ATOM      1  C   UNL d   1      14.130  14.336  -2.716  0.00  0.00     0.097 A 
ATOM      2  C   UNL d   1      14.451  14.141  -1.982  0.00  0.00     0.009 A 
ATOM      3  C   UNL d   1      13.845  13.736  -3.212  0.00  0.00     0.282 A 
ATOM      4  C   UNL d   1      14.490  13.354  -1.735  0.00  0.00     0.018 A 
ATOM      5  N   UNL d   1      13.887  12.959  -2.960  0.00  0.00    -0.208 NA
ATOM      6  C   UNL d   1      14.204  12.754  -2.231  0.00  0.00     0.085 A 
ATOM      7  C   UNL d   1      14.806  13.169  -1.011  0.00  0.00     0.008 A 
ATOM      8  O   UNL d   1      13.524  13.923  -3.947  0.00  0.00    -0.265 OA
ATOM      9  C   UNL d   1      14.242  11.987  -1.989  0.00  0.00     0.020 A 
ATOM     10  C   UNL d   1      14.846  12.379  -0.762  0.00  0.00     0.035 A 
ATOM     11  C   UNL d   1      14.560  11.779  -1.257  0.00  0.00     0.008 A 
ATOM     12 BR   UNL d   1      15.171  12.172  -0.015  0.00  0.00    -0.049 Br
ENDROOT
BRANCH   1  13
ATOM     13  C   UNL d   1      14.086  15.139  -2.978  0.00  0.00     0.200 C 
ATOM     14  O   UNL d   1      13.678  15.684  -2.519  0.00  0.00    -0.286 OA
BRANCH  13  15
ATOM     15  C   UNL d   1      14.440  15.370  -3.671  0.00  0.00     0.042 C 
BRANCH  15  16
ATOM     16  C   UNL d   1      14.098  15.964  -4.136  0.00  0.00     0.005 C 
BRANCH  16  17
ATOM     17  C   UNL d   1      14.562  16.525  -4.502  0.00  0.00     0.022 A 
ATOM     18  C   UNL d   1      14.365  16.770  -5.256  0.00  0.00     0.094 A 
ATOM     19  C   UNL d   1      14.834  17.343  -5.638  0.00  0.00     0.024 A 
ATOM     20  C   UNL d   1      15.488  17.646  -5.237  0.00  0.00     0.002 A 
ATOM     21  C   UNL d   1      15.675  17.395  -4.488  0.00  0.00     0.000 A 
ATOM     22  C   UNL d   1      15.221  16.840  -4.117  0.00  0.00     0.002 A 
BRANCH  18  23
ATOM     23  O   UNL d   1      13.708  16.466  -5.660  0.00  0.00    -0.328 OA
ATOM     24  C   UNL d   1      13.479  16.788  -6.378  0.00  0.00     0.181 C 
ENDBRANCH  18  23
ENDBRANCH  16  17
ENDBRANCH  15  16
ENDBRANCH  13  15
ENDBRANCH   1  13
BRANCH   2  25
ATOM     25  C   UNL d   1      14.741  14.751  -1.477  0.00  0.00     0.000 A 
ATOM     26  C   UNL d   1      15.392  15.205  -1.713  0.00  0.00     0.000 A 
ATOM     27  C   UNL d   1      15.679  15.807  -1.215  0.00  0.00     0.000 A 
ATOM     28  C   UNL d   1      15.308  15.939  -0.495  0.00  0.00     0.000 A 
ATOM     29  C   UNL d   1      14.657  15.482  -0.263  0.00  0.00     0.000 A 
ATOM     30  C   UNL d   1      14.376  14.894  -0.750  0.00  0.00     0.000 A 
ENDBRANCH   2  25
TORSDOF 6
ENDMDL
MODEL 2
REMARK VINA RESULT:      73.3      2.019      3.108
REMARK  6 active torsions:
REMARK  status: ('A' for Active; 'I' for Inactive)
REMARK    1  A    between atoms: C_7  and  C_1 
REMARK    2  A    between atoms: C_10  and  C_2 
REMARK    3  A    between atoms: C_8  and  C_7 
REMARK    4  A    between atoms: C_9  and  C_8 
REMARK    5  A    between atoms: C_13  and  C_9 
REMARK    6  A    between atoms: O_20  and  C_16 
ROOT
ATOM      1  C   UNL d   1      14.285  16.261  -4.891  0.00  0.00     0.097 A 
ATOM      2  C   UNL d   1      14.274  15.826  -4.191  0.00  0.00     0.009 A 
ATOM      3  C   UNL d   1      13.978  15.928  -5.586  0.00  0.00     0.282 A 
ATOM      4  C   UNL d   1      13.962  15.061  -4.175  0.00  0.00     0.018 A 
ATOM      5  N   UNL d   1      13.670  15.170  -5.561  0.00  0.00    -0.208 NA
ATOM      6  C   UNL d   1      13.655  14.729  -4.870  0.00  0.00     0.085 A 
ATOM      7  C   UNL d   1      13.955  14.639  -3.482  0.00  0.00     0.008 A 
ATOM      8  O   UNL d   1      13.985  16.357  -6.289  0.00  0.00    -0.265 OA
ATOM      9  C   UNL d   1      13.351  13.983  -4.852  0.00  0.00     0.020 A 
ATOM     10  C   UNL d   1      13.641  13.871  -3.464  0.00  0.00     0.035 A 
ATOM     11  C   UNL d   1      13.335  13.538  -4.159  0.00  0.00     0.008 A 
ATOM     12 BR   UNL d   1      13.627  13.421  -2.755  0.00  0.00    -0.049 Br
ENDROOT
BRANCH   1  13
ATOM     13  C   UNL d   1      14.603  17.044  -4.918  0.00  0.00     0.200 C 
ATOM     14  O   UNL d   1      15.373  17.169  -4.662  0.00  0.00    -0.286 OA
BRANCH  13  15
ATOM     15  C   UNL d   1      14.157  17.664  -5.191  0.00  0.00     0.042 C 
BRANCH  15  16
ATOM     16  C   UNL d   1      14.521  18.376  -5.411  0.00  0.00     0.005 C 
BRANCH  16  17
ATOM     17  C   UNL d   1      14.086  18.982  -5.737  0.00  0.00     0.022 A 
ATOM     18  C   UNL d   1      14.416  19.728  -5.776  0.00  0.00     0.094 A 
ATOM     19  C   UNL d   1      13.978  20.355  -6.108  0.00  0.00     0.024 A 
ATOM     20  C   UNL d   1      13.219  20.198  -6.389  0.00  0.00     0.002 A 
ATOM     21  C   UNL d   1      12.900  19.452  -6.345  0.00  0.00     0.000 A 
ATOM     22  C   UNL d   1      13.324  18.845  -6.024  0.00  0.00     0.002 A 
BRANCH  18  23
ATOM     23  O   UNL d   1      15.179  19.887  -5.494  0.00  0.00    -0.328 OA
ATOM     24  C   UNL d   1      15.460  20.657  -5.472  0.00  0.00     0.181 C 
ENDBRANCH  18  23
ENDBRANCH  16  17
ENDBRANCH  15  16
ENDBRANCH  13  15
ENDBRANCH   1  13
BRANCH   2  25
ATOM     25  C   UNL d   1      14.586  16.164  -3.484  0.00  0.00     0.000 A 
ATOM     26  C   UNL d   1      15.374  16.024  -3.273  0.00  0.00     0.000 A 
ATOM     27  C   UNL d   1      15.682  16.357  -2.575  0.00  0.00     0.000 A 
ATOM     28  C   UNL d   1      15.193  16.822  -2.107  0.00  0.00     0.000 A 
ATOM     29  C   UNL d   1      14.405  16.959  -2.322  0.00  0.00     0.000 A 
ATOM     30  C   UNL d   1      14.104  16.633  -3.004  0.00  0.00     0.000 A 
ENDBRANCH   2  25
TORSDOF 6
ENDMDL
