MODEL 1
REMARK VINA RESULT:      -6.9      0.000      0.000
REMARK  4 active torsions:
REMARK  status: ('A' for Active; 'I' for Inactive)
REMARK    1  A    between atoms: N_7  and  S_1 
REMARK    2  A    between atoms: C_8  and  S_1 
REMARK    3  A    between atoms: C_16  and  N_7 
REMARK    4  A    between atoms: C_15  and  C_16 
ROOT
ATOM      1  C   UNL d   1     -40.417  14.419  19.852  0.00  0.00     0.112 C 
ENDROOT
BRANCH   1   2
ATOM      2  C   UNL d   1     -40.088  14.660  20.568  0.00  0.00     0.020 A 
ATOM      3  C   UNL d   1     -39.698  14.111  21.054  0.00  0.00     0.003 A 
ATOM      4  C   UNL d   1     -39.371  14.360  21.771  0.00  0.00     0.018 A 
ATOM      5  C   UNL d   1     -38.959  13.952  22.361  0.00  0.00     0.019 A 
ATOM      6  C   UNL d   1     -39.429  15.149  22.008  0.00  0.00     0.064 A 
ATOM      7  C   UNL d   1     -38.765  14.487  22.953  0.00  0.00     0.064 A 
ATOM      8  C   UNL d   1     -38.352  14.310  23.645  0.00  0.00     0.019 C 
ATOM      9  N   UNL d   1     -39.056  15.225  22.734  0.00  0.00    -0.304 N 
ATOM     10  C   UNL d   1     -38.981  15.922  23.176  0.00  0.00     0.099 C 
ATOM     11  C   UNL d   1     -39.814  15.696  21.529  0.00  0.00     0.018 A 
ATOM     12  C   UNL d   1     -40.146  15.457  20.806  0.00  0.00     0.003 A 
ENDBRANCH   1   2
BRANCH   1  13
ATOM     13  N   UNL d   1     -40.063  14.633  19.139  0.00  0.00    -0.157 NA
BRANCH  13  14
ATOM     14  S   UNL d   1     -40.306  14.285  18.434  0.00  0.00     0.285 S 
ATOM     15  O   UNL d   1     -40.731  13.894  17.840  0.00  0.00    -0.198 OA
ATOM     16  O   UNL d   1     -40.945  14.181  18.955  0.00  0.00    -0.198 OA
BRANCH  14  17
ATOM     17  C   UNL d   1     -39.810  14.280  17.782  0.00  0.00     0.105 A 
ATOM     18  C   UNL d   1     -39.839  14.905  17.244  0.00  0.00     0.013 A 
ATOM     19  C   UNL d   1     -39.338  14.902  16.582  0.00  0.00     0.001 A 
ATOM     20  C   UNL d   1     -38.813  14.276  16.466  0.00  0.00     0.000 A 
ATOM     21  C   UNL d   1     -38.790  13.649  17.013  0.00  0.00     0.001 A 
ATOM     22  C   UNL d   1     -38.315  14.270  15.810  0.00  0.00     0.000 C 
ATOM     23  C   UNL d   1     -39.288  13.658  17.664  0.00  0.00     0.013 A 
ENDBRANCH  14  17
ENDBRANCH  13  14
ENDBRANCH   1  13
TORSDOF 4
ENDMDL
MODEL 2
REMARK VINA RESULT:      -6.3      1.095      4.903
REMARK  4 active torsions:
REMARK  status: ('A' for Active; 'I' for Inactive)
REMARK    1  A    between atoms: N_7  and  S_1 
REMARK    2  A    between atoms: C_8  and  S_1 
REMARK    3  A    between atoms: C_16  and  N_7 
REMARK    4  A    between atoms: C_15  and  C_16 
ROOT
ATOM      1  C   UNL d   1     -40.361  14.487  19.042  0.00  0.00     0.112 C 
ENDROOT
BRANCH   1   2
ATOM      2  C   UNL d   1     -39.943  14.571  18.337  0.00  0.00     0.020 A 
ATOM      3  C   UNL d   1     -39.552  13.920  18.002  0.00  0.00     0.003 A 
ATOM      4  C   UNL d   1     -39.135  14.011  17.295  0.00  0.00     0.018 A 
ATOM      5  C   UNL d   1     -38.700  13.478  16.837  0.00  0.00     0.019 A 
ATOM      6  C   UNL d   1     -39.104  14.746  16.918  0.00  0.00     0.064 A 
ATOM      7  C   UNL d   1     -38.405  13.881  16.186  0.00  0.00     0.064 A 
ATOM      8  C   UNL d   1     -37.940  13.555  15.588  0.00  0.00     0.019 C 
ATOM      9  N   UNL d   1     -38.655  14.663  16.236  0.00  0.00    -0.304 N 
ATOM     10  C   UNL d   1     -38.480  15.261  15.690  0.00  0.00     0.099 C 
ATOM     11  C   UNL d   1     -39.490  15.394  17.246  0.00  0.00     0.018 A 
ATOM     12  C   UNL d   1     -39.912  15.313  17.957  0.00  0.00     0.003 A 
ENDBRANCH   1   2
BRANCH   1  13
ATOM     13  N   UNL d   1     -40.105  14.871  19.725  0.00  0.00    -0.157 NA
BRANCH  13  14
ATOM     14  S   UNL d   1     -40.436  14.684  20.455  0.00  0.00     0.285 S 
ATOM     15  O   UNL d   1     -40.938  14.434  21.064  0.00  0.00    -0.198 OA
ATOM     16  O   UNL d   1     -41.018  14.480  19.897  0.00  0.00    -0.198 OA
BRANCH  14  17
ATOM     17  C   UNL d   1     -40.016  14.812  21.146  0.00  0.00     0.105 A 
ATOM     18  C   UNL d   1     -39.669  14.173  21.536  0.00  0.00     0.013 A 
ATOM     19  C   UNL d   1     -39.242  14.300  22.237  0.00  0.00     0.001 A 
ATOM     20  C   UNL d   1     -39.167  15.064  22.539  0.00  0.00     0.000 A 
ATOM     21  C   UNL d   1     -39.520  15.705  22.140  0.00  0.00     0.001 A 
ATOM     22  C   UNL d   1     -38.744  15.195  23.234  0.00  0.00     0.000 C 
ATOM     23  C   UNL d   1     -39.940  15.571  21.448  0.00  0.00     0.013 A 
ENDBRANCH  14  17
ENDBRANCH  13  14
ENDBRANCH   1  13
TORSDOF 4
ENDMDL
MODEL 3
REMARK VINA RESULT:      -6.2      8.245      9.349
REMARK  4 active torsions:
REMARK  status: ('A' for Active; 'I' for Inactive)
REMARK    1  A    between atoms: N_7  and  S_1 
REMARK    2  A    between atoms: C_8  and  S_1 
REMARK    3  A    between atoms: C_16  and  N_7 
REMARK    4  A    between atoms: C_15  and  C_16 
ROOT
ATOM      1  C   UNL d   1     -47.682  12.554  23.147  0.00  0.00     0.112 C 
ENDROOT
BRANCH   1   2
ATOM      2  C   UNL d   1     -48.388  12.861  22.856  0.00  0.00     0.020 A 
ATOM      3  C   UNL d   1     -48.683  13.581  23.147  0.00  0.00     0.003 A 
ATOM      4  C   UNL d   1     -49.393  13.883  22.850  0.00  0.00     0.018 A 
ATOM      5  C   UNL d   1     -49.816  14.571  23.027  0.00  0.00     0.019 A 
ATOM      6  C   UNL d   1     -49.812  13.474  22.267  0.00  0.00     0.064 A 
ATOM      7  C   UNL d   1     -50.489  14.584  22.556  0.00  0.00     0.064 A 
ATOM      8  C   UNL d   1     -51.064  15.175  22.556  0.00  0.00     0.019 C 
ATOM      9  N   UNL d   1     -50.485  13.907  22.088  0.00  0.00    -0.304 N 
ATOM     10  C   UNL d   1     -51.064  13.703  21.533  0.00  0.00     0.099 C 
ATOM     11  C   UNL d   1     -49.524  12.761  21.977  0.00  0.00     0.018 A 
ATOM     12  C   UNL d   1     -48.812  12.448  22.268  0.00  0.00     0.003 A 
ENDBRANCH   1   2
BRANCH   1  13
ATOM     13  N   UNL d   1     -46.960  12.821  22.852  0.00  0.00    -0.157 NA
BRANCH  13  14
ATOM     14  S   UNL d   1     -46.255  12.485  23.113  0.00  0.00     0.285 S 
ATOM     15  O   UNL d   1     -45.674  12.075  23.537  0.00  0.00    -0.198 OA
ATOM     16  O   UNL d   1     -46.821  12.262  23.679  0.00  0.00    -0.198 OA
BRANCH  14  17
ATOM     17  C   UNL d   1     -45.564  12.589  22.686  0.00  0.00     0.105 A 
ATOM     18  C   UNL d   1     -44.986  12.000  22.697  0.00  0.00     0.013 A 
ATOM     19  C   UNL d   1     -44.285  12.103  22.265  0.00  0.00     0.001 A 
ATOM     20  C   UNL d   1     -44.168  12.793  21.827  0.00  0.00     0.000 A 
ATOM     21  C   UNL d   1     -44.756  13.383  21.822  0.00  0.00     0.001 A 
ATOM     22  C   UNL d   1     -43.474  12.899  21.398  0.00  0.00     0.000 C 
ATOM     23  C   UNL d   1     -45.447  13.274  22.251  0.00  0.00     0.013 A 
ENDBRANCH  14  17
ENDBRANCH  13  14
ENDBRANCH   1  13
TORSDOF 4
ENDMDL
MODEL 4
REMARK VINA RESULT:      -6.1      7.973      9.007
REMARK  4 active torsions:
REMARK  status: ('A' for Active; 'I' for Inactive)
REMARK    1  A    between atoms: N_7  and  S_1 
REMARK    2  A    between atoms: C_8  and  S_1 
REMARK    3  A    between atoms: C_16  and  N_7 
REMARK    4  A    between atoms: C_15  and  C_16 
ROOT
ATOM      1  C   UNL d   1     -46.796  13.670  22.978  0.00  0.00     0.112 C 
ENDROOT
BRANCH   1   2
ATOM      2  C   UNL d   1     -46.218  13.084  22.968  0.00  0.00     0.020 A 
ATOM      3  C   UNL d   1     -46.348  12.362  23.358  0.00  0.00     0.003 A 
ATOM      4  C   UNL d   1     -45.763  11.778  23.344  0.00  0.00     0.018 A 
ATOM      5  C   UNL d   1     -45.731  11.020  23.674  0.00  0.00     0.019 A 
ATOM      6  C   UNL d   1     -45.051  11.907  22.946  0.00  0.00     0.064 A 
ATOM      7  C   UNL d   1     -45.007  10.687  23.479  0.00  0.00     0.064 A 
ATOM      8  C   UNL d   1     -44.748   9.935  23.698  0.00  0.00     0.019 C 
ATOM      9  N   UNL d   1     -44.587  11.235  23.030  0.00  0.00    -0.304 N 
ATOM     10  C   UNL d   1     -43.828  11.122  22.719  0.00  0.00     0.099 C 
ATOM     11  C   UNL d   1     -44.918  12.620  22.559  0.00  0.00     0.018 A 
ATOM     12  C   UNL d   1     -45.499  13.214  22.566  0.00  0.00     0.003 A 
ENDBRANCH   1   2
BRANCH   1  13
ATOM     13  N   UNL d   1     -47.417  13.651  22.436  0.00  0.00    -0.157 NA
BRANCH  13  14
ATOM     14  S   UNL d   1     -48.102  14.087  22.572  0.00  0.00     0.285 S 
ATOM     15  O   UNL d   1     -48.647  14.673  22.786  0.00  0.00    -0.198 OA
ATOM     16  O   UNL d   1     -47.481  14.574  22.836  0.00  0.00    -0.198 OA
BRANCH  14  17
ATOM     17  C   UNL d   1     -48.835  13.779  22.378  0.00  0.00     0.105 A 
ATOM     18  C   UNL d   1     -49.015  13.625  21.588  0.00  0.00     0.013 A 
ATOM     19  C   UNL d   1     -49.758  13.312  21.388  0.00  0.00     0.001 A 
ATOM     20  C   UNL d   1     -50.312  13.158  21.980  0.00  0.00     0.000 A 
ATOM     21  C   UNL d   1     -50.122  13.316  22.776  0.00  0.00     0.001 A 
ATOM     22  C   UNL d   1     -51.049  12.848  21.786  0.00  0.00     0.000 C 
ATOM     23  C   UNL d   1     -49.386  13.625  22.965  0.00  0.00     0.013 A 
ENDBRANCH  14  17
ENDBRANCH  13  14
ENDBRANCH   1  13
TORSDOF 4
ENDMDL
MODEL 5
REMARK VINA RESULT:      -5.7      7.891      9.127
REMARK  4 active torsions:
REMARK  status: ('A' for Active; 'I' for Inactive)
REMARK    1  A    between atoms: N_7  and  S_1 
REMARK    2  A    between atoms: C_8  and  S_1 
REMARK    3  A    between atoms: C_16  and  N_7 
REMARK    4  A    between atoms: C_15  and  C_16 
ROOT
ATOM      1  C   UNL d   1     -46.646  13.646  22.642  0.00  0.00     0.112 C 
ENDROOT
BRANCH   1   2
ATOM      2  C   UNL d   1     -47.449  13.783  22.520  0.00  0.00     0.020 A 
ATOM      3  C   UNL d   1     -47.831  14.407  22.912  0.00  0.00     0.003 A 
ATOM      4  C   UNL d   1     -48.637  14.539  22.786  0.00  0.00     0.018 A 
ATOM      5  C   UNL d   1     -49.158  15.104  23.090  0.00  0.00     0.019 A 
ATOM      6  C   UNL d   1     -49.066  14.054  22.273  0.00  0.00     0.064 A 
ATOM      7  C   UNL d   1     -49.900  14.967  22.766  0.00  0.00     0.064 A 
ATOM      8  C   UNL d   1     -50.582  15.405  22.922  0.00  0.00     0.019 C 
ATOM      9  N   UNL d   1     -49.842  14.319  22.262  0.00  0.00    -0.304 N 
ATOM     10  C   UNL d   1     -50.464  13.994  21.822  0.00  0.00     0.099 C 
ATOM     11  C   UNL d   1     -48.692  13.434  21.883  0.00  0.00     0.018 A 
ATOM     12  C   UNL d   1     -47.882  13.293  22.002  0.00  0.00     0.003 A 
ENDBRANCH   1   2
BRANCH   1  13
ATOM     13  N   UNL d   1     -46.368  12.879  22.760  0.00  0.00    -0.157 NA
BRANCH  13  14
ATOM     14  S   UNL d   1     -45.563  12.716  22.704  0.00  0.00     0.285 S 
ATOM     15  O   UNL d   1     -44.747  12.756  22.566  0.00  0.00    -0.198 OA
ATOM     16  O   UNL d   1     -45.647  13.488  22.407  0.00  0.00    -0.198 OA
BRANCH  14  17
ATOM     17  C   UNL d   1     -45.268  11.993  22.950  0.00  0.00     0.105 A 
ATOM     18  C   UNL d   1     -44.469  11.820  22.840  0.00  0.00     0.013 A 
ATOM     19  C   UNL d   1     -44.169  11.087  23.088  0.00  0.00     0.001 A 
ATOM     20  C   UNL d   1     -44.670  10.536  23.445  0.00  0.00     0.000 A 
ATOM     21  C   UNL d   1     -45.475  10.718  23.553  0.00  0.00     0.001 A 
ATOM     22  C   UNL d   1     -44.375   9.808  23.693  0.00  0.00     0.000 C 
ATOM     23  C   UNL d   1     -45.765  11.444  23.304  0.00  0.00     0.013 A 
ENDBRANCH  14  17
ENDBRANCH  13  14
ENDBRANCH   1  13
TORSDOF 4
ENDMDL
MODEL 6
REMARK VINA RESULT:      -5.5      1.444      1.743
REMARK  4 active torsions:
REMARK  status: ('A' for Active; 'I' for Inactive)
REMARK    1  A    between atoms: N_7  and  S_1 
REMARK    2  A    between atoms: C_8  and  S_1 
REMARK    3  A    between atoms: C_16  and  N_7 
REMARK    4  A    between atoms: C_15  and  C_16 
ROOT
ATOM      1  C   UNL d   1     -38.458  14.386  19.500  0.00  0.00     0.112 C 
ENDROOT
BRANCH   1   2
ATOM      2  C   UNL d   1     -38.460  14.456  20.320  0.00  0.00     0.020 A 
ATOM      3  C   UNL d   1     -38.572  13.785  20.797  0.00  0.00     0.003 A 
ATOM      4  C   UNL d   1     -38.573  13.863  21.620  0.00  0.00     0.018 A 
ATOM      5  C   UNL d   1     -38.668  13.309  22.226  0.00  0.00     0.019 A 
ATOM      6  C   UNL d   1     -38.463  14.602  21.972  0.00  0.00     0.064 A 
ATOM      7  C   UNL d   1     -38.618  13.705  22.943  0.00  0.00     0.064 A 
ATOM      8  C   UNL d   1     -38.684  13.359  23.690  0.00  0.00     0.019 C 
ATOM      9  N   UNL d   1     -38.491  14.502  22.786  0.00  0.00    -0.304 N 
ATOM     10  C   UNL d   1     -38.407  15.098  23.354  0.00  0.00     0.099 C 
ATOM     11  C   UNL d   1     -38.351  15.269  21.503  0.00  0.00     0.018 A 
ATOM     12  C   UNL d   1     -38.349  15.202  20.676  0.00  0.00     0.003 A 
ENDBRANCH   1   2
BRANCH   1  13
ATOM     13  N   UNL d   1     -39.009  14.798  19.046  0.00  0.00    -0.157 NA
BRANCH  13  14
ATOM     14  S   UNL d   1     -39.056  14.671  18.234  0.00  0.00     0.285 S 
ATOM     15  O   UNL d   1     -38.918  14.432  17.453  0.00  0.00    -0.198 OA
ATOM     16  O   UNL d   1     -38.364  14.277  18.473  0.00  0.00    -0.198 OA
BRANCH  14  17
ATOM     17  C   UNL d   1     -39.677  14.983  17.801  0.00  0.00     0.105 A 
ATOM     18  C   UNL d   1     -40.437  14.677  17.902  0.00  0.00     0.013 A 
ATOM     19  C   UNL d   1     -41.069  14.992  17.464  0.00  0.00     0.001 A 
ATOM     20  C   UNL d   1     -40.934  15.607  16.932  0.00  0.00     0.000 A 
ATOM     21  C   UNL d   1     -40.164  15.911  16.836  0.00  0.00     0.001 A 
ATOM     22  C   UNL d   1     -41.558  15.922  16.496  0.00  0.00     0.000 C 
ATOM     23  C   UNL d   1     -39.545  15.595  17.271  0.00  0.00     0.013 A 
ENDBRANCH  14  17
ENDBRANCH  13  14
ENDBRANCH   1  13
TORSDOF 4
ENDMDL
MODEL 7
REMARK VINA RESULT:      -5.1      9.047     10.123
REMARK  4 active torsions:
REMARK  status: ('A' for Active; 'I' for Inactive)
REMARK    1  A    between atoms: N_7  and  S_1 
REMARK    2  A    between atoms: C_8  and  S_1 
REMARK    3  A    between atoms: C_16  and  N_7 
REMARK    4  A    between atoms: C_15  and  C_16 
ROOT
ATOM      1  C   UNL d   1     -48.606  11.601  23.400  0.00  0.00     0.112 C 
ENDROOT
BRANCH   1   2
ATOM      2  C   UNL d   1     -47.788  11.646  23.313  0.00  0.00     0.020 A 
ATOM      3  C   UNL d   1     -47.448  12.263  22.874  0.00  0.00     0.003 A 
ATOM      4  C   UNL d   1     -46.626  12.302  22.790  0.00  0.00     0.018 A 
ATOM      5  C   UNL d   1     -46.137  12.839  22.395  0.00  0.00     0.019 A 
ATOM      6  C   UNL d   1     -46.141  11.733  23.140  0.00  0.00     0.064 A 
ATOM      7  C   UNL d   1     -45.358  12.600  22.502  0.00  0.00     0.064 A 
ATOM      8  C   UNL d   1     -44.692  12.981  22.199  0.00  0.00     0.019 C 
ATOM      9  N   UNL d   1     -45.362  11.918  22.961  0.00  0.00    -0.304 N 
ATOM     10  C   UNL d   1     -44.692  11.494  23.200  0.00  0.00     0.099 C 
ATOM     11  C   UNL d   1     -46.474  11.120  23.576  0.00  0.00     0.018 A 
ATOM     12  C   UNL d   1     -47.298  11.071  23.666  0.00  0.00     0.003 A 
ENDBRANCH   1   2
BRANCH   1  13
ATOM     13  N   UNL d   1     -49.039  12.270  23.609  0.00  0.00    -0.157 NA
BRANCH  13  14
ATOM     14  S   UNL d   1     -49.837  12.327  23.413  0.00  0.00     0.285 S 
ATOM     15  O   UNL d   1     -50.640  12.175  23.284  0.00  0.00    -0.198 OA
ATOM     16  O   UNL d   1     -49.738  11.549  23.691  0.00  0.00    -0.198 OA
BRANCH  14  17
ATOM     17  C   UNL d   1     -50.142  13.026  23.116  0.00  0.00     0.105 A 
ATOM     18  C   UNL d   1     -50.218  13.122  22.300  0.00  0.00     0.013 A 
ATOM     19  C   UNL d   1     -50.528  13.830  21.996  0.00  0.00     0.001 A 
ATOM     20  C   UNL d   1     -50.757  14.433  22.510  0.00  0.00     0.000 A 
ATOM     21  C   UNL d   1     -50.676  14.329  23.333  0.00  0.00     0.001 A 
ATOM     22  C   UNL d   1     -51.064  15.137  22.213  0.00  0.00     0.000 C 
ATOM     23  C   UNL d   1     -50.370  13.626  23.626  0.00  0.00     0.013 A 
ENDBRANCH  14  17
ENDBRANCH  13  14
ENDBRANCH   1  13
TORSDOF 4
ENDMDL
MODEL 8
REMARK VINA RESULT:      -4.8      1.933      5.055
REMARK  4 active torsions:
REMARK  status: ('A' for Active; 'I' for Inactive)
REMARK    1  A    between atoms: N_7  and  S_1 
REMARK    2  A    between atoms: C_8  and  S_1 
REMARK    3  A    between atoms: C_16  and  N_7 
REMARK    4  A    between atoms: C_15  and  C_16 
ROOT
ATOM      1  C   UNL d   1     -38.519  13.588  19.084  0.00  0.00     0.112 C 
ENDROOT
BRANCH   1   2
ATOM      2  C   UNL d   1     -38.398  13.585  18.270  0.00  0.00     0.020 A 
ATOM      3  C   UNL d   1     -38.347  14.301  17.852  0.00  0.00     0.003 A 
ATOM      4  C   UNL d   1     -38.226  14.290  17.034  0.00  0.00     0.018 A 
ATOM      5  C   UNL d   1     -38.153  14.898  16.479  0.00  0.00     0.019 A 
ATOM      6  C   UNL d   1     -38.155  13.573  16.630  0.00  0.00     0.064 A 
ATOM      7  C   UNL d   1     -38.039  14.558  15.741  0.00  0.00     0.064 A 
ATOM      8  C   UNL d   1     -37.940  14.967  15.032  0.00  0.00     0.019 C 
ATOM      9  N   UNL d   1     -38.040  13.740  15.835  0.00  0.00    -0.304 N 
ATOM     10  C   UNL d   1     -37.942  13.186  15.228  0.00  0.00     0.099 C 
ATOM     11  C   UNL d   1     -38.206  12.862  17.040  0.00  0.00     0.018 A 
ATOM     12  C   UNL d   1     -38.327  12.861  17.861  0.00  0.00     0.003 A 
ENDBRANCH   1   2
BRANCH   1  13
ATOM     13  N   UNL d   1     -38.783  14.271  19.463  0.00  0.00    -0.157 NA
BRANCH  13  14
ATOM     14  S   UNL d   1     -39.076  14.233  20.231  0.00  0.00     0.285 S 
ATOM     15  O   UNL d   1     -39.199  14.061  21.032  0.00  0.00    -0.198 OA
ATOM     16  O   UNL d   1     -38.403  13.744  20.234  0.00  0.00    -0.198 OA
BRANCH  14  17
ATOM     17  C   UNL d   1     -39.748  14.652  20.440  0.00  0.00     0.105 A 
ATOM     18  C   UNL d   1     -40.440  14.244  20.628  0.00  0.00     0.013 A 
ATOM     19  C   UNL d   1     -41.122  14.667  20.840  0.00  0.00     0.001 A 
ATOM     20  C   UNL d   1     -41.105  15.492  20.861  0.00  0.00     0.000 A 
ATOM     21  C   UNL d   1     -40.403  15.896  20.669  0.00  0.00     0.001 A 
ATOM     22  C   UNL d   1     -41.780  15.914  21.070  0.00  0.00     0.000 C 
ATOM     23  C   UNL d   1     -39.733  15.472  20.461  0.00  0.00     0.013 A 
ENDBRANCH  14  17
ENDBRANCH  13  14
ENDBRANCH   1  13
TORSDOF 4
ENDMDL
MODEL 9
REMARK VINA RESULT:      -4.7      2.040      5.202
REMARK  4 active torsions:
REMARK  status: ('A' for Active; 'I' for Inactive)
REMARK    1  A    between atoms: N_7  and  S_1 
REMARK    2  A    between atoms: C_8  and  S_1 
REMARK    3  A    between atoms: C_16  and  N_7 
REMARK    4  A    between atoms: C_15  and  C_16 
ROOT
ATOM      1  C   UNL d   1     -37.989  15.256  18.638  0.00  0.00     0.112 C 
ENDROOT
BRANCH   1   2
ATOM      2  C   UNL d   1     -37.979  15.218  17.816  0.00  0.00     0.020 A 
ATOM      3  C   UNL d   1     -37.974  14.483  17.431  0.00  0.00     0.003 A 
ATOM      4  C   UNL d   1     -37.964  14.452  16.605  0.00  0.00     0.018 A 
ATOM      5  C   UNL d   1     -37.958  13.817  16.076  0.00  0.00     0.019 A 
ATOM      6  C   UNL d   1     -37.958  15.148  16.159  0.00  0.00     0.064 A 
ATOM      7  C   UNL d   1     -37.948  14.120  15.313  0.00  0.00     0.064 A 
ATOM      8  C   UNL d   1     -37.940  13.675  14.618  0.00  0.00     0.019 C 
ATOM      9  N   UNL d   1     -37.948  14.941  15.366  0.00  0.00    -0.304 N 
ATOM     10  C   UNL d   1     -37.940  15.464  14.724  0.00  0.00     0.099 C 
ATOM     11  C   UNL d   1     -37.962  15.879  16.537  0.00  0.00     0.018 A 
ATOM     12  C   UNL d   1     -37.973  15.921  17.366  0.00  0.00     0.003 A 
ENDBRANCH   1   2
BRANCH   1  13
ATOM     13  N   UNL d   1     -38.690  15.424  19.038  0.00  0.00    -0.157 NA
BRANCH  13  14
ATOM     14  S   UNL d   1     -38.734  15.335  19.855  0.00  0.00     0.285 S 
ATOM     15  O   UNL d   1     -38.573  15.323  20.668  0.00  0.00    -0.198 OA
ATOM     16  O   UNL d   1     -37.971  15.635  19.712  0.00  0.00    -0.198 OA
BRANCH  14  17
ATOM     17  C   UNL d   1     -39.416  15.047  20.205  0.00  0.00     0.105 A 
ATOM     18  C   UNL d   1     -39.379  14.368  20.671  0.00  0.00     0.013 A 
ATOM     19  C   UNL d   1     -40.069  14.074  21.027  0.00  0.00     0.001 A 
ATOM     20  C   UNL d   1     -40.788  14.462  20.912  0.00  0.00     0.000 A 
ATOM     21  C   UNL d   1     -40.818  15.148  20.440  0.00  0.00     0.001 A 
ATOM     22  C   UNL d   1     -41.475  14.174  21.263  0.00  0.00     0.000 C 
ATOM     23  C   UNL d   1     -40.131  15.432  20.092  0.00  0.00     0.013 A 
ENDBRANCH  14  17
ENDBRANCH  13  14
ENDBRANCH   1  13
TORSDOF 4
ENDMDL
