MODEL 1
REMARK VINA RESULT:      -2.5      0.000      0.000
REMARK  5 active torsions:
REMARK  status: ('A' for Active; 'I' for Inactive)
REMARK    1  A    between atoms: C_7  and  C_1 
REMARK    2  A    between atoms: C_8  and  C_2 
REMARK    3  A    between atoms: O_22  and  C_8 
REMARK    4  A    between atoms: C_24  and  C_14 
REMARK    5  A    between atoms: C_27  and  O_22 
ROOT
ATOM      1  C   UNL d   1      57.887  -0.579  30.605  0.00  0.00     0.067 A 
ATOM      2  C   UNL d   1      57.649  -1.366  30.538  0.00  0.00     0.166 A 
ATOM      3  C   UNL d   1      57.578  -0.105  31.212  0.00  0.00     0.200 A 
ATOM      4  C   UNL d   1      57.035  -0.418  31.746  0.00  0.00     0.062 A 
ATOM      5  O   UNL d   1      57.102  -1.679  31.077  0.00  0.00    -0.301 OA
ATOM      6  C   UNL d   1      56.797  -1.206  31.679  0.00  0.00     0.106 A 
ATOM      7  C   UNL d   1      56.730   0.054  32.346  0.00  0.00     0.008 A 
ATOM      8  C   UNL d   1      56.254  -1.520  32.212  0.00  0.00     0.067 A 
ATOM      9  C   UNL d   1      55.949  -1.046  32.813  0.00  0.00     0.198 A 
ATOM     10  C   UNL d   1      56.187  -0.259  32.880  0.00  0.00     0.039 A 
ATOM     11  O   UNL d   1      57.816   0.682  31.279  0.00  0.00    -0.286 OA
ATOM     12  O   UNL d   1      55.399  -1.359  33.357  0.00  0.00    -0.286 OA
ENDROOT
BRANCH   1  13
ATOM     13  C   UNL d   1      58.430  -0.265  30.071  0.00  0.00     0.007 A 
ATOM     14  C   UNL d   1      59.237  -0.266  30.252  0.00  0.00     0.027 A 
ATOM     15  C   UNL d   1      59.779   0.047  29.718  0.00  0.00     0.123 A 
ATOM     16  O   UNL d   1      60.583   0.044  29.903  0.00  0.00    -0.301 OA
ATOM     17  C   UNL d   1      59.518   0.362  29.001  0.00  0.00     0.123 A 
ATOM     18  C   UNL d   1      61.133   0.365  29.354  0.00  0.00     0.149 A 
ATOM     19  C   UNL d   1      60.880   0.682  28.636  0.00  0.00     0.149 A 
ATOM     20  O   UNL d   1      60.070   0.682  28.457  0.00  0.00    -0.301 OA
ATOM     21  C   UNL d   1      58.711   0.364  28.820  0.00  0.00     0.027 A 
ATOM     22  C   UNL d   1      58.169   0.050  29.355  0.00  0.00     0.002 A 
ENDBRANCH   1  13
BRANCH   2  23
ATOM     23  C   UNL d   1      57.956  -1.840  29.933  0.00  0.00     0.323 C 
ATOM     24  O   UNL d   1      57.702  -1.732  29.156  0.00  0.00    -0.257 OA
BRANCH  23  25
ATOM     25  O   UNL d   1      58.516  -2.419  30.109  0.00  0.00    -0.270 OA
BRANCH  25  26
ATOM     26  C   UNL d   1      58.775  -2.929  29.517  0.00  0.00     0.126 C 
ATOM     27  C   UNL d   1      59.364  -3.482  29.682  0.00  0.00     0.029 C 
ENDBRANCH  25  26
ENDBRANCH  23  25
ENDBRANCH   2  23
BRANCH  10  28
ATOM     28  C   UNL d   1      55.880   0.214  33.485  0.00  0.00     0.003 C 
ATOM     29  C   UNL d   1      56.334   0.389  34.151  0.00  0.00     0.000 C 
ENDBRANCH  10  28
TORSDOF 5
ENDMDL
MODEL 2
REMARK VINA RESULT:      -1.7      1.130      2.559
REMARK  5 active torsions:
REMARK  status: ('A' for Active; 'I' for Inactive)
REMARK    1  A    between atoms: C_7  and  C_1 
REMARK    2  A    between atoms: C_8  and  C_2 
REMARK    3  A    between atoms: O_22  and  C_8 
REMARK    4  A    between atoms: C_24  and  C_14 
REMARK    5  A    between atoms: C_27  and  O_22 
ROOT
ATOM      1  C   UNL d   1      58.324  -1.263  30.220  0.00  0.00     0.067 A 
ATOM      2  C   UNL d   1      58.474  -0.457  30.132  0.00  0.00     0.166 A 
ATOM      3  C   UNL d   1      57.740  -1.519  30.751  0.00  0.00     0.200 A 
ATOM      4  C   UNL d   1      57.310  -0.970  31.188  0.00  0.00     0.062 A 
ATOM      5  O   UNL d   1      58.039   0.094  30.575  0.00  0.00    -0.301 OA
ATOM      6  C   UNL d   1      57.459  -0.163  31.100  0.00  0.00     0.106 A 
ATOM      7  C   UNL d   1      56.731  -1.226  31.714  0.00  0.00     0.008 A 
ATOM      8  C   UNL d   1      57.030   0.387  31.538  0.00  0.00     0.067 A 
ATOM      9  C   UNL d   1      56.451   0.129  32.064  0.00  0.00     0.198 A 
ATOM     10  C   UNL d   1      56.301  -0.677  32.151  0.00  0.00     0.039 A 
ATOM     11  O   UNL d   1      57.590  -2.325  30.839  0.00  0.00    -0.286 OA
ATOM     12  O   UNL d   1      56.012   0.682  32.509  0.00  0.00    -0.286 OA
ENDROOT
BRANCH   1  13
ATOM     13  C   UNL d   1      58.754  -1.812  29.782  0.00  0.00     0.007 A 
ATOM     14  C   UNL d   1      59.491  -2.073  30.052  0.00  0.00     0.027 A 
ATOM     15  C   UNL d   1      59.920  -2.621  29.615  0.00  0.00     0.123 A 
ATOM     16  O   UNL d   1      60.656  -2.878  29.889  0.00  0.00    -0.301 OA
ATOM     17  C   UNL d   1      59.617  -2.912  28.905  0.00  0.00     0.123 A 
ATOM     18  C   UNL d   1      61.091  -3.438  29.438  0.00  0.00     0.149 A 
ATOM     19  C   UNL d   1      60.793  -3.734  28.728  0.00  0.00     0.149 A 
ATOM     20  O   UNL d   1      60.053  -3.471  28.458  0.00  0.00    -0.301 OA
ATOM     21  C   UNL d   1      58.879  -2.652  28.634  0.00  0.00     0.027 A 
ATOM     22  C   UNL d   1      58.451  -2.104  29.073  0.00  0.00     0.002 A 
ENDBRANCH   1  13
BRANCH   2  23
ATOM     23  C   UNL d   1      59.057  -0.200  29.603  0.00  0.00     0.323 C 
ATOM     24  O   UNL d   1      58.935  -0.270  28.791  0.00  0.00    -0.257 OA
BRANCH  23  25
ATOM     25  O   UNL d   1      59.757   0.125  29.889  0.00  0.00    -0.270 OA
BRANCH  25  26
ATOM     26  C   UNL d   1      60.164   0.682  29.439  0.00  0.00     0.126 C 
ATOM     27  C   UNL d   1      60.926   0.516  29.173  0.00  0.00     0.029 C 
ENDBRANCH  25  26
ENDBRANCH  23  25
ENDBRANCH   2  23
BRANCH  10  28
ATOM     28  C   UNL d   1      55.719  -0.933  32.680  0.00  0.00     0.003 C 
ATOM     29  C   UNL d   1      55.855  -1.583  33.170  0.00  0.00     0.000 C 
ENDBRANCH  10  28
TORSDOF 5
ENDMDL
