MODEL 1
REMARK VINA RESULT:       2.8      0.000      0.000
REMARK  6 active torsions:
REMARK  status: ('A' for Active; 'I' for Inactive)
REMARK       I    between atoms: N_6  and  C_1 
REMARK       I    between atoms: N_9  and  C_1 
REMARK    1  A    between atoms: N_2  and  C_3 
REMARK    2  A    between atoms: C_3  and  C_5 
REMARK    3  A    between atoms: C_7  and  C_3 
REMARK    4  A    between atoms: C_16  and  N_4 
REMARK    5  A    between atoms: C_5  and  N_6 
REMARK    6  A    between atoms: C_19  and  N_9 
ROOT
ATOM      1  C   UNL d   1     -41.595-122.312 -51.739  0.00  0.00     0.088 C 
ENDROOT
BRANCH   1   2
ATOM      2  N   UNL d   1     -41.750-122.534 -50.956  0.00  0.00    -0.300 N 
ATOM      3  C   UNL d   1     -41.162-122.897 -50.508  0.00  0.00     0.100 A 
ATOM      4  C   UNL d   1     -41.314-123.117 -49.733  0.00  0.00     0.100 A 
ATOM      5  N   UNL d   1     -42.057-122.978 -49.389  0.00  0.00    -0.301 N 
ATOM      6  C   UNL d   1     -42.654-122.605 -49.857  0.00  0.00     0.100 A 
ATOM      7  C   UNL d   1     -42.487-122.392 -50.627  0.00  0.00     0.100 A 
BRANCH   5   8
ATOM      8  C   UNL d   1     -42.223-123.190 -48.622  0.00  0.00     0.064 A 
ATOM      9  C   UNL d   1     -42.968-123.459 -48.404  0.00  0.00     0.018 A 
ATOM     10  C   UNL d   1     -43.127-123.673 -47.621  0.00  0.00     0.002 A 
ATOM     11  C   UNL d   1     -42.529-123.614 -47.050  0.00  0.00     0.000 A 
ATOM     12  C   UNL d   1     -41.775-123.343 -47.268  0.00  0.00     0.002 A 
ATOM     13  C   UNL d   1     -41.625-123.132 -48.051  0.00  0.00     0.018 A 
ENDBRANCH   5   8
ENDBRANCH   1   2
BRANCH   1  14
ATOM     14  C   UNL d   1     -41.517-122.885 -52.325  0.00  0.00     0.103 C 
ATOM     15  C   UNL d   1     -41.123-123.582 -52.162  0.00  0.00     0.022 C 
BRANCH  14  16
ATOM     16  N   UNL d   1     -41.836-122.748 -53.068  0.00  0.00    -0.190 NA
ATOM     17  C   UNL d   1     -42.461-123.217 -53.342  0.00  0.00     0.369 C 
ATOM     18  N   UNL d   1     -42.781-123.080 -54.085  0.00  0.00    -0.191 NA
ATOM     19  O   UNL d   1     -42.756-123.816 -52.864  0.00  0.00    -0.242 OA
BRANCH  18  20
ATOM     20  C   UNL d   1     -42.484-122.476 -54.565  0.00  0.00     0.086 A 
ATOM     21  C   UNL d   1     -42.977-121.839 -54.770  0.00  0.00     0.019 A 
ATOM     22  C   UNL d   1     -42.685-121.238 -55.247  0.00  0.00     0.002 A 
ATOM     23  C   UNL d   1     -41.907-121.266 -55.520  0.00  0.00     0.000 A 
ATOM     24  C   UNL d   1     -41.423-121.901 -55.313  0.00  0.00     0.002 A 
ATOM     25  C   UNL d   1     -41.712-122.510 -54.833  0.00  0.00     0.019 A 
ENDBRANCH  18  20
ENDBRANCH  14  16
ENDBRANCH   1  14
BRANCH   1  26
ATOM     26  C   UNL d   1     -41.520-121.516 -51.929  0.00  0.00     0.047 A 
ATOM     27  S   UNL d   1     -41.823-120.876 -51.502  0.00  0.00    -0.085 SA
ATOM     28  C   UNL d   1     -41.616-120.184 -51.893  0.00  0.00     0.035 A 
ATOM     29  C   UNL d   1     -41.181-120.388 -52.567  0.00  0.00     0.007 A 
ATOM     30  C   UNL d   1     -41.123-121.210 -52.586  0.00  0.00     0.009 A 
ENDBRANCH   1  26
TORSDOF 6
ENDMDL
