MODEL 1
REMARK VINA RESULT:      59.7      0.000      0.000
REMARK  7 active torsions:
REMARK  status: ('A' for Active; 'I' for Inactive)
REMARK    1  A    between atoms: C_6  and  C_1 
REMARK    2  A    between atoms: C_14  and  C_5 
REMARK    3  A    between atoms: O_19  and  C_7 
REMARK    4  A    between atoms: O_20  and  C_8 
REMARK    5  A    between atoms: O_21  and  C_9 
REMARK    6  A    between atoms: O_17  and  C_14 
REMARK    7  A    between atoms: C_18  and  O_17 
ROOT
ATOM      1  C   UNL d   1     -49.887  26.508  33.512  0.00  0.00     0.205 A 
ATOM      2  N   UNL d   1     -49.108  26.254  33.391  0.00  0.00    -0.121 NA
ATOM      3  O   UNL d   1     -49.874  27.317  33.692  0.00  0.00    -0.267 OA
ATOM      4  N   UNL d   1     -48.606  26.906  33.495  0.00  0.00    -0.119 NA
ATOM      5  C   UNL d   1     -49.082  27.562  33.681  0.00  0.00     0.230 A 
ENDROOT
BRANCH   1   6
ATOM      6  C   UNL d   1     -50.560  26.026  33.460  0.00  0.00     0.047 A 
ATOM      7  C   UNL d   1     -50.486  25.205  33.428  0.00  0.00     0.030 A 
ATOM      8  C   UNL d   1     -51.152  24.737  33.377  0.00  0.00     0.118 A 
ATOM      9  C   UNL d   1     -51.908  25.078  33.357  0.00  0.00     0.138 A 
ATOM     10  C   UNL d   1     -51.978  25.897  33.389  0.00  0.00     0.118 A 
ATOM     11  C   UNL d   1     -51.304  26.380  33.441  0.00  0.00     0.030 A 
BRANCH   8  12
ATOM     12  O   UNL d   1     -51.070  23.913  33.345  0.00  0.00    -0.326 OA
ATOM     13  C   UNL d   1     -50.319  23.565  33.348  0.00  0.00     0.181 C 
ENDBRANCH   8  12
BRANCH   9  14
ATOM     14  O   UNL d   1     -52.575  24.594  33.306  0.00  0.00    -0.324 OA
ATOM     15  C   UNL d   1     -52.835  24.167  33.966  0.00  0.00     0.182 C 
ENDBRANCH   9  14
BRANCH  10  16
ATOM     16  O   UNL d   1     -52.733  26.240  33.370  0.00  0.00    -0.326 OA
ATOM     17  C   UNL d   1     -52.822  27.046  33.492  0.00  0.00     0.181 C 
ENDBRANCH  10  16
ENDBRANCH   1   6
BRANCH   5  18
ATOM     18  C   UNL d   1     -48.817  28.333  33.831  0.00  0.00     0.169 C 
BRANCH  18  19
ATOM     19  O   UNL d   1     -48.958  28.686  34.562  0.00  0.00    -0.301 OA
BRANCH  19  20
ATOM     20  C   UNL d   1     -48.458  29.287  34.830  0.00  0.00     0.100 A 
ATOM     21  C   UNL d   1     -48.543  30.054  34.539  0.00  0.00     0.025 A 
ATOM     22  C   UNL d   1     -48.048  30.651  34.804  0.00  0.00     0.002 A 
ATOM     23  C   UNL d   1     -48.127  31.424  34.516  0.00  0.00     0.000 A 
ATOM     24  C   UNL d   1     -47.464  30.488  35.361  0.00  0.00     0.000 A 
ATOM     25  C   UNL d   1     -47.626  32.021  34.787  0.00  0.00     0.000 A 
ATOM     26  C   UNL d   1     -47.043  31.850  35.345  0.00  0.00     0.000 A 
ATOM     27  C   UNL d   1     -46.961  31.079  35.635  0.00  0.00     0.000 A 
ATOM     28  C   UNL d   1     -47.377  29.722  35.655  0.00  0.00     0.002 A 
ATOM     29  C   UNL d   1     -47.881  29.113  35.385  0.00  0.00     0.025 A 
ENDBRANCH  19  20
ENDBRANCH  18  19
ENDBRANCH   5  18
TORSDOF 7
ENDMDL
