MODEL 1
REMARK VINA RESULT:      50.7      0.000      0.000
REMARK  3 active torsions:
REMARK  status: ('A' for Active; 'I' for Inactive)
REMARK    1  A    between atoms: C_12  and  N_3 
REMARK    2  A    between atoms: C_11  and  C_6 
REMARK    3  A    between atoms: C_22  and  C_12 
ROOT
ATOM      1  C   UNL d   1     -51.457  25.165  33.308  0.00  0.00     0.130 A 
ATOM      2  C   UNL d   1     -52.026  25.763  33.308  0.00  0.00     0.157 A 
ATOM      3  N   UNL d   1     -50.419  26.153  33.309  0.00  0.00    -0.256 N 
ATOM      4  C   UNL d   1     -50.658  25.365  33.309  0.00  0.00     0.272 A 
ATOM      5  N   UNL d   1     -51.798  26.558  33.308  0.00  0.00    -0.208 NA
ATOM      6  C   UNL d   1     -50.999  26.758  33.309  0.00  0.00     0.175 A 
ATOM      7  C   UNL d   1     -51.687  24.378  33.308  0.00  0.00     0.204 A 
ATOM      8  N   UNL d   1     -52.833  25.572  33.308  0.00  0.00    -0.289 N 
ATOM      9  C   UNL d   1     -52.489  24.182  33.307  0.00  0.00     0.055 A 
ATOM     10  C   UNL d   1     -53.063  24.774  33.307  0.00  0.00     0.069 A 
ATOM     11  O   UNL d   1     -50.084  24.772  33.309  0.00  0.00    -0.266 OA
ATOM     12  O   UNL d   1     -51.116  23.784  33.308  0.00  0.00    -0.286 OA
ATOM     13  C   UNL d   1     -53.407  26.165  33.307  0.00  0.00     0.101 C 
ATOM     14  C   UNL d   1     -52.713  23.390  33.307  0.00  0.00     0.005 A 
ATOM     15  C   UNL d   1     -53.862  24.575  33.307  0.00  0.00     0.018 A 
ATOM     16  C   UNL d   1     -53.512  23.190  33.306  0.00  0.00     0.000 A 
ATOM     17  C   UNL d   1     -54.086  23.782  33.306  0.00  0.00     0.002 A 
ENDROOT
BRANCH   6  18
ATOM     18  C   UNL d   1     -50.763  27.556  33.309  0.00  0.00     0.135 A 
ATOM     19  O   UNL d   1     -49.958  27.739  33.307  0.00  0.00    -0.302 OA
ATOM     20  C   UNL d   1     -49.889  28.562  33.308  0.00  0.00     0.123 A 
ATOM     21  C   UNL d   1     -50.651  28.885  33.311  0.00  0.00     0.029 A 
ATOM     22  C   UNL d   1     -51.188  28.262  33.312  0.00  0.00     0.030 A 
ENDBRANCH   6  18
BRANCH   3  23
ATOM     23  C   UNL d   1     -49.614  26.353  33.309  0.00  0.00     0.085 C 
BRANCH  23  24
ATOM     24  C   UNL d   1     -49.123  26.094  33.930  0.00  0.00     0.018 C 
ATOM     25  C   UNL d   1     -49.238  26.398  34.706  0.00  0.00     0.002 C 
ATOM     26  C   UNL d   1     -48.519  25.538  33.786  0.00  0.00     0.002 C 
ENDBRANCH  23  24
ENDBRANCH   3  23
TORSDOF 3
ENDMDL
MODEL 2
REMARK VINA RESULT:      51.4      1.024      3.736
REMARK  3 active torsions:
REMARK  status: ('A' for Active; 'I' for Inactive)
REMARK    1  A    between atoms: C_12  and  N_3 
REMARK    2  A    between atoms: C_11  and  C_6 
REMARK    3  A    between atoms: C_22  and  C_12 
ROOT
ATOM      1  C   UNL d   1     -51.192  26.043  33.403  0.00  0.00     0.130 A 
ATOM      2  C   UNL d   1     -51.987  26.256  33.451  0.00  0.00     0.157 A 
ATOM      3  N   UNL d   1     -51.560  24.659  33.451  0.00  0.00    -0.256 N 
ATOM      4  C   UNL d   1     -50.984  25.245  33.403  0.00  0.00     0.272 A 
ATOM      5  N   UNL d   1     -52.574  25.675  33.499  0.00  0.00    -0.208 NA
ATOM      6  C   UNL d   1     -52.368  24.878  33.500  0.00  0.00     0.175 A 
ATOM      7  C   UNL d   1     -50.613  26.620  33.355  0.00  0.00     0.204 A 
ATOM      8  N   UNL d   1     -52.207  27.055  33.451  0.00  0.00    -0.289 N 
ATOM      9  C   UNL d   1     -50.825  27.419  33.355  0.00  0.00     0.055 A 
ATOM     10  C   UNL d   1     -51.618  27.639  33.403  0.00  0.00     0.069 A 
ATOM     11  O   UNL d   1     -50.191  25.025  33.355  0.00  0.00    -0.266 OA
ATOM     12  O   UNL d   1     -49.819  26.404  33.307  0.00  0.00    -0.286 OA
ATOM     13  C   UNL d   1     -53.000  27.276  33.499  0.00  0.00     0.101 C 
ATOM     14  C   UNL d   1     -50.239  27.994  33.307  0.00  0.00     0.005 A 
ATOM     15  C   UNL d   1     -51.826  28.436  33.403  0.00  0.00     0.018 A 
ATOM     16  C   UNL d   1     -50.446  28.792  33.306  0.00  0.00     0.000 A 
ATOM     17  C   UNL d   1     -51.239  29.012  33.354  0.00  0.00     0.002 A 
ENDROOT
BRANCH   6  18
ATOM     18  C   UNL d   1     -52.953  24.288  33.548  0.00  0.00     0.135 A 
ATOM     19  O   UNL d   1     -53.722  24.462  33.307  0.00  0.00    -0.302 OA
ATOM     20  C   UNL d   1     -54.178  23.781  33.416  0.00  0.00     0.123 A 
ATOM     21  C   UNL d   1     -53.688  23.190  33.724  0.00  0.00     0.029 A 
ATOM     22  C   UNL d   1     -52.933  23.505  33.805  0.00  0.00     0.030 A 
ENDBRANCH   6  18
BRANCH   3  23
ATOM     23  C   UNL d   1     -51.350  23.856  33.451  0.00  0.00     0.085 C 
BRANCH  23  24
ATOM     24  C   UNL d   1     -50.616  23.619  33.766  0.00  0.00     0.018 C 
ATOM     25  C   UNL d   1     -49.906  23.817  33.361  0.00  0.00     0.002 C 
ATOM     26  C   UNL d   1     -50.583  23.189  34.479  0.00  0.00     0.002 C 
ENDBRANCH  23  24
ENDBRANCH   3  23
TORSDOF 3
ENDMDL
