MODEL 1
REMARK VINA RESULT:      13.4      0.000      0.000
REMARK  3 active torsions:
REMARK  status: ('A' for Active; 'I' for Inactive)
REMARK    1  A    between atoms: C_6  and  N_1 
REMARK    2  A    between atoms: C_7  and  O_10 
REMARK    3  A    between atoms: O_10  and  C_13 
ROOT
ATOM      1  C   UNL d   1     -51.830  25.072  33.315  0.00  0.00     0.070 A 
ATOM      2  C   UNL d   1     -52.152  25.843  33.324  0.00  0.00     0.020 A 
ATOM      3  C   UNL d   1     -51.011  24.968  33.309  0.00  0.00     0.020 A 
ATOM      4  C   UNL d   1     -50.814  26.384  33.319  0.00  0.00     0.105 A 
ATOM      5  C   UNL d   1     -50.501  25.614  33.311  0.00  0.00     0.026 A 
ATOM      6  C   UNL d   1     -51.640  26.492  33.326  0.00  0.00     0.026 A 
ENDROOT
BRANCH   1   7
ATOM      7  N   UNL d   1     -52.337  24.429  33.314  0.00  0.00    -0.242 N 
ATOM      8  C   UNL d   1     -52.133  23.609  33.316  0.00  0.00     0.267 A 
ATOM      9  C   UNL d   1     -52.820  23.189  33.313  0.00  0.00     0.066 A 
ATOM     10  O   UNL d   1     -51.378  23.283  33.321  0.00  0.00    -0.267 OA
ATOM     11  C   UNL d   1     -53.453  23.688  33.309  0.00  0.00     0.066 A 
ATOM     12  C   UNL d   1     -53.136  24.472  33.309  0.00  0.00     0.267 A 
ATOM     13  O   UNL d   1     -53.570  25.177  33.306  0.00  0.00    -0.267 OA
ENDBRANCH   1   7
BRANCH   4  14
ATOM     14  O   UNL d   1     -50.318  27.012  33.321  0.00  0.00    -0.260 OA
BRANCH  14  15
ATOM     15  C   UNL d   1     -49.614  26.975  33.728  0.00  0.00     0.391 C 
ATOM     16  F   UNL d   1     -48.959  26.663  33.375  0.00  0.00    -0.145 F 
ATOM     17  F   UNL d   1     -49.569  27.252  34.491  0.00  0.00    -0.145 F 
ENDBRANCH  14  15
ENDBRANCH   4  14
TORSDOF 3
ENDMDL
