MODEL 1
REMARK VINA RESULT:      -6.5      0.000      0.000
REMARK  7 active torsions:
REMARK  status: ('A' for Active; 'I' for Inactive)
REMARK       I    between atoms: C_2  and  N_1 
REMARK    1  A    between atoms: C_7  and  C_2 
REMARK    2  A    between atoms: C_10  and  C_3 
REMARK       I    between atoms: C_4  and  N_6 
REMARK    3  A    between atoms: C_5  and  C_4 
REMARK       I    between atoms: N_13  and  C_5 
REMARK    4  A    between atoms: N_6  and  C_10 
REMARK    5  A    between atoms: C_23  and  N_13 
REMARK    6  A    between atoms: O_22  and  C_24 
REMARK    7  A    between atoms: C_24  and  C_23 
ROOT
ATOM      1  N   UNL d   1     -48.598  13.051  22.715  0.00  0.00    -0.250 N 
ATOM      2  C   UNL d   1     -48.514  13.781  23.099  0.00  0.00     0.266 C 
ATOM      3  C   UNL d   1     -48.022  12.467  22.642  0.00  0.00     0.190 A 
ATOM      4  O   UNL d   1     -47.802  13.981  23.455  0.00  0.00    -0.267 OA
ATOM      5  O   UNL d   1     -48.347  11.830  22.215  0.00  0.00    -0.285 OA
ATOM      6  C   UNL d   1     -49.275  12.775  22.335  0.00  0.00     0.112 A 
ATOM      7  C   UNL d   1     -49.124  12.021  22.025  0.00  0.00     0.144 A 
ENDROOT
BRANCH   3   8
ATOM      8  C   UNL d   1     -47.257  12.510  22.941  0.00  0.00     0.146 C 
BRANCH   8   9
ATOM      9  N   UNL d   1     -46.914  11.849  23.293  0.00  0.00    -0.199 NA
ATOM     10  C   UNL d   1     -46.098  11.790  23.343  0.00  0.00     0.337 C 
ATOM     11  O   UNL d   1     -45.756  11.129  23.695  0.00  0.00    -0.260 OA
BRANCH  10  12
ATOM     12  C   UNL d   1     -45.613  12.388  23.041  0.00  0.00     0.337 C 
ATOM     13  O   UNL d   1     -45.665  13.149  23.354  0.00  0.00    -0.260 OA
ATOM     14  N   UNL d   1     -45.079  12.233  22.433  0.00  0.00    -0.200 NA
BRANCH  14  15
ATOM     15  C   UNL d   1     -44.599  12.818  22.132  0.00  0.00     0.129 C 
BRANCH  15  16
ATOM     16  C   UNL d   1     -44.099  12.677  21.488  0.00  0.00     0.137 C 
BRANCH  16  17
ATOM     17  O   UNL d   1     -43.283  12.642  21.589  0.00  0.00    -0.325 OA
ATOM     18  C   UNL d   1     -42.773  13.097  21.114  0.00  0.00     0.182 C 
ENDBRANCH  16  17
ENDBRANCH  15  16
ENDBRANCH  14  15
ENDBRANCH  10  12
ENDBRANCH   8   9
ENDBRANCH   3   8
BRANCH   2  19
ATOM     19  C   UNL d   1     -49.158  14.317  23.124  0.00  0.00     0.057 A 
ATOM     20  C   UNL d   1     -49.755  14.214  23.674  0.00  0.00     0.006 A 
ATOM     21  C   UNL d   1     -50.389  14.743  23.698  0.00  0.00     0.012 A 
ATOM     22  C   UNL d   1     -50.419  15.372  23.169  0.00  0.00     0.058 A 
ATOM     23  C   UNL d   1     -49.814  15.474  22.614  0.00  0.00     0.012 A 
ATOM     24 CL   UNL d   1     -51.061  15.905  23.195  0.00  0.00    -0.082 Cl
ATOM     25  C   UNL d   1     -49.191  14.949  22.595  0.00  0.00     0.006 A 
ENDBRANCH   2  19
TORSDOF 7
ENDMDL
MODEL 2
REMARK VINA RESULT:      -4.8      1.757      2.579
REMARK  7 active torsions:
REMARK  status: ('A' for Active; 'I' for Inactive)
REMARK       I    between atoms: C_2  and  N_1 
REMARK    1  A    between atoms: C_7  and  C_2 
REMARK    2  A    between atoms: C_10  and  C_3 
REMARK       I    between atoms: C_4  and  N_6 
REMARK    3  A    between atoms: C_5  and  C_4 
REMARK       I    between atoms: N_13  and  C_5 
REMARK    4  A    between atoms: N_6  and  C_10 
REMARK    5  A    between atoms: C_23  and  N_13 
REMARK    6  A    between atoms: O_22  and  C_24 
REMARK    7  A    between atoms: C_24  and  C_23 
ROOT
ATOM      1  N   UNL d   1     -46.824  13.328  22.435  0.00  0.00    -0.250 N 
ATOM      2  C   UNL d   1     -47.208  12.845  21.882  0.00  0.00     0.266 C 
ATOM      3  C   UNL d   1     -46.012  13.370  22.568  0.00  0.00     0.190 A 
ATOM      4  O   UNL d   1     -46.774  12.344  21.397  0.00  0.00    -0.267 OA
ATOM      5  O   UNL d   1     -45.873  13.926  23.172  0.00  0.00    -0.285 OA
ATOM      6  C   UNL d   1     -47.184  13.855  22.956  0.00  0.00     0.112 A 
ATOM      7  C   UNL d   1     -46.600  14.227  23.413  0.00  0.00     0.144 A 
ENDROOT
BRANCH   3   8
ATOM      8  C   UNL d   1     -45.439  12.936  22.168  0.00  0.00     0.146 C 
BRANCH   8   9
ATOM      9  N   UNL d   1     -45.006  12.359  22.567  0.00  0.00    -0.199 NA
ATOM     10  C   UNL d   1     -44.244  12.180  22.325  0.00  0.00     0.337 C 
ATOM     11  O   UNL d   1     -43.812  11.604  22.723  0.00  0.00    -0.260 OA
BRANCH  10  12
ATOM     12  C   UNL d   1     -43.903  12.574  21.682  0.00  0.00     0.337 C 
ATOM     13  O   UNL d   1     -44.293  12.582  20.956  0.00  0.00    -0.260 OA
ATOM     14  N   UNL d   1     -43.178  12.958  21.759  0.00  0.00    -0.200 NA
BRANCH  14  15
ATOM     15  C   UNL d   1     -42.837  13.348  21.129  0.00  0.00     0.129 C 
BRANCH  15  16
ATOM     16  C   UNL d   1     -42.033  13.542  21.127  0.00  0.00     0.137 C 
BRANCH  16  17
ATOM     17  O   UNL d   1     -41.778  14.278  20.860  0.00  0.00    -0.325 OA
ATOM     18  C   UNL d   1     -40.969  14.433  20.741  0.00  0.00     0.182 C 
ENDBRANCH  16  17
ENDBRANCH  15  16
ENDBRANCH  14  15
ENDBRANCH  10  12
ENDBRANCH   8   9
ENDBRANCH   3   8
BRANCH   2  19
ATOM     19  C   UNL d   1     -48.043  12.868  21.816  0.00  0.00     0.057 A 
ATOM     20  C   UNL d   1     -48.403  13.443  21.359  0.00  0.00     0.006 A 
ATOM     21  C   UNL d   1     -49.226  13.464  21.294  0.00  0.00     0.012 A 
ATOM     22  C   UNL d   1     -49.683  12.907  21.690  0.00  0.00     0.058 A 
ATOM     23  C   UNL d   1     -49.317  12.325  22.152  0.00  0.00     0.012 A 
ATOM     24 CL   UNL d   1     -50.515  12.930  21.624  0.00  0.00    -0.082 Cl
ATOM     25  C   UNL d   1     -48.504  12.310  22.211  0.00  0.00     0.006 A 
ENDBRANCH   2  19
TORSDOF 7
ENDMDL
MODEL 3
REMARK VINA RESULT:      -4.8      7.531      9.254
REMARK  7 active torsions:
REMARK  status: ('A' for Active; 'I' for Inactive)
REMARK       I    between atoms: C_2  and  N_1 
REMARK    1  A    between atoms: C_7  and  C_2 
REMARK    2  A    between atoms: C_10  and  C_3 
REMARK       I    between atoms: C_4  and  N_6 
REMARK    3  A    between atoms: C_5  and  C_4 
REMARK       I    between atoms: N_13  and  C_5 
REMARK    4  A    between atoms: N_6  and  C_10 
REMARK    5  A    between atoms: C_23  and  N_13 
REMARK    6  A    between atoms: O_22  and  C_24 
REMARK    7  A    between atoms: C_24  and  C_23 
ROOT
ATOM      1  N   UNL d   1     -40.232  14.863  20.407  0.00  0.00    -0.250 N 
ATOM      2  C   UNL d   1     -39.575  15.331  20.595  0.00  0.00     0.266 C 
ATOM      3  C   UNL d   1     -40.589  14.793  19.668  0.00  0.00     0.190 A 
ATOM      4  O   UNL d   1     -39.213  15.787  20.016  0.00  0.00    -0.267 OA
ATOM      5  O   UNL d   1     -41.229  14.265  19.734  0.00  0.00    -0.285 OA
ATOM      6  C   UNL d   1     -40.651  14.379  20.926  0.00  0.00     0.112 A 
ATOM      7  C   UNL d   1     -41.268  14.008  20.514  0.00  0.00     0.144 A 
ENDROOT
BRANCH   3   8
ATOM      8  C   UNL d   1     -40.350  15.182  18.983  0.00  0.00     0.146 C 
BRANCH   8   9
ATOM      9  N   UNL d   1     -40.905  15.381  18.407  0.00  0.00    -0.199 NA
ATOM     10  C   UNL d   1     -40.673  15.444  17.623  0.00  0.00     0.337 C 
ATOM     11  O   UNL d   1     -41.227  15.643  17.047  0.00  0.00    -0.260 OA
BRANCH  10  12
ATOM     12  C   UNL d   1     -39.887  15.311  17.404  0.00  0.00     0.337 C 
ATOM     13  O   UNL d   1     -39.334  15.917  17.483  0.00  0.00    -0.260 OA
ATOM     14  N   UNL d   1     -39.650  14.580  17.107  0.00  0.00    -0.200 NA
BRANCH  14  15
ATOM     15  C   UNL d   1     -38.877  14.442  16.889  0.00  0.00     0.129 C 
BRANCH  15  16
ATOM     16  C   UNL d   1     -38.656  13.747  16.498  0.00  0.00     0.137 C 
BRANCH  16  17
ATOM     17  O   UNL d   1     -38.575  13.040  16.911  0.00  0.00    -0.325 OA
ATOM     18  C   UNL d   1     -37.940  12.525  16.756  0.00  0.00     0.182 C 
ENDBRANCH  16  17
ENDBRANCH  15  16
ENDBRANCH  14  15
ENDBRANCH  10  12
ENDBRANCH   8   9
ENDBRANCH   3   8
BRANCH   2  19
ATOM     19  C   UNL d   1     -39.278  15.340  21.379  0.00  0.00     0.057 A 
ATOM     20  C   UNL d   1     -39.539  15.905  21.910  0.00  0.00     0.006 A 
ATOM     21  C   UNL d   1     -39.246  15.913  22.682  0.00  0.00     0.012 A 
ATOM     22  C   UNL d   1     -38.692  15.352  22.916  0.00  0.00     0.058 A 
ATOM     23  C   UNL d   1     -38.429  14.781  22.377  0.00  0.00     0.012 A 
ATOM     24 CL   UNL d   1     -38.397  15.361  23.696  0.00  0.00    -0.082 Cl
ATOM     25  C   UNL d   1     -38.723  14.779  21.616  0.00  0.00     0.006 A 
ENDBRANCH   2  19
TORSDOF 7
ENDMDL
MODEL 4
REMARK VINA RESULT:      -4.5      2.456      5.093
REMARK  7 active torsions:
REMARK  status: ('A' for Active; 'I' for Inactive)
REMARK       I    between atoms: C_2  and  N_1 
REMARK    1  A    between atoms: C_7  and  C_2 
REMARK    2  A    between atoms: C_10  and  C_3 
REMARK       I    between atoms: C_4  and  N_6 
REMARK    3  A    between atoms: C_5  and  C_4 
REMARK       I    between atoms: N_13  and  C_5 
REMARK    4  A    between atoms: N_6  and  C_10 
REMARK    5  A    between atoms: C_23  and  N_13 
REMARK    6  A    between atoms: O_22  and  C_24 
REMARK    7  A    between atoms: C_24  and  C_23 
ROOT
ATOM      1  N   UNL d   1     -46.947  13.912  22.725  0.00  0.00    -0.250 N 
ATOM      2  C   UNL d   1     -47.145  13.111  22.798  0.00  0.00     0.266 C 
ATOM      3  C   UNL d   1     -47.469  14.536  22.596  0.00  0.00     0.190 A 
ATOM      4  O   UNL d   1     -47.928  12.871  22.744  0.00  0.00    -0.267 OA
ATOM      5  O   UNL d   1     -47.031  15.242  22.559  0.00  0.00    -0.285 OA
ATOM      6  C   UNL d   1     -46.189  14.234  22.767  0.00  0.00     0.112 A 
ATOM      7  C   UNL d   1     -46.236  15.055  22.665  0.00  0.00     0.144 A 
ENDROOT
BRANCH   3   8
ATOM      8  C   UNL d   1     -48.285  14.468  22.518  0.00  0.00     0.146 C 
BRANCH   8   9
ATOM      9  N   UNL d   1     -48.754  15.144  22.485  0.00  0.00    -0.199 NA
ATOM     10  C   UNL d   1     -49.557  15.077  22.333  0.00  0.00     0.337 C 
ATOM     11  O   UNL d   1     -50.026  15.753  22.300  0.00  0.00    -0.260 OA
BRANCH  10  12
ATOM     12  C   UNL d   1     -49.903  14.335  22.212  0.00  0.00     0.337 C 
ATOM     13  O   UNL d   1     -49.851  13.979  21.471  0.00  0.00    -0.260 OA
ATOM     14  N   UNL d   1     -50.297  13.949  22.823  0.00  0.00    -0.200 NA
BRANCH  14  15
ATOM     15  C   UNL d   1     -50.639  13.218  22.710  0.00  0.00     0.129 C 
BRANCH  15  16
ATOM     16  C   UNL d   1     -50.925  12.773  23.347  0.00  0.00     0.137 C 
BRANCH  16  17
ATOM     17  O   UNL d   1     -51.064  11.966  23.267  0.00  0.00    -0.325 OA
ATOM     18  C   UNL d   1     -50.618  11.411  23.697  0.00  0.00     0.182 C 
ENDBRANCH  16  17
ENDBRANCH  15  16
ENDBRANCH  14  15
ENDBRANCH  10  12
ENDBRANCH   8   9
ENDBRANCH   3   8
BRANCH   2  19
ATOM     19  C   UNL d   1     -46.543  12.542  22.929  0.00  0.00     0.057 A 
ATOM     20  C   UNL d   1     -46.590  12.036  23.570  0.00  0.00     0.006 A 
ATOM     21  C   UNL d   1     -45.996  11.476  23.697  0.00  0.00     0.012 A 
ATOM     22  C   UNL d   1     -45.360  11.427  23.179  0.00  0.00     0.058 A 
ATOM     23  C   UNL d   1     -45.315  11.939  22.530  0.00  0.00     0.012 A 
ATOM     24 CL   UNL d   1     -44.762  10.860  23.310  0.00  0.00    -0.082 Cl
ATOM     25  C   UNL d   1     -45.904  12.490  22.410  0.00  0.00     0.006 A 
ENDBRANCH   2  19
TORSDOF 7
ENDMDL
MODEL 5
REMARK VINA RESULT:      -4.1      1.630      2.541
REMARK  7 active torsions:
REMARK  status: ('A' for Active; 'I' for Inactive)
REMARK       I    between atoms: C_2  and  N_1 
REMARK    1  A    between atoms: C_7  and  C_2 
REMARK    2  A    between atoms: C_10  and  C_3 
REMARK       I    between atoms: C_4  and  N_6 
REMARK    3  A    between atoms: C_5  and  C_4 
REMARK       I    between atoms: N_13  and  C_5 
REMARK    4  A    between atoms: N_6  and  C_10 
REMARK    5  A    between atoms: C_23  and  N_13 
REMARK    6  A    between atoms: O_22  and  C_24 
REMARK    7  A    between atoms: C_24  and  C_23 
ROOT
ATOM      1  N   UNL d   1     -47.385  13.588  22.444  0.00  0.00    -0.250 N 
ATOM      2  C   UNL d   1     -47.767  12.864  22.321  0.00  0.00     0.266 C 
ATOM      3  C   UNL d   1     -46.575  13.704  22.544  0.00  0.00     0.190 A 
ATOM      4  O   UNL d   1     -47.334  12.167  22.288  0.00  0.00    -0.267 OA
ATOM      5  O   UNL d   1     -46.437  14.518  22.651  0.00  0.00    -0.285 OA
ATOM      6  C   UNL d   1     -47.744  14.329  22.490  0.00  0.00     0.112 A 
ATOM      7  C   UNL d   1     -47.162  14.906  22.618  0.00  0.00     0.144 A 
ENDROOT
BRANCH   3   8
ATOM      8  C   UNL d   1     -46.003  13.113  22.537  0.00  0.00     0.146 C 
BRANCH   8   9
ATOM      9  N   UNL d   1     -45.316  13.208  22.092  0.00  0.00    -0.199 NA
ATOM     10  C   UNL d   1     -44.664  12.734  22.242  0.00  0.00     0.337 C 
ATOM     11  O   UNL d   1     -43.978  12.829  21.798  0.00  0.00    -0.260 OA
BRANCH  10  12
ATOM     12  C   UNL d   1     -44.688  12.160  22.837  0.00  0.00     0.337 C 
ATOM     13  O   UNL d   1     -45.176  12.273  23.492  0.00  0.00    -0.260 OA
ATOM     14  N   UNL d   1     -44.231  11.476  22.783  0.00  0.00    -0.200 NA
BRANCH  14  15
ATOM     15  C   UNL d   1     -44.250  10.907  23.366  0.00  0.00     0.129 C 
BRANCH  15  16
ATOM     16  C   UNL d   1     -43.648  10.345  23.439  0.00  0.00     0.137 C 
BRANCH  16  17
ATOM     17  O   UNL d   1     -43.728   9.597  23.103  0.00  0.00    -0.325 OA
ATOM     18  C   UNL d   1     -43.942   8.941  23.567  0.00  0.00     0.182 C 
ENDBRANCH  16  17
ENDBRANCH  15  16
ENDBRANCH  14  15
ENDBRANCH  10  12
ENDBRANCH   8   9
ENDBRANCH   3   8
BRANCH   2  19
ATOM     19  C   UNL d   1     -48.600  12.841  22.230  0.00  0.00     0.057 A 
ATOM     20  C   UNL d   1     -49.079  12.684  22.874  0.00  0.00     0.006 A 
ATOM     21  C   UNL d   1     -49.900  12.662  22.783  0.00  0.00     0.012 A 
ATOM     22  C   UNL d   1     -50.234  12.798  22.044  0.00  0.00     0.058 A 
ATOM     23  C   UNL d   1     -49.748  12.957  21.393  0.00  0.00     0.012 A 
ATOM     24 CL   UNL d   1     -51.063  12.775  21.954  0.00  0.00    -0.082 Cl
ATOM     25  C   UNL d   1     -48.939  12.977  21.490  0.00  0.00     0.006 A 
ENDBRANCH   2  19
TORSDOF 7
ENDMDL
