MODEL 1
REMARK VINA RESULT:      55.5      0.000      0.000
REMARK  4 active torsions:
REMARK  status: ('A' for Active; 'I' for Inactive)
REMARK    1  A    between atoms: N_5  and  S_1 
REMARK    2  A    between atoms: C_8  and  S_1 
REMARK    3  A    between atoms: C_18  and  N_2 
REMARK    4  A    between atoms: C_10  and  N_5 
ROOT
ATOM      1  N   UNL d   1      13.757  15.557  -4.638  0.00  0.00    -0.273 N 
ATOM      2  C   UNL d   1      13.350  15.153  -5.232  0.00  0.00     0.265 A 
ATOM      3  C   UNL d   1      13.916  15.036  -4.004  0.00  0.00     0.067 A 
ATOM      4  C   UNL d   1      13.597  14.295  -4.219  0.00  0.00     0.021 A 
ATOM      5  C   UNL d   1      13.253  14.362  -4.963  0.00  0.00     0.058 A 
ATOM      6  C   UNL d   1      13.929  13.526  -3.082  0.00  0.00     0.105 A 
ATOM      7  C   UNL d   1      13.586  13.596  -3.828  0.00  0.00     0.014 A 
ATOM      8  C   UNL d   1      14.293  15.138  -3.292  0.00  0.00     0.018 A 
ATOM      9  C   UNL d   1      14.277  14.148  -2.739  0.00  0.00     0.014 A 
ATOM     10  O   UNL d   1      13.092  15.495  -5.961  0.00  0.00    -0.267 OA
ATOM     11  C   UNL d   1      12.898  13.729  -5.314  0.00  0.00     0.005 A 
ATOM     12  C   UNL d   1      13.223  12.928  -4.175  0.00  0.00     0.001 A 
ATOM     13  C   UNL d   1      12.871  12.962  -4.916  0.00  0.00     0.000 A 
ENDROOT
BRANCH   6  14
ATOM     14  S   UNL d   1      13.911  12.804  -2.694  0.00  0.00     0.287 S 
ATOM     15  O   UNL d   1      14.651  12.608  -2.990  0.00  0.00    -0.198 OA
ATOM     16  O   UNL d   1      13.144  12.971  -2.367  0.00  0.00    -0.198 OA
BRANCH  14  17
ATOM     17  N   UNL d   1      13.892  12.068  -2.297  0.00  0.00    -0.139 NA
BRANCH  17  18
ATOM     18  C   UNL d   1      14.153  11.973  -1.529  0.00  0.00     0.174 A 
ATOM     19  N   UNL d   1      14.979  11.956  -1.418  0.00  0.00    -0.225 NA
ATOM     20  C   UNL d   1      15.288  11.862  -0.663  0.00  0.00     0.101 A 
ATOM     21  C   UNL d   1      14.768  11.784  -0.014  0.00  0.00     0.021 A 
ATOM     22  C   UNL d   1      13.938  11.800  -0.121  0.00  0.00     0.005 A 
ATOM     23  C   UNL d   1      13.632  11.895  -0.880  0.00  0.00     0.037 A 
ATOM     24  C   UNL d   1      12.813  11.968  -1.452  0.00  0.00     0.003 C 
ENDBRANCH  17  18
ENDBRANCH  14  17
ENDBRANCH   6  14
BRANCH   1  25
ATOM     25  C   UNL d   1      13.967  16.350  -4.677  0.00  0.00     0.083 C 
ATOM     26  C   UNL d   1      14.761  16.543  -4.751  0.00  0.00     0.021 C 
ENDBRANCH   1  25
TORSDOF 4
ENDMDL
MODEL 2
REMARK VINA RESULT:      57.3      1.378      4.207
REMARK  4 active torsions:
REMARK  status: ('A' for Active; 'I' for Inactive)
REMARK    1  A    between atoms: N_5  and  S_1 
REMARK    2  A    between atoms: C_8  and  S_1 
REMARK    3  A    between atoms: C_18  and  N_2 
REMARK    4  A    between atoms: C_10  and  N_5 
ROOT
ATOM      1  N   UNL d   1      14.777  12.828  -0.676  0.00  0.00    -0.273 N 
ATOM      2  C   UNL d   1      14.907  13.638  -0.773  0.00  0.00     0.265 A 
ATOM      3  C   UNL d   1      14.383  12.526  -1.349  0.00  0.00     0.067 A 
ATOM      4  C   UNL d   1      14.271  13.170  -1.868  0.00  0.00     0.021 A 
ATOM      5  C   UNL d   1      14.587  13.845  -1.523  0.00  0.00     0.058 A 
ATOM      6  C   UNL d   1      13.610  12.530  -2.940  0.00  0.00     0.105 A 
ATOM      7  C   UNL d   1      13.928  13.206  -2.591  0.00  0.00     0.014 A 
ATOM      8  C   UNL d   1      14.125  11.781  -1.544  0.00  0.00     0.018 A 
ATOM      9  C   UNL d   1      13.639  11.833  -2.567  0.00  0.00     0.014 A 
ATOM     10  O   UNL d   1      15.290  14.138  -0.209  0.00  0.00    -0.267 OA
ATOM     11  C   UNL d   1      14.559  14.557  -1.901  0.00  0.00     0.005 A 
ATOM     12  C   UNL d   1      13.888  13.934  -3.000  0.00  0.00     0.001 A 
ATOM     13  C   UNL d   1      14.194  14.626  -2.683  0.00  0.00     0.000 A 
ENDROOT
BRANCH   6  14
ATOM     14  S   UNL d   1      13.261  12.582  -3.681  0.00  0.00     0.287 S 
ATOM     15  O   UNL d   1      13.719  13.237  -3.867  0.00  0.00    -0.198 OA
ATOM     16  O   UNL d   1      12.769  11.906  -3.524  0.00  0.00    -0.198 OA
BRANCH  14  17
ATOM     17  N   UNL d   1      12.905  12.635  -4.435  0.00  0.00    -0.139 NA
BRANCH  17  18
ATOM     18  C   UNL d   1      13.235  13.059  -5.051  0.00  0.00     0.174 A 
ATOM     19  N   UNL d   1      13.299  13.883  -4.942  0.00  0.00    -0.225 NA
ATOM     20  C   UNL d   1      13.624  14.350  -5.534  0.00  0.00     0.101 A 
ATOM     21  C   UNL d   1      13.888  13.990  -6.240  0.00  0.00     0.021 A 
ATOM     22  C   UNL d   1      13.827  13.164  -6.355  0.00  0.00     0.005 A 
ATOM     23  C   UNL d   1      13.499  12.699  -5.758  0.00  0.00     0.037 A 
ATOM     24  C   UNL d   1      13.241  11.779  -5.457  0.00  0.00     0.003 C 
ENDBRANCH  17  18
ENDBRANCH  14  17
ENDBRANCH   6  14
BRANCH   1  25
ATOM     25  C   UNL d   1      15.004  12.398  -0.015  0.00  0.00     0.083 C 
ATOM     26  C   UNL d   1      15.659  11.907  -0.072  0.00  0.00     0.021 C 
ENDBRANCH   1  25
TORSDOF 4
ENDMDL
