MODEL 1
REMARK VINA RESULT:      92.8      0.000      0.000
REMARK  3 active torsions:
REMARK  status: ('A' for Active; 'I' for Inactive)
REMARK    1  A    between atoms: N_9  and  C_2 
REMARK    2  A    between atoms: C_15  and  C_7 
REMARK    3  A    between atoms: C_11  and  C_14 
ROOT
ATOM      1  C   UNL d   1      58.428  49.339  51.513  0.00  0.00     0.152 A 
ATOM      2  C   UNL d   1      58.776  49.446  52.260  0.00  0.00     0.174 A 
ATOM      3  C   UNL d   1      58.905  49.293  50.834  0.00  0.00     0.111 A 
ATOM      4  N   UNL d   1      59.609  49.505  52.319  0.00  0.00    -0.207 NA
ATOM      5  N   UNL d   1      59.724  49.351  50.893  0.00  0.00    -0.225 NA
ATOM      6  O   UNL d   1      57.601  49.280  51.453  0.00  0.00    -0.302 OA
ATOM      7  C   UNL d   1      60.081  49.458  51.633  0.00  0.00     0.164 A 
ATOM      8  C   UNL d   1      57.722  49.127  50.032  0.00  0.00     0.043 A 
ATOM      9  C   UNL d   1      57.245  49.173  50.711  0.00  0.00     0.102 A 
ATOM     10  C   UNL d   1      57.368  49.021  49.294  0.00  0.00     0.004 A 
ATOM     11  C   UNL d   1      56.432  49.115  50.654  0.00  0.00     0.025 A 
ATOM     12  C   UNL d   1      56.550  48.962  49.236  0.00  0.00     0.000 A 
ATOM     13  C   UNL d   1      56.080  49.010  49.920  0.00  0.00     0.002 A 
ENDROOT
BRANCH   2  14
ATOM     14  N   UNL d   1      58.310  49.493  52.937  0.00  0.00    -0.287 N 
ATOM     15  C   UNL d   1      57.498  49.539  52.864  0.00  0.00     0.082 A 
ATOM     16  C   UNL d   1      57.035  49.586  53.542  0.00  0.00     0.025 A 
ATOM     17  C   UNL d   1      57.391  49.586  54.287  0.00  0.00     0.067 A 
ATOM     18  C   UNL d   1      58.205  49.539  54.351  0.00  0.00     0.025 A 
ATOM     19  C   UNL d   1      58.670  49.492  53.675  0.00  0.00     0.082 A 
BRANCH  17  20
ATOM     20  C   UNL d   1      56.911  49.634  54.984  0.00  0.00     0.211 C 
ATOM     21  O   UNL d   1      56.067  49.630  54.919  0.00  0.00    -0.644 OA
ATOM     22  O   UNL d   1      57.277  49.686  55.743  0.00  0.00    -0.644 OA
ENDBRANCH  17  20
ENDBRANCH   2  14
BRANCH   7  23
ATOM     23  C   UNL d   1      60.896  49.516  51.688  0.00  0.00     0.036 A 
ATOM     24  C   UNL d   1      61.248  49.647  52.409  0.00  0.00     0.003 A 
ATOM     25  C   UNL d   1      62.073  49.707  52.468  0.00  0.00     0.000 A 
ATOM     26  C   UNL d   1      62.534  49.632  51.793  0.00  0.00     0.000 A 
ATOM     27  C   UNL d   1      62.174  49.497  51.056  0.00  0.00     0.000 A 
ATOM     28  C   UNL d   1      61.363  49.441  51.008  0.00  0.00     0.003 A 
ENDBRANCH   7  23
TORSDOF 3
ENDMDL
