MODEL 1
REMARK VINA RESULT:      21.9      0.000      0.000
REMARK  5 active torsions:
REMARK  status: ('A' for Active; 'I' for Inactive)
REMARK    1  A    between atoms: S_2  and  C_10 
REMARK    2  A    between atoms: N_7  and  S_2 
REMARK    3  A    between atoms: C_9  and  N_7 
REMARK    4  A    between atoms: O_23  and  C_16 
REMARK    5  A    between atoms: O_24  and  C_19 
ROOT
ATOM      1  S   UNL d   1      45.901 -17.054  44.516  0.00  0.00     0.285 S 
ATOM      2  O   UNL d   1      46.597 -17.015  44.953  0.00  0.00    -0.198 OA
ATOM      3  O   UNL d   1      45.205 -17.092  44.079  0.00  0.00    -0.198 OA
ENDROOT
BRANCH   1   4
ATOM      4  C   UNL d   1      45.895 -16.233  44.453  0.00  0.00     0.107 A 
ATOM      5  C   UNL d   1      45.212 -15.812  44.631  0.00  0.00     0.032 A 
ATOM      6  C   UNL d   1      45.206 -14.988  44.568  0.00  0.00     0.085 A 
ATOM      7  N   UNL d   1      44.618 -14.423  44.705  0.00  0.00    -0.256 N 
ATOM      8  C   UNL d   1      45.883 -14.588  44.328  0.00  0.00     0.085 A 
ATOM      9  C   UNL d   1      44.926 -13.690  44.552  0.00  0.00     0.339 A 
ATOM     10  C   UNL d   1      43.844 -14.572  44.955  0.00  0.00     0.104 C 
ATOM     11  N   UNL d   1      45.710 -13.782  44.318  0.00  0.00    -0.256 N 
ATOM     12  O   UNL d   1      44.516 -12.967  44.622  0.00  0.00    -0.245 OA
ATOM     13  C   UNL d   1      46.230 -13.168  44.110  0.00  0.00     0.104 C 
ATOM     14  C   UNL d   1      46.569 -15.010  44.150  0.00  0.00     0.020 A 
ATOM     15  C   UNL d   1      46.575 -15.834  44.212  0.00  0.00     0.015 A 
ENDBRANCH   1   4
BRANCH   1  16
ATOM     16  N   UNL d   1      45.907 -17.874  44.578  0.00  0.00    -0.156 NA
BRANCH  16  17
ATOM     17  C   UNL d   1      46.152 -18.334  43.944  0.00  0.00     0.118 A 
ATOM     18  C   UNL d   1      46.229 -17.999  43.196  0.00  0.00     0.046 A 
ATOM     19  C   UNL d   1      46.475 -18.459  42.562  0.00  0.00     0.096 A 
ATOM     20  C   UNL d   1      46.646 -19.267  42.671  0.00  0.00     0.026 A 
ATOM     21  C   UNL d   1      46.569 -19.603  43.418  0.00  0.00     0.028 A 
ATOM     22  C   UNL d   1      46.321 -19.134  44.056  0.00  0.00     0.113 A 
BRANCH  19  23
ATOM     23  O   UNL d   1      46.550 -18.117  41.817  0.00  0.00    -0.328 OA
ATOM     24  C   UNL d   1      46.628 -18.592  41.150  0.00  0.00     0.181 C 
ENDBRANCH  19  23
BRANCH  22  25
ATOM     25  O   UNL d   1      46.244 -19.469  44.804  0.00  0.00    -0.327 OA
ATOM     26  C   UNL d   1      46.113 -20.276  44.881  0.00  0.00     0.181 C 
ENDBRANCH  22  25
ENDBRANCH  16  17
ENDBRANCH   1  16
TORSDOF 5
ENDMDL
