MODEL 1
REMARK VINA RESULT:      -2.1      0.000      0.000
REMARK  5 active torsions:
REMARK  status: ('A' for Active; 'I' for Inactive)
REMARK    1  A    between atoms: C_2  and  C_1 
REMARK       I    between atoms: N_3  and  C_1 
REMARK    2  A    between atoms: C_6  and  N_4 
REMARK    3  A    between atoms: O_19  and  C_5 
REMARK    4  A    between atoms: O_22  and  C_7 
REMARK    5  A    between atoms: O_23  and  C_8 
ROOT
ATOM      1  C   UNL d   1      32.589  18.745 -24.302  0.00  0.00     0.265 C 
ATOM      2  N   UNL d   1      32.681  19.287 -23.691  0.00  0.00    -0.269 N 
ATOM      3  N   UNL d   1      32.867  20.376 -22.462  0.00  0.00    -0.301 N 
ATOM      4  C   UNL d   1      33.087  19.991 -23.823  0.00  0.00     0.102 A 
ATOM      5  C   UNL d   1      32.368  19.130 -22.940  0.00  0.00     0.102 A 
ATOM      6  C   UNL d   1      32.461  19.672 -22.330  0.00  0.00     0.100 A 
ATOM      7  C   UNL d   1      33.181  20.540 -23.206  0.00  0.00     0.100 A 
ATOM      8  O   UNL d   1      32.902  18.905 -25.049  0.00  0.00    -0.267 OA
ENDROOT
BRANCH   1   9
ATOM      9  C   UNL d   1      32.183  18.041 -24.170  0.00  0.00     0.061 A 
ATOM     10  C   UNL d   1      32.582  17.382 -23.853  0.00  0.00     0.031 A 
ATOM     11  C   UNL d   1      32.172  16.676 -23.722  0.00  0.00     0.118 A 
ATOM     12  C   UNL d   1      31.370  16.624 -23.904  0.00  0.00     0.138 A 
ATOM     13  C   UNL d   1      30.975  17.277 -24.219  0.00  0.00     0.118 A 
ATOM     14  C   UNL d   1      31.378  17.988 -24.354  0.00  0.00     0.031 A 
BRANCH  11  15
ATOM     15  O   UNL d   1      32.570  16.026 -23.407  0.00  0.00    -0.326 OA
ATOM     16  C   UNL d   1      33.237  15.723 -23.785  0.00  0.00     0.181 C 
ENDBRANCH  11  15
BRANCH  12  17
ATOM     17  O   UNL d   1      30.964  15.921 -23.773  0.00  0.00    -0.324 OA
ATOM     18  C   UNL d   1      30.334  15.901 -23.241  0.00  0.00     0.182 C 
ENDBRANCH  12  17
BRANCH  13  19
ATOM     19  O   UNL d   1      30.164  17.228 -24.405  0.00  0.00    -0.326 OA
ATOM     20  C   UNL d   1      29.768  17.898 -24.678  0.00  0.00     0.181 C 
ENDBRANCH  13  19
ENDBRANCH   1   9
BRANCH   3  21
ATOM     21  C   UNL d   1      32.959  20.921 -21.846  0.00  0.00     0.064 A 
ATOM     22  C   UNL d   1      33.079  20.654 -21.080  0.00  0.00     0.016 A 
ATOM     23  C   UNL d   1      33.171  21.190 -20.468  0.00  0.00     0.001 A 
ATOM     24  C   UNL d   1      33.107  19.845 -20.930  0.00  0.00     0.002 C 
ATOM     25  C   UNL d   1      33.143  22.008 -20.623  0.00  0.00     0.000 A 
ATOM     26  C   UNL d   1      33.022  22.273 -21.397  0.00  0.00     0.002 A 
ATOM     27  C   UNL d   1      33.235  22.551 -20.012  0.00  0.00     0.000 C 
ATOM     28  C   UNL d   1      32.930  21.730 -22.009  0.00  0.00     0.018 A 
ENDBRANCH   3  21
TORSDOF 5
ENDMDL
MODEL 2
REMARK VINA RESULT:       0.1      0.814      1.049
REMARK  5 active torsions:
REMARK  status: ('A' for Active; 'I' for Inactive)
REMARK    1  A    between atoms: C_2  and  C_1 
REMARK       I    between atoms: N_3  and  C_1 
REMARK    2  A    between atoms: C_6  and  N_4 
REMARK    3  A    between atoms: O_19  and  C_5 
REMARK    4  A    between atoms: O_22  and  C_7 
REMARK    5  A    between atoms: O_23  and  C_8 
ROOT
ATOM      1  C   UNL d   1      32.969  19.551 -24.004  0.00  0.00     0.265 C 
ATOM      2  N   UNL d   1      32.976  20.045 -23.346  0.00  0.00    -0.269 N 
ATOM      3  N   UNL d   1      32.988  21.035 -22.023  0.00  0.00    -0.301 N 
ATOM      4  C   UNL d   1      33.234  20.823 -23.417  0.00  0.00     0.102 A 
ATOM      5  C   UNL d   1      32.722  19.764 -22.609  0.00  0.00     0.102 A 
ATOM      6  C   UNL d   1      32.729  20.257 -21.952  0.00  0.00     0.100 A 
ATOM      7  C   UNL d   1      33.241  21.322 -22.753  0.00  0.00     0.100 A 
ATOM      8  O   UNL d   1      33.222  19.835 -24.736  0.00  0.00    -0.267 OA
ENDROOT
BRANCH   1   9
ATOM      9  C   UNL d   1      32.710  18.773 -23.933  0.00  0.00     0.061 A 
ATOM     10  C   UNL d   1      33.107  18.245 -23.425  0.00  0.00     0.031 A 
ATOM     11  C   UNL d   1      32.845  17.464 -23.356  0.00  0.00     0.118 A 
ATOM     12  C   UNL d   1      32.192  17.208 -23.788  0.00  0.00     0.138 A 
ATOM     13  C   UNL d   1      31.799  17.731 -24.290  0.00  0.00     0.118 A 
ATOM     14  C   UNL d   1      32.055  18.515 -24.366  0.00  0.00     0.031 A 
BRANCH  11  15
ATOM     15  O   UNL d   1      33.241  16.945 -22.852  0.00  0.00    -0.326 OA
ATOM     16  C   UNL d   1      33.113  16.974 -22.039  0.00  0.00     0.181 C 
ENDBRANCH  11  15
BRANCH  12  17
ATOM     17  O   UNL d   1      31.933  16.431 -23.717  0.00  0.00    -0.324 OA
ATOM     18  C   UNL d   1      32.277  15.837 -24.175  0.00  0.00     0.182 C 
ENDBRANCH  12  17
BRANCH  13  19
ATOM     19  O   UNL d   1      31.138  17.475 -24.729  0.00  0.00    -0.326 OA
ATOM     20  C   UNL d   1      30.529  18.005 -24.894  0.00  0.00     0.181 C 
ENDBRANCH  13  19
ENDBRANCH   1   9
BRANCH   3  21
ATOM     21  C   UNL d   1      32.994  21.531 -21.360  0.00  0.00     0.064 A 
ATOM     22  C   UNL d   1      33.109  21.212 -20.614  0.00  0.00     0.016 A 
ATOM     23  C   UNL d   1      33.115  21.699 -19.956  0.00  0.00     0.001 A 
ATOM     24  C   UNL d   1      33.218  20.399 -20.530  0.00  0.00     0.002 C 
ATOM     25  C   UNL d   1      33.005  22.520 -20.044  0.00  0.00     0.000 A 
ATOM     26  C   UNL d   1      32.889  22.837 -20.799  0.00  0.00     0.002 A 
ATOM     27  C   UNL d   1      33.010  23.014 -19.386  0.00  0.00     0.000 C 
ATOM     28  C   UNL d   1      32.883  22.343 -21.458  0.00  0.00     0.018 A 
ENDBRANCH   3  21
TORSDOF 5
ENDMDL
