MODEL 1
REMARK VINA RESULT:       9.4      0.000      0.000
REMARK  9 active torsions:
REMARK  status: ('A' for Active; 'I' for Inactive)
REMARK    1  A    between atoms: C_3  and  C_1 
REMARK    2  A    between atoms: C_4  and  C_1 
REMARK    3  A    between atoms: C_2  and  C_4 
REMARK    4  A    between atoms: O_9  and  C_2 
REMARK       I    between atoms: N_6  and  C_3 
REMARK    5  A    between atoms: N_5  and  C_4 
REMARK    6  A    between atoms: C_10  and  N_5 
REMARK    7  A    between atoms: C_11  and  N_6 
REMARK    8  A    between atoms: C_12  and  C_10 
REMARK    9  A    between atoms: C_13  and  C_11 
ROOT
ATOM      1  C   UNK d   1      46.117 -17.854  43.784  0.00  0.00     0.124 C 
ENDROOT
BRANCH   1   2
ATOM      2  C   UNK d   1      45.901 -17.871  42.977  0.00  0.00     0.194 C 
ATOM      3  O   UNK d   1      46.467 -18.007  42.402  0.00  0.00    -0.645 OA
BRANCH   2   4
ATOM      4  O   UNK d   1      45.106 -17.750  42.754  0.00  0.00    -0.772 OA
ATOM      5  H   UNK d   1      44.748 -18.261  42.212  0.00  0.00     0.167 HD
ENDBRANCH   2   4
ENDBRANCH   1   2
BRANCH   1   6
ATOM      6  C   UNK d   1      46.401 -17.158  44.123  0.00  0.00     0.084 C 
BRANCH   6   7
ATOM      7  C   UNK d   1      45.889 -16.671  44.536  0.00  0.00     0.259 C 
ATOM      8  N   UNK d   1      46.014 -15.856  44.540  0.00  0.00    -0.320 N 
ATOM      9  H   UNK d   1      46.661 -15.528  44.123  0.00  0.00     0.169 HD
ATOM     10  O   UNK d   1      45.245 -16.996  44.952  0.00  0.00    -0.267 OA
BRANCH   8  11
ATOM     11  C   UNK d   1      45.502 -15.360  44.955  0.00  0.00     0.075 C 
BRANCH  11  12
ATOM     12  C   UNK d   1      45.454 -14.552  44.768  0.00  0.00     0.017 C 
ATOM     13  C   UNK d   1      44.730 -14.212  44.564  0.00  0.00     0.002 C 
ATOM     14  C   UNK d   1      46.138 -14.085  44.787  0.00  0.00     0.002 C 
ENDBRANCH  11  12
ENDBRANCH   8  11
ENDBRANCH   6   7
ENDBRANCH   1   6
BRANCH   1  15
ATOM     15  N   UNK d   1      46.048 -18.531  44.249  0.00  0.00    -0.347 N 
ATOM     16  H   UNK d   1      45.400 -18.598  44.769  0.00  0.00     0.166 HD
BRANCH  15  17
ATOM     17  C   UNK d   0      46.613 -19.134  44.199  0.00  0.00     0.073 C 
BRANCH  17  18
ATOM     18  C   UNK d   0      46.377 -19.917  44.203  0.00  0.00     0.017 C 
ATOM     19  C   UNK d   0      46.214 -20.296  44.918  0.00  0.00     0.002 C 
ATOM     20  C   UNK d   0      46.303 -20.328  43.493  0.00  0.00     0.002 C 
ENDBRANCH  17  18
ENDBRANCH  15  17
ENDBRANCH   1  15
TORSDOF 9
ENDMDL
MODEL 2
REMARK VINA RESULT:      10.1      1.553      4.730
REMARK  9 active torsions:
REMARK  status: ('A' for Active; 'I' for Inactive)
REMARK    1  A    between atoms: C_3  and  C_1 
REMARK    2  A    between atoms: C_4  and  C_1 
REMARK    3  A    between atoms: C_2  and  C_4 
REMARK    4  A    between atoms: O_9  and  C_2 
REMARK       I    between atoms: N_6  and  C_3 
REMARK    5  A    between atoms: N_5  and  C_4 
REMARK    6  A    between atoms: C_10  and  N_5 
REMARK    7  A    between atoms: C_11  and  N_6 
REMARK    8  A    between atoms: C_12  and  C_10 
REMARK    9  A    between atoms: C_13  and  C_11 
ROOT
ATOM      1  C   UNK d   1      45.217 -14.591  44.607  0.00  0.00     0.124 C 
ENDROOT
BRANCH   1   2
ATOM      2  C   UNK d   1      44.392 -14.633  44.476  0.00  0.00     0.194 C 
ATOM      3  O   UNK d   1      43.877 -14.215  44.955  0.00  0.00    -0.645 OA
BRANCH   2   4
ATOM      4  O   UNK d   1      44.091 -15.101  43.855  0.00  0.00    -0.772 OA
ATOM      5  H   UNK d   1      44.605 -15.556  43.395  0.00  0.00     0.167 HD
ENDBRANCH   2   4
ENDBRANCH   1   2
BRANCH   1   6
ATOM      6  C   UNK d   1      45.615 -15.227  44.949  0.00  0.00     0.084 C 
BRANCH   6   7
ATOM      7  C   UNK d   1      46.007 -15.764  44.471  0.00  0.00     0.259 C 
ATOM      8  N   UNK d   1      45.973 -16.569  44.648  0.00  0.00    -0.320 N 
ATOM      9  H   UNK d   1      45.540 -16.835  45.312  0.00  0.00     0.169 HD
ATOM     10  O   UNK d   1      46.438 -15.500  43.810  0.00  0.00    -0.267 OA
BRANCH   8  11
ATOM     11  C   UNK d   1      46.366 -17.114  44.170  0.00  0.00     0.075 C 
BRANCH  11  12
ATOM     12  C   UNK d   1      46.180 -17.923  44.212  0.00  0.00     0.017 C 
ATOM     13  C   UNK d   1      45.963 -18.265  44.931  0.00  0.00     0.002 C 
ATOM     14  C   UNK d   1      46.212 -18.387  43.527  0.00  0.00     0.002 C 
ENDBRANCH  11  12
ENDBRANCH   8  11
ENDBRANCH   6   7
ENDBRANCH   1   6
BRANCH   1  15
ATOM     15  N   UNK d   1      45.639 -13.916  44.395  0.00  0.00    -0.347 N 
ATOM     16  H   UNK d   1      46.267 -13.988  43.853  0.00  0.00     0.166 HD
BRANCH  15  17
ATOM     17  C   UNK d   0      45.440 -13.179  44.715  0.00  0.00     0.073 C 
BRANCH  17  18
ATOM     18  C   UNK d   0      45.844 -12.508  44.480  0.00  0.00     0.017 C 
ATOM     19  C   UNK d   0      45.652 -12.138  43.768  0.00  0.00     0.002 C 
ATOM     20  C   UNK d   0      46.444 -12.202  44.955  0.00  0.00     0.002 C 
ENDBRANCH  17  18
ENDBRANCH  15  17
ENDBRANCH   1  15
TORSDOF 9
ENDMDL
