MODEL 1
REMARK VINA RESULT:     114.7      0.000      0.000
REMARK  6 active torsions:
REMARK  status: ('A' for Active; 'I' for Inactive)
REMARK    1  A    between atoms: C_5  and  N_1 
REMARK    2  A    between atoms: N_2  and  C_5 
REMARK    3  A    between atoms: C_12  and  C_9 
REMARK    4  A    between atoms: C_14  and  C_10 
REMARK    5  A    between atoms: O_29  and  C_20 
REMARK    6  A    between atoms: O_28  and  C_21 
ROOT
ATOM      1  N   UNL d   1      60.448  48.489  50.668  0.00  0.00    -0.211 N 
ATOM      2  N   UNL d   1      61.020  47.913  50.599  0.00  0.00    -0.164 NA
ATOM      3  C   UNL d   1      60.665  47.255  50.245  0.00  0.00     0.103 A 
ATOM      4  C   UNL d   1      59.751  48.195  50.364  0.00  0.00     0.086 A 
ATOM      5  C   UNL d   1      59.906  47.429  50.106  0.00  0.00     0.040 A 
ENDROOT
BRANCH   1   6
ATOM      6  C   UNL d   1      60.470  49.257  50.975  0.00  0.00     0.186 C 
BRANCH   6   7
ATOM      7  N   UNL d   1      60.809  49.387  51.712  0.00  0.00    -0.254 N 
ATOM      8  C   UNL d   1      61.608  49.456  51.919  0.00  0.00     0.305 A 
ATOM      9  C   UNL d   1      61.706  49.584  52.714  0.00  0.00     0.253 A 
ATOM     10  O   UNL d   1      61.565  49.330  51.115  0.00  0.00    -0.263 OA
ATOM     11  O   UNL d   1      62.414  49.680  53.121  0.00  0.00    -0.281 OA
ATOM     12  C   UNL d   1      60.938  49.598  53.039  0.00  0.00     0.060 A 
ATOM     13  C   UNL d   1      60.391  49.477  52.428  0.00  0.00     0.072 A 
ATOM     14  C   UNL d   1      60.673  49.706  53.825  0.00  0.00     0.005 A 
ATOM     15  C   UNL d   1      59.571  49.464  52.594  0.00  0.00     0.018 A 
ATOM     16  C   UNL d   1      59.319  49.572  53.369  0.00  0.00     0.002 A 
ATOM     17  C   UNL d   1      59.866  49.692  53.980  0.00  0.00     0.000 A 
ENDBRANCH   6   7
ENDBRANCH   1   6
BRANCH   4  18
ATOM     18  C   UNL d   1      59.021  48.557  50.307  0.00  0.00     0.018 A 
ATOM     19  C   UNL d   1      58.327  48.170  50.531  0.00  0.00     0.004 A 
ATOM     20  C   UNL d   1      57.582  48.547  50.470  0.00  0.00     0.024 A 
ATOM     21  C   UNL d   1      57.536  49.312  50.184  0.00  0.00     0.094 A 
ATOM     22  C   UNL d   1      58.231  49.708  49.956  0.00  0.00     0.024 A 
ATOM     23  C   UNL d   1      58.966  49.338  50.016  0.00  0.00     0.004 A 
BRANCH  21  24
ATOM     24  O   UNL d   1      56.803  49.690  50.121  0.00  0.00    -0.328 OA
ATOM     25  C   UNL d   1      56.116  49.242  49.989  0.00  0.00     0.181 C 
ENDBRANCH  21  24
ENDBRANCH   4  18
BRANCH   3  26
ATOM     26  C   UNL d   1      61.055  46.545  50.073  0.00  0.00     0.019 A 
ATOM     27  C   UNL d   1      61.058  45.940  50.644  0.00  0.00     0.004 A 
ATOM     28  C   UNL d   1      61.437  45.236  50.491  0.00  0.00     0.024 A 
ATOM     29  C   UNL d   1      61.803  45.149  49.775  0.00  0.00     0.094 A 
ATOM     30  C   UNL d   1      61.802  45.733  49.217  0.00  0.00     0.024 A 
ATOM     31  C   UNL d   1      61.423  46.438  49.370  0.00  0.00     0.004 A 
BRANCH  29  32
ATOM     32  O   UNL d   1      62.180  44.446  49.624  0.00  0.00    -0.328 OA
ATOM     33  C   UNL d   1      62.793  44.410  49.063  0.00  0.00     0.181 C 
ENDBRANCH  29  32
ENDBRANCH   3  26
TORSDOF 6
ENDMDL
