MODEL 1
REMARK VINA RESULT:       7.1      0.000      0.000
REMARK  7 active torsions:
REMARK  status: ('A' for Active; 'I' for Inactive)
REMARK    1  A    between atoms: C_8  and  C_2 
REMARK    2  A    between atoms: C_12  and  N_3 
REMARK    3  A    between atoms: C_6  and  C_4 
REMARK       I    between atoms: C_7  and  N_13 
REMARK    4  A    between atoms: C_9  and  C_7 
REMARK    5  A    between atoms: N_13  and  C_8 
REMARK    6  A    between atoms: C_11  and  C_9 
REMARK    7  A    between atoms: C_10  and  C_11 
ROOT
ATOM      1  N   UNL d   1     -42.659-122.821 -52.148  0.00  0.00    -0.165 NA
ATOM      2  C   UNL d   1     -41.669-121.865 -51.804  0.00  0.00     0.071 A 
ATOM      3  N   UNL d   1     -41.923-122.173 -53.175  0.00  0.00    -0.228 N 
ATOM      4  C   UNL d   1     -42.242-122.397 -51.581  0.00  0.00     0.105 A 
ATOM      5  C   UNL d   1     -41.505-121.749 -52.608  0.00  0.00     0.105 A 
ENDROOT
BRANCH   2   6
ATOM      6  C   UNL d   1     -41.252-121.440 -51.236  0.00  0.00     0.168 C 
BRANCH   6   7
ATOM      7  N   UNL d   1     -41.204-120.610 -51.284  0.00  0.00    -0.362 NA
ATOM      8  C   UNL d   1     -41.155-119.775 -51.336  0.00  0.00     0.329 C 
ATOM      9  O   UNL d   1     -41.125-119.312 -50.640  0.00  0.00    -0.251 OA
BRANCH   8  10
ATOM     10  C   UNL d   1     -41.137-119.400 -52.087  0.00  0.00     0.082 C 
BRANCH  10  11
ATOM     11  C   UNL d   1     -41.124-118.559 -52.137  0.00  0.00     0.076 C 
BRANCH  11  12
ATOM     12  C   UNL d   1     -41.225-118.182 -52.873  0.00  0.00     0.211 C 
ATOM     13  O   UNL d   1     -41.127-118.627 -53.574  0.00  0.00    -0.644 OA
ATOM     14  O   UNL d   1     -41.422-117.377 -52.897  0.00  0.00    -0.644 OA
ENDBRANCH  11  12
ENDBRANCH  10  11
ENDBRANCH   8  10
ENDBRANCH   6   7
ENDBRANCH   2   6
BRANCH   4  15
ATOM     15  C   UNL d   1     -42.412-122.519 -50.777  0.00  0.00     0.020 A 
ATOM     16  C   UNL d   1     -41.918-122.972 -50.325  0.00  0.00     0.008 A 
ATOM     17  C   UNL d   1     -42.088-123.091 -49.531  0.00  0.00     0.035 A 
ATOM     18 BR   UNL d   1     -41.593-123.547 -49.067  0.00  0.00    -0.049 Br
ATOM     19  C   UNL d   1     -42.769-122.742 -49.203  0.00  0.00     0.007 A 
ATOM     20  C   UNL d   1     -43.269-122.284 -49.663  0.00  0.00     0.001 A 
ATOM     21  C   UNL d   1     -43.091-122.172 -50.451  0.00  0.00     0.002 A 
ENDBRANCH   4  15
BRANCH   3  22
ATOM     22  C   UNL d   1     -41.919-122.210 -53.991  0.00  0.00     0.083 A 
ATOM     23  C   UNL d   1     -41.313-122.617 -54.368  0.00  0.00     0.019 A 
ATOM     24  C   UNL d   1     -41.309-122.654 -55.194  0.00  0.00     0.002 A 
ATOM     25  C   UNL d   1     -41.905-122.286 -55.630  0.00  0.00     0.000 A 
ATOM     26  C   UNL d   1     -42.508-121.880 -55.240  0.00  0.00     0.002 A 
ATOM     27  C   UNL d   1     -42.511-121.844 -54.422  0.00  0.00     0.019 A 
ENDBRANCH   3  22
TORSDOF 7
ENDMDL
MODEL 2
REMARK VINA RESULT:       8.7      1.801      3.330
REMARK  7 active torsions:
REMARK  status: ('A' for Active; 'I' for Inactive)
REMARK    1  A    between atoms: C_8  and  C_2 
REMARK    2  A    between atoms: C_12  and  N_3 
REMARK    3  A    between atoms: C_6  and  C_4 
REMARK       I    between atoms: C_7  and  N_13 
REMARK    4  A    between atoms: C_9  and  C_7 
REMARK    5  A    between atoms: N_13  and  C_8 
REMARK    6  A    between atoms: C_11  and  C_9 
REMARK    7  A    between atoms: C_10  and  C_11 
ROOT
ATOM      1  N   UNL d   1     -41.869-121.032 -50.763  0.00  0.00    -0.165 NA
ATOM      2  C   UNL d   1     -41.319-121.855 -51.780  0.00  0.00     0.071 A 
ATOM      3  N   UNL d   1     -41.352-120.436 -51.944  0.00  0.00    -0.228 N 
ATOM      4  C   UNL d   1     -41.673-121.776 -51.052  0.00  0.00     0.105 A 
ATOM      5  C   UNL d   1     -41.155-121.180 -52.233  0.00  0.00     0.105 A 
ENDROOT
BRANCH   2   6
ATOM      6  C   UNL d   1     -41.123-122.599 -52.069  0.00  0.00     0.168 C 
BRANCH   6   7
ATOM      7  N   UNL d   1     -41.255-122.786 -52.870  0.00  0.00    -0.362 NA
ATOM      8  C   UNL d   1     -41.389-122.971 -53.677  0.00  0.00     0.329 C 
ATOM      9  O   UNL d   1     -41.309-123.759 -53.945  0.00  0.00    -0.251 OA
BRANCH   8  10
ATOM     10  C   UNL d   1     -41.604-122.366 -54.218  0.00  0.00     0.082 C 
BRANCH  10  11
ATOM     11  C   UNL d   1     -41.851-122.567 -54.997  0.00  0.00     0.076 C 
BRANCH  11  12
ATOM     12  C   UNL d   1     -42.103-121.972 -55.522  0.00  0.00     0.211 C 
ATOM     13  O   UNL d   1     -42.922-121.839 -55.621  0.00  0.00    -0.644 OA
ATOM     14  O   UNL d   1     -41.540-121.525 -55.936  0.00  0.00    -0.644 OA
ENDBRANCH  11  12
ENDBRANCH  10  11
ENDBRANCH   8  10
ENDBRANCH   6   7
ENDBRANCH   2   6
BRANCH   4  15
ATOM     15  C   UNL d   1     -41.840-122.446 -50.592  0.00  0.00     0.020 A 
ATOM     16  C   UNL d   1     -42.595-122.578 -50.332  0.00  0.00     0.008 A 
ATOM     17  C   UNL d   1     -42.758-123.241 -49.877  0.00  0.00     0.035 A 
ATOM     18 BR   UNL d   1     -43.518-123.382 -49.610  0.00  0.00    -0.049 Br
ATOM     19  C   UNL d   1     -42.142-123.770 -49.690  0.00  0.00     0.007 A 
ATOM     20  C   UNL d   1     -41.379-123.634 -49.955  0.00  0.00     0.001 A 
ATOM     21  C   UNL d   1     -41.227-122.973 -50.406  0.00  0.00     0.002 A 
ENDBRANCH   4  15
BRANCH   3  22
ATOM     22  C   UNL d   1     -41.281-119.670 -52.218  0.00  0.00     0.083 A 
ATOM     23  C   UNL d   1     -41.218-119.057 -51.676  0.00  0.00     0.019 A 
ATOM     24  C   UNL d   1     -41.146-118.281 -51.954  0.00  0.00     0.002 A 
ATOM     25  C   UNL d   1     -41.137-118.129 -52.765  0.00  0.00     0.000 A 
ATOM     26  C   UNL d   1     -41.201-118.753 -53.300  0.00  0.00     0.002 A 
ATOM     27  C   UNL d   1     -41.272-119.521 -53.023  0.00  0.00     0.019 A 
ENDBRANCH   3  22
TORSDOF 7
ENDMDL
