MODEL 1
REMARK VINA RESULT:      50.2      0.000      0.000
REMARK  3 active torsions:
REMARK  status: ('A' for Active; 'I' for Inactive)
REMARK    1  A    between atoms: S_3  and  N_1 
REMARK    2  A    between atoms: C_7  and  C_4 
REMARK    3  A    between atoms: C_11  and  C_5 
ROOT
ATOM      1  N   UNL d   1     -51.400  24.698  33.948  0.00  0.00    -0.155 N 
ATOM      2  N   UNL d   1     -50.943  25.378  33.972  0.00  0.00    -0.156 NA
ATOM      3  C   UNL d   1     -52.145  24.886  33.616  0.00  0.00     0.102 A 
ATOM      4  C   UNL d   1     -51.404  26.002  33.652  0.00  0.00     0.104 A 
ATOM      5  C   UNL d   1     -52.133  25.688  33.440  0.00  0.00     0.041 A 
ENDROOT
BRANCH   4   6
ATOM      6  C   UNL d   1     -51.167  26.796  33.566  0.00  0.00     0.019 A 
ATOM      7  C   UNL d   1     -50.356  26.979  33.488  0.00  0.00     0.002 A 
ATOM      8  C   UNL d   1     -50.117  27.775  33.401  0.00  0.00     0.000 A 
ATOM      9  C   UNL d   1     -50.683  28.380  33.392  0.00  0.00     0.000 A 
ATOM     10  C   UNL d   1     -51.477  28.178  33.470  0.00  0.00     0.000 A 
ATOM     11  C   UNL d   1     -50.449  29.137  33.308  0.00  0.00     0.000 C 
ATOM     12  C   UNL d   1     -51.733  27.401  33.557  0.00  0.00     0.002 A 
ENDBRANCH   4   6
BRANCH   1  13
ATOM     13  S   UNL d   1     -51.144  23.936  34.219  0.00  0.00     0.266 S 
ATOM     14  O   UNL d   1     -50.916  23.188  34.515  0.00  0.00    -0.203 OA
ATOM     15  O   UNL d   1     -50.630  23.874  33.584  0.00  0.00    -0.203 OA
ATOM     16  C   UNL d   1     -51.690  24.018  34.880  0.00  0.00     0.165 C 
ENDBRANCH   1  13
BRANCH   3  17
ATOM     17  C   UNL d   1     -52.772  24.345  33.494  0.00  0.00     0.048 A 
ATOM     18  S   UNL d   1     -53.577  24.552  33.425  0.00  0.00    -0.085 SA
ATOM     19  C   UNL d   1     -53.983  23.838  33.311  0.00  0.00     0.035 A 
ATOM     20  C   UNL d   1     -53.471  23.218  33.308  0.00  0.00     0.007 A 
ATOM     21  C   UNL d   1     -52.716  23.525  33.421  0.00  0.00     0.009 A 
ENDBRANCH   3  17
TORSDOF 3
ENDMDL
