MODEL 1
REMARK VINA RESULT:      -7.9      0.000      0.000
REMARK  5 active torsions:
REMARK  status: ('A' for Active; 'I' for Inactive)
REMARK    1  A    between atoms: C_6  and  N_1 
REMARK    2  A    between atoms: C_7  and  C_2 
REMARK    3  A    between atoms: C_12  and  C_6 
REMARK    4  A    between atoms: C_11  and  C_7 
REMARK       I    between atoms: C_8  and  N_10 
REMARK    5  A    between atoms: N_10  and  C_11 
ROOT
ATOM      1  N   UNL d   1     -47.389  12.824  22.614  0.00  0.00    -0.289 N 
ATOM      2  C   UNL d   1     -46.810  12.557  23.150  0.00  0.00     0.149 A 
ATOM      3  N   UNL d   1     -46.397  13.217  23.431  0.00  0.00    -0.227 NA
ATOM      4  C   UNL d   1     -47.332  13.650  22.566  0.00  0.00     0.083 A 
ATOM      5  C   UNL d   1     -46.717  13.893  23.072  0.00  0.00     0.099 A 
ATOM      6  C   UNL d   1     -47.755  14.214  22.130  0.00  0.00     0.019 A 
ATOM      7  C   UNL d   1     -46.531  14.699  23.138  0.00  0.00     0.021 A 
ATOM      8  C   UNL d   1     -47.568  15.011  22.197  0.00  0.00     0.002 A 
ATOM      9  C   UNL d   1     -46.959  15.253  22.699  0.00  0.00     0.002 A 
ENDROOT
BRANCH   1  10
ATOM     10  C   UNL d   1     -47.927  12.352  22.202  0.00  0.00     0.082 C 
BRANCH  10  11
ATOM     11  C   UNL d   1     -48.648  12.150  22.545  0.00  0.00     0.018 A 
ATOM     12  C   UNL d   1     -48.674  11.942  23.341  0.00  0.00     0.002 A 
ATOM     13  C   UNL d   1     -49.399  11.737  23.693  0.00  0.00     0.000 A 
ATOM     14  C   UNL d   1     -50.077  11.746  23.234  0.00  0.00     0.000 A 
ATOM     15  C   UNL d   1     -50.048  11.955  22.435  0.00  0.00     0.000 A 
ATOM     16  C   UNL d   1     -49.328  12.157  22.092  0.00  0.00     0.002 A 
ENDBRANCH  10  11
ENDBRANCH   1  10
BRANCH   2  17
ATOM     17  C   UNL d   1     -46.388  12.000  23.584  0.00  0.00     0.058 C 
BRANCH  17  18
ATOM     18  C   UNL d   1     -45.652  11.745  23.319  0.00  0.00     0.105 C 
BRANCH  18  19
ATOM     19  N   UNL d   1     -45.347  11.028  23.582  0.00  0.00    -0.206 NA
ATOM     20  C   UNL d   1     -44.566  10.831  23.430  0.00  0.00     0.280 C 
ATOM     21  O   UNL d   1     -44.086  11.355  23.011  0.00  0.00    -0.265 OA
ATOM     22  C   UNL d   1     -44.259  10.111  23.693  0.00  0.00     0.068 C 
ENDBRANCH  18  19
ENDBRANCH  17  18
ENDBRANCH   2  17
TORSDOF 5
ENDMDL
MODEL 2
REMARK VINA RESULT:      -7.5      1.487      2.842
REMARK  5 active torsions:
REMARK  status: ('A' for Active; 'I' for Inactive)
REMARK    1  A    between atoms: C_6  and  N_1 
REMARK    2  A    between atoms: C_7  and  C_2 
REMARK    3  A    between atoms: C_12  and  C_6 
REMARK    4  A    between atoms: C_11  and  C_7 
REMARK       I    between atoms: C_8  and  N_10 
REMARK    5  A    between atoms: N_10  and  C_11 
ROOT
ATOM      1  N   UNL d   1     -48.137  13.121  22.452  0.00  0.00    -0.289 N 
ATOM      2  C   UNL d   1     -47.337  13.151  22.681  0.00  0.00     0.149 A 
ATOM      3  N   UNL d   1     -47.190  12.510  23.183  0.00  0.00    -0.227 NA
ATOM      4  C   UNL d   1     -48.483  12.461  22.815  0.00  0.00     0.083 A 
ATOM      5  C   UNL d   1     -47.896  12.081  23.268  0.00  0.00     0.099 A 
ATOM      6  C   UNL d   1     -49.252  12.152  22.795  0.00  0.00     0.019 A 
ATOM      7  C   UNL d   1     -48.083  11.397  23.697  0.00  0.00     0.021 A 
ATOM      8  C   UNL d   1     -49.434  11.474  23.221  0.00  0.00     0.002 A 
ATOM      9  C   UNL d   1     -48.853  11.098  23.670  0.00  0.00     0.002 A 
ENDROOT
BRANCH   1  10
ATOM     10  C   UNL d   1     -48.522  13.654  21.953  0.00  0.00     0.082 C 
BRANCH  10  11
ATOM     11  C   UNL d   1     -48.878  14.329  22.262  0.00  0.00     0.018 A 
ATOM     12  C   UNL d   1     -49.699  14.380  22.289  0.00  0.00     0.002 A 
ATOM     13  C   UNL d   1     -50.064  15.058  22.601  0.00  0.00     0.000 A 
ATOM     14  C   UNL d   1     -49.593  15.668  22.877  0.00  0.00     0.000 A 
ATOM     15  C   UNL d   1     -48.768  15.616  22.849  0.00  0.00     0.000 A 
ATOM     16  C   UNL d   1     -48.412  14.942  22.540  0.00  0.00     0.002 A 
ENDBRANCH  10  11
ENDBRANCH   1  10
BRANCH   2  17
ATOM     17  C   UNL d   1     -46.572  13.454  22.702  0.00  0.00     0.058 C 
BRANCH  17  18
ATOM     18  C   UNL d   1     -45.976  13.095  22.265  0.00  0.00     0.105 C 
BRANCH  18  19
ATOM     19  N   UNL d   1     -45.219  13.418  22.261  0.00  0.00    -0.206 NA
ATOM     20  C   UNL d   1     -44.634  13.093  21.787  0.00  0.00     0.280 C 
ATOM     21  O   UNL d   1     -44.808  12.441  21.312  0.00  0.00    -0.265 OA
ATOM     22  C   UNL d   1     -43.875  13.416  21.782  0.00  0.00     0.068 C 
ENDBRANCH  18  19
ENDBRANCH  17  18
ENDBRANCH   2  17
TORSDOF 5
ENDMDL
MODEL 3
REMARK VINA RESULT:      -6.8      1.476      2.041
REMARK  5 active torsions:
REMARK  status: ('A' for Active; 'I' for Inactive)
REMARK    1  A    between atoms: C_6  and  N_1 
REMARK    2  A    between atoms: C_7  and  C_2 
REMARK    3  A    between atoms: C_12  and  C_6 
REMARK    4  A    between atoms: C_11  and  C_7 
REMARK       I    between atoms: C_8  and  N_10 
REMARK    5  A    between atoms: N_10  and  C_11 
ROOT
ATOM      1  N   UNL d   1     -48.355  13.807  23.141  0.00  0.00    -0.289 N 
ATOM      2  C   UNL d   1     -47.734  13.984  22.615  0.00  0.00     0.149 A 
ATOM      3  N   UNL d   1     -47.851  14.753  22.331  0.00  0.00    -0.227 NA
ATOM      4  C   UNL d   1     -48.854  14.467  23.181  0.00  0.00     0.083 A 
ATOM      5  C   UNL d   1     -48.542  15.054  22.679  0.00  0.00     0.099 A 
ATOM      6  C   UNL d   1     -49.550  14.616  23.605  0.00  0.00     0.019 A 
ATOM      7  C   UNL d   1     -48.929  15.783  22.605  0.00  0.00     0.021 A 
ATOM      8  C   UNL d   1     -49.931  15.340  23.531  0.00  0.00     0.002 A 
ATOM      9  C   UNL d   1     -49.622  15.921  23.033  0.00  0.00     0.002 A 
ENDROOT
BRANCH   1  10
ATOM     10  C   UNL d   1     -48.458  13.098  23.553  0.00  0.00     0.082 C 
BRANCH  10  11
ATOM     11  C   UNL d   1     -48.969  12.521  23.264  0.00  0.00     0.018 A 
ATOM     12  C   UNL d   1     -49.637  12.316  23.698  0.00  0.00     0.002 A 
ATOM     13  C   UNL d   1     -50.157  11.735  23.411  0.00  0.00     0.000 A 
ATOM     14  C   UNL d   1     -49.990  11.375  22.695  0.00  0.00     0.000 A 
ATOM     15  C   UNL d   1     -49.319  11.582  22.260  0.00  0.00     0.000 A 
ATOM     16  C   UNL d   1     -48.807  12.159  22.549  0.00  0.00     0.002 A 
ENDBRANCH  10  11
ENDBRANCH   1  10
BRANCH   2  17
ATOM     17  C   UNL d   1     -47.043  13.840  22.193  0.00  0.00     0.058 C 
BRANCH  17  18
ATOM     18  C   UNL d   1     -46.366  13.591  22.587  0.00  0.00     0.105 C 
BRANCH  18  19
ATOM     19  N   UNL d   1     -45.655  13.524  22.179  0.00  0.00    -0.206 NA
ATOM     20  C   UNL d   1     -45.104  12.958  22.399  0.00  0.00     0.280 C 
ATOM     21  O   UNL d   1     -45.265  12.455  23.033  0.00  0.00    -0.265 OA
ATOM     22  C   UNL d   1     -44.390  12.890  21.990  0.00  0.00     0.068 C 
ENDBRANCH  18  19
ENDBRANCH  17  18
ENDBRANCH   2  17
TORSDOF 5
ENDMDL
MODEL 4
REMARK VINA RESULT:      -6.6      1.173      2.989
REMARK  5 active torsions:
REMARK  status: ('A' for Active; 'I' for Inactive)
REMARK    1  A    between atoms: C_6  and  N_1 
REMARK    2  A    between atoms: C_7  and  C_2 
REMARK    3  A    between atoms: C_12  and  C_6 
REMARK    4  A    between atoms: C_11  and  C_7 
REMARK       I    between atoms: C_8  and  N_10 
REMARK    5  A    between atoms: N_10  and  C_11 
ROOT
ATOM      1  N   UNL d   1     -48.784  12.953  23.505  0.00  0.00    -0.289 N 
ATOM      2  C   UNL d   1     -48.330  12.289  23.289  0.00  0.00     0.149 A 
ATOM      3  N   UNL d   1     -48.847  11.653  23.174  0.00  0.00    -0.227 NA
ATOM      4  C   UNL d   1     -49.581  12.725  23.523  0.00  0.00     0.083 A 
ATOM      5  C   UNL d   1     -49.620  11.918  23.318  0.00  0.00     0.099 A 
ATOM      6  C   UNL d   1     -50.277  13.139  23.697  0.00  0.00     0.019 A 
ATOM      7  C   UNL d   1     -50.354  11.534  23.289  0.00  0.00     0.021 A 
ATOM      8  C   UNL d   1     -51.003  12.756  23.668  0.00  0.00     0.002 A 
ATOM      9  C   UNL d   1     -51.041  11.957  23.465  0.00  0.00     0.002 A 
ENDROOT
BRANCH   1  10
ATOM     10  C   UNL d   1     -48.495  13.709  23.672  0.00  0.00     0.082 C 
BRANCH  10  11
ATOM     11  C   UNL d   1     -48.444  14.274  23.076  0.00  0.00     0.018 A 
ATOM     12  C   UNL d   1     -47.876  14.192  22.486  0.00  0.00     0.002 A 
ATOM     13  C   UNL d   1     -47.819  14.760  21.882  0.00  0.00     0.000 A 
ATOM     14  C   UNL d   1     -48.336  15.395  21.886  0.00  0.00     0.000 A 
ATOM     15  C   UNL d   1     -48.906  15.475  22.479  0.00  0.00     0.000 A 
ATOM     16  C   UNL d   1     -48.958  14.910  23.076  0.00  0.00     0.002 A 
ENDBRANCH  10  11
ENDBRANCH   1  10
BRANCH   2  17
ATOM     17  C   UNL d   1     -47.641  11.874  23.115  0.00  0.00     0.058 C 
BRANCH  17  18
ATOM     18  C   UNL d   1     -47.058  11.790  23.689  0.00  0.00     0.105 C 
BRANCH  18  19
ATOM     19  N   UNL d   1     -46.581  11.120  23.694  0.00  0.00    -0.206 NA
ATOM     20  C   UNL d   1     -45.765  11.193  23.668  0.00  0.00     0.280 C 
ATOM     21  O   UNL d   1     -45.423  11.943  23.636  0.00  0.00    -0.265 OA
ATOM     22  C   UNL d   1     -45.286  10.521  23.673  0.00  0.00     0.068 C 
ENDBRANCH  18  19
ENDBRANCH  17  18
ENDBRANCH   2  17
TORSDOF 5
ENDMDL
MODEL 5
REMARK VINA RESULT:      -6.0      8.385      9.615
REMARK  5 active torsions:
REMARK  status: ('A' for Active; 'I' for Inactive)
REMARK    1  A    between atoms: C_6  and  N_1 
REMARK    2  A    between atoms: C_7  and  C_2 
REMARK    3  A    between atoms: C_12  and  C_6 
REMARK    4  A    between atoms: C_11  and  C_7 
REMARK       I    between atoms: C_8  and  N_10 
REMARK    5  A    between atoms: N_10  and  C_11 
ROOT
ATOM      1  N   UNL d   1     -39.383  14.787  18.130  0.00  0.00    -0.289 N 
ATOM      2  C   UNL d   1     -39.760  14.586  18.845  0.00  0.00     0.149 A 
ATOM      3  N   UNL d   1     -40.540  14.859  18.807  0.00  0.00    -0.227 NA
ATOM      4  C   UNL d   1     -39.932  15.183  17.652  0.00  0.00     0.083 A 
ATOM      5  C   UNL d   1     -40.650  15.228  18.072  0.00  0.00     0.099 A 
ATOM      6  C   UNL d   1     -39.878  15.510  16.892  0.00  0.00     0.019 A 
ATOM      7  C   UNL d   1     -41.307  15.600  17.728  0.00  0.00     0.021 A 
ATOM      8  C   UNL d   1     -40.531  15.877  16.554  0.00  0.00     0.002 A 
ATOM      9  C   UNL d   1     -41.242  15.922  16.970  0.00  0.00     0.002 A 
ENDROOT
BRANCH   1  10
ATOM     10  C   UNL d   1     -38.599  14.621  17.928  0.00  0.00     0.082 C 
BRANCH  10  11
ATOM     11  C   UNL d   1     -38.406  13.906  17.569  0.00  0.00     0.018 A 
ATOM     12  C   UNL d   1     -38.491  13.204  17.991  0.00  0.00     0.002 A 
ATOM     13  C   UNL d   1     -38.298  12.478  17.634  0.00  0.00     0.000 A 
ATOM     14  C   UNL d   1     -38.025  12.479  16.862  0.00  0.00     0.000 A 
ATOM     15  C   UNL d   1     -37.940  13.184  16.440  0.00  0.00     0.000 A 
ATOM     16  C   UNL d   1     -38.132  13.900  16.799  0.00  0.00     0.002 A 
ENDBRANCH  10  11
ENDBRANCH   1  10
BRANCH   2  17
ATOM     17  C   UNL d   1     -39.817  14.263  19.599  0.00  0.00     0.058 C 
BRANCH  17  18
ATOM     18  C   UNL d   1     -39.597  14.710  20.254  0.00  0.00     0.105 C 
BRANCH  18  19
ATOM     19  N   UNL d   1     -39.417  14.335  20.964  0.00  0.00    -0.206 NA
ATOM     20  C   UNL d   1     -39.253  14.777  21.634  0.00  0.00     0.280 C 
ATOM     21  O   UNL d   1     -39.268  15.601  21.594  0.00  0.00    -0.265 OA
ATOM     22  C   UNL d   1     -39.072  14.402  22.347  0.00  0.00     0.068 C 
ENDBRANCH  18  19
ENDBRANCH  17  18
ENDBRANCH   2  17
TORSDOF 5
ENDMDL
MODEL 6
REMARK VINA RESULT:      -5.1      7.702      9.308
REMARK  5 active torsions:
REMARK  status: ('A' for Active; 'I' for Inactive)
REMARK    1  A    between atoms: C_6  and  N_1 
REMARK    2  A    between atoms: C_7  and  C_2 
REMARK    3  A    between atoms: C_12  and  C_6 
REMARK    4  A    between atoms: C_11  and  C_7 
REMARK       I    between atoms: C_8  and  N_10 
REMARK    5  A    between atoms: N_10  and  C_11 
ROOT
ATOM      1  N   UNL d   1     -39.288  14.989  20.351  0.00  0.00    -0.289 N 
ATOM      2  C   UNL d   1     -39.347  14.712  19.568  0.00  0.00     0.149 A 
ATOM      3  N   UNL d   1     -40.118  14.856  19.304  0.00  0.00    -0.227 NA
ATOM      4  C   UNL d   1     -40.023  15.304  20.568  0.00  0.00     0.083 A 
ATOM      5  C   UNL d   1     -40.538  15.222  19.918  0.00  0.00     0.099 A 
ATOM      6  C   UNL d   1     -40.295  15.656  21.268  0.00  0.00     0.019 A 
ATOM      7  C   UNL d   1     -41.320  15.491  19.975  0.00  0.00     0.021 A 
ATOM      8  C   UNL d   1     -41.071  15.921  21.320  0.00  0.00     0.002 A 
ATOM      9  C   UNL d   1     -41.581  15.840  20.677  0.00  0.00     0.002 A 
ENDROOT
BRANCH   1  10
ATOM     10  C   UNL d   1     -38.616  14.957  20.830  0.00  0.00     0.082 C 
BRANCH  10  11
ATOM     11  C   UNL d   1     -38.444  14.275  21.258  0.00  0.00     0.018 A 
ATOM     12  C   UNL d   1     -38.115  13.626  20.872  0.00  0.00     0.002 A 
ATOM     13  C   UNL d   1     -37.940  12.935  21.298  0.00  0.00     0.000 A 
ATOM     14  C   UNL d   1     -38.099  12.914  22.101  0.00  0.00     0.000 A 
ATOM     15  C   UNL d   1     -38.429  13.567  22.487  0.00  0.00     0.000 A 
ATOM     16  C   UNL d   1     -38.601  14.249  22.060  0.00  0.00     0.002 A 
ENDBRANCH  10  11
ENDBRANCH   1  10
BRANCH   2  17
ATOM     17  C   UNL d   1     -39.081  14.364  18.872  0.00  0.00     0.058 C 
BRANCH  17  18
ATOM     18  C   UNL d   1     -39.019  14.813  18.186  0.00  0.00     0.105 C 
BRANCH  18  19
ATOM     19  N   UNL d   1     -38.723  14.474  17.498  0.00  0.00    -0.206 NA
ATOM     20  C   UNL d   1     -38.612  14.930  16.826  0.00  0.00     0.280 C 
ATOM     21  O   UNL d   1     -38.799  15.734  16.843  0.00  0.00    -0.265 OA
ATOM     22  C   UNL d   1     -38.314  14.591  16.136  0.00  0.00     0.068 C 
ENDBRANCH  18  19
ENDBRANCH  17  18
ENDBRANCH   2  17
TORSDOF 5
ENDMDL
