MODEL 1
REMARK VINA RESULT:      37.6      0.000      0.000
REMARK  2 active torsions:
REMARK  status: ('A' for Active; 'I' for Inactive)
REMARK    1  A    between atoms: C_13  and  N_5 
REMARK    2  A    between atoms: C_19  and  C_12 
ROOT
ATOM      1  C   UNL d   1      13.540  13.106  -3.355  0.00  0.00     0.170 A 
ATOM      2  C   UNL d   1      13.201  13.256  -4.067  0.00  0.00     0.093 A 
ATOM      3  N   UNL d   1      13.593  14.586  -3.991  0.00  0.00    -0.256 N 
ATOM      4  C   UNL d   1      13.222  13.998  -4.397  0.00  0.00     0.176 A 
ATOM      5  N   UNL d   1      13.515  12.371  -3.036  0.00  0.00    -0.212 N 
ATOM      6  N   UNL d   1      13.910  13.708  -2.959  0.00  0.00    -0.206 NA
ATOM      7  N   UNL d   1      12.882  14.139  -5.105  0.00  0.00    -0.128 NA
ATOM      8  N   UNL d   1      13.142  11.779  -3.443  0.00  0.00    -0.162 NA
ATOM      9  C   UNL d   1      13.932  14.435  -3.278  0.00  0.00     0.187 A 
ATOM     10  N   UNL d   1      13.280  15.466  -5.017  0.00  0.00    -0.128 NA
ATOM     11  C   UNL d   1      12.803  11.920  -4.152  0.00  0.00     0.127 A 
ATOM     12  C   UNL d   1      13.619  15.321  -4.308  0.00  0.00     0.172 A 
ENDROOT
BRANCH   5  13
ATOM     13  C   UNL d   1      13.866  12.225  -2.304  0.00  0.00     0.085 A 
ATOM     14  C   UNL d   1      13.401  12.129  -1.638  0.00  0.00     0.019 A 
ATOM     15  C   UNL d   1      13.761  11.982  -0.896  0.00  0.00     0.002 A 
ATOM     16  C   UNL d   1      13.272  11.878  -0.180  0.00  0.00     0.000 C 
ATOM     17  C   UNL d   1      14.589  11.932  -0.835  0.00  0.00     0.000 A 
ATOM     18  C   UNL d   1      15.058  12.031  -1.522  0.00  0.00     0.002 A 
ATOM     19  C   UNL d   1      14.966  11.779  -0.067  0.00  0.00     0.000 C 
ATOM     20  C   UNL d   1      14.703  12.177  -2.252  0.00  0.00     0.019 A 
ENDBRANCH   5  13
BRANCH  12  21
ATOM     21  C   UNL d   1      13.987  15.919  -3.914  0.00  0.00     0.039 C 
ATOM     22  C   UNL d   1      14.520  16.377  -4.292  0.00  0.00     0.003 C 
ENDBRANCH  12  21
TORSDOF 2
ENDMDL
