MODEL 1
REMARK VINA RESULT:       8.3      0.000      0.000
REMARK  5 active torsions:
REMARK  status: ('A' for Active; 'I' for Inactive)
REMARK    1  A    between atoms: C_7  and  C_1 
REMARK    2  A    between atoms: C_8  and  C_2 
REMARK    3  A    between atoms: O_22  and  C_8 
REMARK    4  A    between atoms: C_24  and  C_14 
REMARK    5  A    between atoms: C_27  and  O_22 
ROOT
ATOM      1  C   UNL d   1     -42.328-122.709 -50.878  0.00  0.00     0.067 A 
ATOM      2  C   UNL d   1     -42.749-122.025 -51.067  0.00  0.00     0.166 A 
ATOM      3  C   UNL d   1     -41.918-123.117 -51.473  0.00  0.00     0.200 A 
ATOM      4  C   UNL d   1     -41.931-122.842 -52.249  0.00  0.00     0.062 A 
ATOM      5  O   UNL d   1     -42.760-121.749 -51.850  0.00  0.00    -0.301 OA
ATOM      6  C   UNL d   1     -42.352-122.158 -52.437  0.00  0.00     0.106 A 
ATOM      7  C   UNL d   1     -41.523-123.250 -52.835  0.00  0.00     0.008 A 
ATOM      8  C   UNL d   1     -42.365-121.882 -53.212  0.00  0.00     0.067 A 
ATOM      9  C   UNL d   1     -41.957-122.290 -53.800  0.00  0.00     0.198 A 
ATOM     10  C   UNL d   1     -41.536-122.974 -53.611  0.00  0.00     0.039 A 
ATOM     11  O   UNL d   1     -41.497-123.801 -51.284  0.00  0.00    -0.286 OA
ATOM     12  O   UNL d   1     -41.967-122.015 -54.588  0.00  0.00    -0.286 OA
ENDROOT
BRANCH   1  13
ATOM     13  C   UNL d   1     -42.316-122.984 -50.102  0.00  0.00     0.007 A 
ATOM     14  C   UNL d   1     -41.734-122.719 -49.578  0.00  0.00     0.027 A 
ATOM     15  C   UNL d   1     -41.722-122.995 -48.803  0.00  0.00     0.123 A 
ATOM     16  O   UNL d   1     -41.139-122.727 -48.283  0.00  0.00    -0.301 OA
ATOM     17  C   UNL d   1     -42.290-123.536 -48.547  0.00  0.00     0.123 A 
ATOM     18  C   UNL d   1     -41.130-123.011 -47.492  0.00  0.00     0.149 A 
ATOM     19  C   UNL d   1     -41.695-123.552 -47.229  0.00  0.00     0.149 A 
ATOM     20  O   UNL d   1     -42.279-123.817 -47.758  0.00  0.00    -0.301 OA
ATOM     21  C   UNL d   1     -42.872-123.801 -49.072  0.00  0.00     0.027 A 
ATOM     22  C   UNL d   1     -42.884-123.525 -49.847  0.00  0.00     0.002 A 
ENDBRANCH   1  13
BRANCH   2  23
ATOM     23  C   UNL d   1     -43.159-121.616 -50.476  0.00  0.00     0.323 C 
ATOM     24  O   UNL d   1     -42.774-121.034 -50.035  0.00  0.00    -0.257 OA
BRANCH  23  25
ATOM     25  O   UNL d   1     -43.950-121.790 -50.327  0.00  0.00    -0.270 OA
BRANCH  25  26
ATOM     26  C   UNL d   1     -44.484-121.180 -50.187  0.00  0.00     0.126 C 
ATOM     27  C   UNL d   1     -45.287-121.348 -50.109  0.00  0.00     0.029 C 
ENDBRANCH  25  26
ENDBRANCH  23  25
ENDBRANCH   2  23
BRANCH  10  28
ATOM     28  C   UNL d   1     -41.127-123.383 -54.203  0.00  0.00     0.003 C 
ATOM     29  C   UNL d   1     -41.407-123.386 -54.979  0.00  0.00     0.000 C 
ENDBRANCH  10  28
TORSDOF 5
ENDMDL
