MODEL 1
REMARK VINA RESULT:      -3.0      0.000      0.000
REMARK  1 active torsions:
REMARK  status: ('A' for Active; 'I' for Inactive)
REMARK    1  A    between atoms: C_5  and  C_1 
ROOT
ATOM      1  C   UNL d   1      29.401  16.576 -24.104  0.00  0.00     0.128 A 
ATOM      2  C   UNL d   1      29.459  17.306 -24.539  0.00  0.00     0.306 A 
ATOM      3  C   UNL d   1      30.081  16.257 -23.787  0.00  0.00     0.013 A 
ATOM      4  O   UNL d   1      30.192  17.665 -24.625  0.00  0.00    -0.273 OA
ATOM      5  C   UNL d   1      30.820  16.627 -23.878  0.00  0.00     0.023 A 
ATOM      6  C   UNL d   1      30.876  17.337 -24.300  0.00  0.00     0.103 A 
ATOM      7  O   UNL d   1      28.783  17.672 -24.885  0.00  0.00    -0.259 OA
ATOM      8  C   UNL d   1      31.470  16.287 -23.552  0.00  0.00     0.002 A 
ATOM      9  C   UNL d   1      31.581  17.695 -24.390  0.00  0.00     0.025 A 
ATOM     10  C   UNL d   1      32.211  16.636 -23.630  0.00  0.00     0.000 A 
ATOM     11  C   UNL d   1      32.269  17.367 -24.065  0.00  0.00     0.002 A 
ENDROOT
BRANCH   1  12
ATOM     12  C   UNL d   1      28.692  16.227 -24.021  0.00  0.00     0.216 C 
ATOM     13  O   UNL d   1      28.442  15.610 -24.509  0.00  0.00    -0.644 OA
ATOM     14  O   UNL d   1      28.093  16.370 -23.494  0.00  0.00    -0.644 OA
ENDBRANCH   1  12
TORSDOF 1
ENDMDL
MODEL 2
REMARK VINA RESULT:      -2.9      1.172      2.819
REMARK  1 active torsions:
REMARK  status: ('A' for Active; 'I' for Inactive)
REMARK    1  A    between atoms: C_5  and  C_1 
ROOT
ATOM      1  C   UNL d   1      31.239  16.703 -23.973  0.00  0.00     0.128 A 
ATOM      2  C   UNL d   1      30.808  17.308 -24.391  0.00  0.00     0.306 A 
ATOM      3  C   UNL d   1      30.819  16.113 -23.600  0.00  0.00     0.013 A 
ATOM      4  O   UNL d   1      29.988  17.278 -24.406  0.00  0.00    -0.273 OA
ATOM      5  C   UNL d   1      29.988  16.090 -23.619  0.00  0.00     0.023 A 
ATOM      6  C   UNL d   1      29.570  16.677 -24.026  0.00  0.00     0.103 A 
ATOM      7  O   UNL d   1      31.201  17.937 -24.791  0.00  0.00    -0.259 OA
ATOM      8  C   UNL d   1      29.604  15.495 -23.242  0.00  0.00     0.002 A 
ATOM      9  C   UNL d   1      28.774  16.660 -24.047  0.00  0.00     0.025 A 
ATOM     10  C   UNL d   1      28.783  15.453 -23.248  0.00  0.00     0.000 A 
ATOM     11  C   UNL d   1      28.352  16.058 -23.666  0.00  0.00     0.002 A 
ENDROOT
BRANCH   1  12
ATOM     12  C   UNL d   1      32.033  16.731 -23.958  0.00  0.00     0.216 C 
ATOM     13  O   UNL d   1      32.452  17.083 -23.340  0.00  0.00    -0.644 OA
ATOM     14  O   UNL d   1      32.580  16.453 -24.487  0.00  0.00    -0.644 OA
ENDBRANCH   1  12
TORSDOF 1
ENDMDL
MODEL 3
REMARK VINA RESULT:      -2.8      5.669      6.637
REMARK  1 active torsions:
REMARK  status: ('A' for Active; 'I' for Inactive)
REMARK    1  A    between atoms: C_5  and  C_1 
ROOT
ATOM      1  C   UNL d   1      32.379  22.704 -21.103  0.00  0.00     0.128 A 
ATOM      2  C   UNL d   1      32.640  22.882 -21.894  0.00  0.00     0.306 A 
ATOM      3  C   UNL d   1      32.411  21.931 -20.848  0.00  0.00     0.013 A 
ATOM      4  O   UNL d   1      32.914  22.275 -22.373  0.00  0.00    -0.273 OA
ATOM      5  C   UNL d   1      32.689  21.320 -21.339  0.00  0.00     0.023 A 
ATOM      6  C   UNL d   1      32.943  21.494 -22.108  0.00  0.00     0.103 A 
ATOM      7  O   UNL d   1      32.625  23.667 -22.201  0.00  0.00    -0.259 OA
ATOM      8  C   UNL d   1      32.708  20.569 -21.057  0.00  0.00     0.002 A 
ATOM      9  C   UNL d   1      33.211  20.913 -22.582  0.00  0.00     0.025 A 
ATOM     10  C   UNL d   1      32.980  19.950 -21.526  0.00  0.00     0.000 A 
ATOM     11  C   UNL d   1      33.241  20.129 -22.317  0.00  0.00     0.002 A 
ENDROOT
BRANCH   1  12
ATOM     12  C   UNL d   1      32.114  23.292 -20.639  0.00  0.00     0.216 C 
ATOM     13  O   UNL d   1      32.557  23.596 -20.013  0.00  0.00    -0.644 OA
ATOM     14  O   UNL d   1      31.415  23.702 -20.656  0.00  0.00    -0.644 OA
ENDBRANCH   1  12
TORSDOF 1
ENDMDL
MODEL 4
REMARK VINA RESULT:      -2.3      6.497      7.077
REMARK  1 active torsions:
REMARK  status: ('A' for Active; 'I' for Inactive)
REMARK    1  A    between atoms: C_5  and  C_1 
ROOT
ATOM      1  C   UNL d   1      32.542  22.556 -21.189  0.00  0.00     0.128 A 
ATOM      2  C   UNL d   1      32.139  23.301 -21.273  0.00  0.00     0.306 A 
ATOM      3  C   UNL d   1      32.900  22.230 -21.845  0.00  0.00     0.013 A 
ATOM      4  O   UNL d   1      32.122  23.667 -22.007  0.00  0.00    -0.273 OA
ATOM      5  C   UNL d   1      32.878  22.607 -22.585  0.00  0.00     0.023 A 
ATOM      6  C   UNL d   1      32.486  23.332 -22.667  0.00  0.00     0.103 A 
ATOM      7  O   UNL d   1      31.755  23.675 -20.622  0.00  0.00    -0.259 OA
ATOM      8  C   UNL d   1      33.240  22.261 -23.212  0.00  0.00     0.002 A 
ATOM      9  C   UNL d   1      32.462  23.698 -23.374  0.00  0.00     0.025 A 
ATOM     10  C   UNL d   1      33.231  22.617 -23.953  0.00  0.00     0.000 A 
ATOM     11  C   UNL d   1      32.828  23.362 -24.038  0.00  0.00     0.002 A 
ENDROOT
BRANCH   1  12
ATOM     12  C   UNL d   1      32.559  22.200 -20.478  0.00  0.00     0.216 C 
ATOM     13  O   UNL d   1      31.989  21.651 -20.244  0.00  0.00    -0.644 OA
ATOM     14  O   UNL d   1      33.082  22.275 -19.863  0.00  0.00    -0.644 OA
ENDBRANCH   1  12
TORSDOF 1
ENDMDL
MODEL 5
REMARK VINA RESULT:      -2.2      4.310      5.341
REMARK  1 active torsions:
REMARK  status: ('A' for Active; 'I' for Inactive)
REMARK    1  A    between atoms: C_5  and  C_1 
ROOT
ATOM      1  C   UNL d   1      32.937  19.772 -22.488  0.00  0.00     0.128 A 
ATOM      2  C   UNL d   1      33.138  20.337 -23.093  0.00  0.00     0.306 A 
ATOM      3  C   UNL d   1      32.847  20.037 -21.722  0.00  0.00     0.013 A 
ATOM      4  O   UNL d   1      33.233  21.126 -22.890  0.00  0.00    -0.273 OA
ATOM      5  C   UNL d   1      32.946  20.838 -21.524  0.00  0.00     0.023 A 
ATOM      6  C   UNL d   1      33.141  21.387 -22.112  0.00  0.00     0.103 A 
ATOM      7  O   UNL d   1      33.241  20.108 -23.898  0.00  0.00    -0.259 OA
ATOM      8  C   UNL d   1      32.850  21.067 -20.761  0.00  0.00     0.002 A 
ATOM      9  C   UNL d   1      33.236  22.156 -21.928  0.00  0.00     0.025 A 
ATOM     10  C   UNL d   1      32.943  21.855 -20.543  0.00  0.00     0.000 A 
ATOM     11  C   UNL d   1      33.143  22.420 -21.148  0.00  0.00     0.002 A 
ENDROOT
BRANCH   1  12
ATOM     12  C   UNL d   1      32.844  19.007 -22.684  0.00  0.00     0.216 C 
ATOM     13  O   UNL d   1      32.277  18.756 -23.228  0.00  0.00    -0.644 OA
ATOM     14  O   UNL d   1      33.238  18.346 -22.430  0.00  0.00    -0.644 OA
ENDBRANCH   1  12
TORSDOF 1
ENDMDL
MODEL 6
REMARK VINA RESULT:      -2.2      5.464      6.426
REMARK  1 active torsions:
REMARK  status: ('A' for Active; 'I' for Inactive)
REMARK    1  A    between atoms: C_5  and  C_1 
ROOT
ATOM      1  C   UNL d   1      32.920  20.906 -21.742  0.00  0.00     0.128 A 
ATOM      2  C   UNL d   1      33.040  21.414 -22.415  0.00  0.00     0.306 A 
ATOM      3  C   UNL d   1      32.728  21.245 -21.027  0.00  0.00     0.013 A 
ATOM      4  O   UNL d   1      32.959  22.226 -22.324  0.00  0.00    -0.273 OA
ATOM      5  C   UNL d   1      32.647  22.068 -20.942  0.00  0.00     0.023 A 
ATOM      6  C   UNL d   1      32.764  22.562 -21.596  0.00  0.00     0.103 A 
ATOM      7  O   UNL d   1      33.239  21.108 -23.175  0.00  0.00    -0.259 OA
ATOM      8  C   UNL d   1      32.457  22.371 -20.224  0.00  0.00     0.002 A 
ATOM      9  C   UNL d   1      32.688  23.352 -21.521  0.00  0.00     0.025 A 
ATOM     10  C   UNL d   1      32.373  23.182 -20.118  0.00  0.00     0.000 A 
ATOM     11  C   UNL d   1      32.493  23.691 -20.791  0.00  0.00     0.002 A 
ENDROOT
BRANCH   1  12
ATOM     12  C   UNL d   1      32.998  20.120 -21.830  0.00  0.00     0.216 C 
ATOM     13  O   UNL d   1      33.235  19.627 -21.213  0.00  0.00    -0.644 OA
ATOM     14  O   UNL d   1      32.879  19.647 -22.478  0.00  0.00    -0.644 OA
ENDBRANCH   1  12
TORSDOF 1
ENDMDL
MODEL 7
REMARK VINA RESULT:      -2.1      2.680      3.508
REMARK  1 active torsions:
REMARK  status: ('A' for Active; 'I' for Inactive)
REMARK    1  A    between atoms: C_5  and  C_1 
ROOT
ATOM      1  C   UNL d   1      32.706  17.432 -23.554  0.00  0.00     0.128 A 
ATOM      2  C   UNL d   1      32.674  17.948 -24.230  0.00  0.00     0.306 A 
ATOM      3  C   UNL d   1      32.855  17.758 -22.822  0.00  0.00     0.013 A 
ATOM      4  O   UNL d   1      32.793  18.754 -24.126  0.00  0.00    -0.273 OA
ATOM      5  C   UNL d   1      32.975  18.575 -22.725  0.00  0.00     0.023 A 
ATOM      6  C   UNL d   1      32.943  19.077 -23.382  0.00  0.00     0.103 A 
ATOM      7  O   UNL d   1      32.522  17.656 -25.006  0.00  0.00    -0.259 OA
ATOM      8  C   UNL d   1      33.120  18.864 -21.990  0.00  0.00     0.002 A 
ATOM      9  C   UNL d   1      33.057  19.860 -23.295  0.00  0.00     0.025 A 
ATOM     10  C   UNL d   1      33.241  19.669 -21.872  0.00  0.00     0.000 A 
ATOM     11  C   UNL d   1      33.209  20.186 -22.548  0.00  0.00     0.002 A 
ENDROOT
BRANCH   1  12
ATOM     12  C   UNL d   1      32.591  16.652 -23.654  0.00  0.00     0.216 C 
ATOM     13  O   UNL d   1      31.890  16.276 -23.432  0.00  0.00    -0.644 OA
ATOM     14  O   UNL d   1      33.077  16.083 -23.965  0.00  0.00    -0.644 OA
ENDBRANCH   1  12
TORSDOF 1
ENDMDL
MODEL 8
REMARK VINA RESULT:      -2.0      3.687      4.430
REMARK  1 active torsions:
REMARK  status: ('A' for Active; 'I' for Inactive)
REMARK    1  A    between atoms: C_5  and  C_1 
ROOT
ATOM      1  C   UNL d   1      32.913  19.764 -22.395  0.00  0.00     0.128 A 
ATOM      2  C   UNL d   1      33.129  20.215 -23.085  0.00  0.00     0.306 A 
ATOM      3  C   UNL d   1      32.816  18.958 -22.473  0.00  0.00     0.013 A 
ATOM      4  O   UNL d   1      33.233  19.829 -23.801  0.00  0.00    -0.273 OA
ATOM      5  C   UNL d   1      32.923  18.574 -23.202  0.00  0.00     0.023 A 
ATOM      6  C   UNL d   1      33.133  19.013 -23.872  0.00  0.00     0.103 A 
ATOM      7  O   UNL d   1      33.241  21.050 -23.053  0.00  0.00    -0.259 OA
ATOM      8  C   UNL d   1      32.820  17.779 -23.244  0.00  0.00     0.002 A 
ATOM      9  C   UNL d   1      33.237  18.650 -24.573  0.00  0.00     0.025 A 
ATOM     10  C   UNL d   1      32.920  17.379 -23.956  0.00  0.00     0.000 A 
ATOM     11  C   UNL d   1      33.136  17.831 -24.645  0.00  0.00     0.002 A 
ENDROOT
BRANCH   1  12
ATOM     12  C   UNL d   1      32.813  20.137 -21.701  0.00  0.00     0.216 C 
ATOM     13  O   UNL d   1      32.197  20.671 -21.571  0.00  0.00    -0.644 OA
ATOM     14  O   UNL d   1      33.241  20.097 -21.014  0.00  0.00    -0.644 OA
ENDBRANCH   1  12
TORSDOF 1
ENDMDL
MODEL 9
REMARK VINA RESULT:      -1.9      1.019      1.668
REMARK  1 active torsions:
REMARK  status: ('A' for Active; 'I' for Inactive)
REMARK    1  A    between atoms: C_5  and  C_1 
ROOT
ATOM      1  C   UNL d   1      30.141  17.281 -24.557  0.00  0.00     0.128 A 
ATOM      2  C   UNL d   1      30.441  16.541 -24.260  0.00  0.00     0.306 A 
ATOM      3  C   UNL d   1      30.672  17.871 -24.738  0.00  0.00     0.013 A 
ATOM      4  O   UNL d   1      31.250  16.444 -24.167  0.00  0.00    -0.273 OA
ATOM      5  C   UNL d   1      31.491  17.766 -24.642  0.00  0.00     0.023 A 
ATOM      6  C   UNL d   1      31.782  17.047 -24.354  0.00  0.00     0.103 A 
ATOM      7  O   UNL d   1      29.929  15.902 -24.059  0.00  0.00    -0.259 OA
ATOM      8  C   UNL d   1      31.988  18.368 -24.830  0.00  0.00     0.002 A 
ATOM      9  C   UNL d   1      32.566  16.941 -24.259  0.00  0.00     0.025 A 
ATOM     10  C   UNL d   1      32.801  18.285 -24.742  0.00  0.00     0.000 A 
ATOM     11  C   UNL d   1      33.101  17.545 -24.445  0.00  0.00     0.002 A 
ENDROOT
BRANCH   1  12
ATOM     12  C   UNL d   1      29.357  17.375 -24.647  0.00  0.00     0.216 C 
ATOM     13  O   UNL d   1      28.898  16.857 -25.097  0.00  0.00    -0.644 OA
ATOM     14  O   UNL d   1      28.856  17.941 -24.354  0.00  0.00    -0.644 OA
ENDBRANCH   1  12
TORSDOF 1
ENDMDL
