MODEL 1
REMARK VINA RESULT:      12.4      0.000      0.000
REMARK  1 active torsions:
REMARK  status: ('A' for Active; 'I' for Inactive)
REMARK    1  A    between atoms: N_3  and  C_2 
ROOT
ATOM      1  N   UNL d   1      43.777 -15.034  36.818  0.00  0.00    -0.228 NA
ATOM      2  C   UNL d   1      44.483 -15.450  36.698  0.00  0.00     0.148 A 
ATOM      3  C   UNL d   1      43.049 -15.414  36.695  0.00  0.00     0.083 A 
ATOM      4  C   UNL d   1      44.459 -16.239  36.458  0.00  0.00     0.037 A 
ATOM      5  C   UNL d   1      43.035 -16.203  36.455  0.00  0.00     0.018 A 
ATOM      6  C   UNL d   1      43.740 -16.620  36.335  0.00  0.00     0.005 A 
ATOM      7  C   UNL d   1      42.345 -15.002  36.814  0.00  0.00     0.019 A 
ATOM      8  C   UNL d   1      42.315 -16.584  36.332  0.00  0.00     0.002 A 
ATOM      9  C   UNL d   1      41.624 -15.383  36.691  0.00  0.00     0.002 A 
ATOM     10  C   UNL d   1      41.610 -16.175  36.449  0.00  0.00     0.000 A 
ENDROOT
BRANCH   2  11
ATOM     11  N   UNL d   1      45.206 -15.070  36.821  0.00  0.00    -0.286 N 
ATOM     12  C   UNL d   1      45.904 -15.417  36.552  0.00  0.00     0.102 A 
ATOM     13  C   UNL d   1      46.623 -15.039  36.675  0.00  0.00     0.118 A 
ATOM     14  N   UNL d   1      46.646 -14.314  37.065  0.00  0.00    -0.239 NA
ATOM     15  C   UNL d   1      45.948 -13.967  37.334  0.00  0.00     0.118 A 
ATOM     16  C   UNL d   1      45.225 -14.347  37.211  0.00  0.00     0.102 A 
ENDBRANCH   2  11
TORSDOF 1
ENDMDL
