MODEL 1
REMARK VINA RESULT:      -7.0      0.000      0.000
REMARK  2 active torsions:
REMARK  status: ('A' for Active; 'I' for Inactive)
REMARK    1  A    between atoms: C_5  and  N_1 
REMARK    2  A    between atoms: O_14  and  C_11 
ROOT
ATOM      1  C   UNL d   1     -48.085  12.743  22.672  0.00  0.00     0.069 A 
ATOM      2  C   UNL d   1     -48.154  12.649  21.854  0.00  0.00     0.020 A 
ATOM      3  C   UNL d   1     -48.709  13.129  23.084  0.00  0.00     0.020 A 
ATOM      4  C   UNL d   1     -49.413  13.295  21.842  0.00  0.00     0.094 A 
ATOM      5  C   UNL d   1     -48.817  12.926  21.448  0.00  0.00     0.026 A 
ATOM      6  C   UNL d   1     -49.372  13.405  22.672  0.00  0.00     0.026 A 
ENDROOT
BRANCH   1   7
ATOM      7  N   UNL d   1     -47.410  12.457  23.059  0.00  0.00    -0.249 N 
ATOM      8  C   UNL d   1     -46.715  12.882  23.186  0.00  0.00     0.208 A 
ATOM      9  N   UNL d   1     -46.194  12.355  23.600  0.00  0.00    -0.212 NA
ATOM     10  S   UNL d   1     -46.565  13.672  22.950  0.00  0.00    -0.038 SA
ATOM     11  C   UNL d   1     -46.602  11.645  23.698  0.00  0.00     0.162 A 
ATOM     12  C   UNL d   1     -47.350  11.717  23.362  0.00  0.00     0.286 A 
ATOM     13  O   UNL d   1     -47.954  11.124  23.336  0.00  0.00    -0.265 OA
ENDBRANCH   1   7
BRANCH   4  14
ATOM     14  O   UNL d   1     -50.063  13.561  21.412  0.00  0.00    -0.328 OA
ATOM     15  C   UNL d   1     -50.807  13.591  21.764  0.00  0.00     0.181 C 
ENDBRANCH   4  14
TORSDOF 2
ENDMDL
MODEL 2
REMARK VINA RESULT:      -6.6      1.616      3.311
REMARK  2 active torsions:
REMARK  status: ('A' for Active; 'I' for Inactive)
REMARK    1  A    between atoms: C_5  and  N_1 
REMARK    2  A    between atoms: O_14  and  C_11 
ROOT
ATOM      1  C   UNL d   1     -47.878  13.075  22.729  0.00  0.00     0.069 A 
ATOM      2  C   UNL d   1     -47.106  13.326  22.581  0.00  0.00     0.020 A 
ATOM      3  C   UNL d   1     -47.992  12.405  23.225  0.00  0.00     0.020 A 
ATOM      4  C   UNL d   1     -46.568  12.293  23.383  0.00  0.00     0.094 A 
ATOM      5  C   UNL d   1     -46.459  12.933  22.909  0.00  0.00     0.026 A 
ATOM      6  C   UNL d   1     -47.340  12.014  23.552  0.00  0.00     0.026 A 
ENDROOT
BRANCH   1   7
ATOM      7  N   UNL d   1     -48.512  13.486  22.388  0.00  0.00    -0.249 N 
ATOM      8  C   UNL d   1     -48.945  13.239  21.731  0.00  0.00     0.208 A 
ATOM      9  N   UNL d   1     -49.528  13.841  21.597  0.00  0.00    -0.212 NA
ATOM     10  S   UNL d   1     -48.824  12.535  21.291  0.00  0.00    -0.038 SA
ATOM     11  C   UNL d   1     -49.415  14.414  22.178  0.00  0.00     0.162 A 
ATOM     12  C   UNL d   1     -48.788  14.188  22.661  0.00  0.00     0.286 A 
ATOM     13  O   UNL d   1     -48.481  14.611  23.327  0.00  0.00    -0.265 OA
ENDBRANCH   1   7
BRANCH   4  14
ATOM     14  O   UNL d   1     -45.905  11.919  23.698  0.00  0.00    -0.328 OA
ATOM     15  C   UNL d   1     -45.854  11.097  23.694  0.00  0.00     0.181 C 
ENDBRANCH   4  14
TORSDOF 2
ENDMDL
MODEL 3
REMARK VINA RESULT:      -6.6      1.641      3.002
REMARK  2 active torsions:
REMARK  status: ('A' for Active; 'I' for Inactive)
REMARK    1  A    between atoms: C_5  and  N_1 
REMARK    2  A    between atoms: O_14  and  C_11 
ROOT
ATOM      1  C   UNL d   1     -48.009  12.765  22.811  0.00  0.00     0.069 A 
ATOM      2  C   UNL d   1     -47.531  12.592  23.462  0.00  0.00     0.020 A 
ATOM      3  C   UNL d   1     -47.652  13.115  22.135  0.00  0.00     0.020 A 
ATOM      4  C   UNL d   1     -46.381  13.093  22.807  0.00  0.00     0.094 A 
ATOM      5  C   UNL d   1     -46.723  12.758  23.453  0.00  0.00     0.026 A 
ATOM      6  C   UNL d   1     -46.841  13.279  22.131  0.00  0.00     0.026 A 
ENDROOT
BRANCH   1   7
ATOM      7  N   UNL d   1     -48.819  12.589  22.843  0.00  0.00    -0.249 N 
ATOM      8  C   UNL d   1     -49.418  13.126  23.024  0.00  0.00     0.208 A 
ATOM      9  N   UNL d   1     -50.143  12.685  22.986  0.00  0.00    -0.212 NA
ATOM     10  S   UNL d   1     -49.320  13.938  23.207  0.00  0.00    -0.038 SA
ATOM     11  C   UNL d   1     -49.941  11.912  22.785  0.00  0.00     0.162 A 
ATOM     12  C   UNL d   1     -49.123  11.862  22.699  0.00  0.00     0.286 A 
ATOM     13  O   UNL d   1     -48.676  11.172  22.496  0.00  0.00    -0.265 OA
ENDBRANCH   1   7
BRANCH   4  14
ATOM     14  O   UNL d   1     -45.573  13.247  22.825  0.00  0.00    -0.328 OA
ATOM     15  C   UNL d   1     -45.132  13.220  22.129  0.00  0.00     0.181 C 
ENDBRANCH   4  14
TORSDOF 2
ENDMDL
MODEL 4
REMARK VINA RESULT:      -6.3      2.137      3.549
REMARK  2 active torsions:
REMARK  status: ('A' for Active; 'I' for Inactive)
REMARK    1  A    between atoms: C_5  and  N_1 
REMARK    2  A    between atoms: O_14  and  C_11 
ROOT
ATOM      1  C   UNL d   1     -48.495  14.140  22.703  0.00  0.00     0.069 A 
ATOM      2  C   UNL d   1     -47.916  14.679  22.467  0.00  0.00     0.020 A 
ATOM      3  C   UNL d   1     -48.249  13.432  23.085  0.00  0.00     0.020 A 
ATOM      4  C   UNL d   1     -46.880  13.853  22.964  0.00  0.00     0.094 A 
ATOM      5  C   UNL d   1     -47.115  14.530  22.599  0.00  0.00     0.026 A 
ATOM      6  C   UNL d   1     -47.445  13.287  23.216  0.00  0.00     0.026 A 
ENDROOT
BRANCH   1   7
ATOM      7  N   UNL d   1     -49.293  14.311  22.559  0.00  0.00    -0.249 N 
ATOM      8  C   UNL d   1     -49.756  13.972  21.968  0.00  0.00     0.208 A 
ATOM      9  N   UNL d   1     -50.525  14.324  22.045  0.00  0.00    -0.212 NA
ATOM     10  S   UNL d   1     -49.509  13.398  21.409  0.00  0.00    -0.038 SA
ATOM     11  C   UNL d   1     -50.483  14.853  22.676  0.00  0.00     0.162 A 
ATOM     12  C   UNL d   1     -49.720  14.839  22.987  0.00  0.00     0.286 A 
ATOM     13  O   UNL d   1     -49.429  15.294  23.638  0.00  0.00    -0.265 OA
ENDBRANCH   1   7
BRANCH   4  14
ATOM     14  O   UNL d   1     -46.075  13.730  23.084  0.00  0.00    -0.328 OA
ATOM     15  C   UNL d   1     -45.620  13.377  22.494  0.00  0.00     0.181 C 
ENDBRANCH   4  14
TORSDOF 2
ENDMDL
