MODEL 1
REMARK VINA RESULT:      -9.4      0.000      0.000
REMARK  2 active torsions:
REMARK  status: ('A' for Active; 'I' for Inactive)
REMARK    1  A    between atoms: O_3  and  C_1 
REMARK    2  A    between atoms: C_2  and  O_3 
REMARK       I    between atoms: N_7  and  C_2 
ROOT
ATOM      1  C   UNL d   1      52.884  33.792  53.545  0.00  0.00     0.129 A 
ATOM      2  C   UNL d   1      53.177  33.023  53.618  0.00  0.00     0.105 A 
ATOM      3  C   UNL d   1      53.756  32.843  54.166  0.00  0.00     0.026 A 
ATOM      4  C   UNL d   1      53.194  34.381  54.047  0.00  0.00     0.059 A 
ATOM      5  C   UNL d   1      54.055  33.426  54.653  0.00  0.00     0.037 A 
ATOM      6  C   UNL d   1      53.765  34.203  54.587  0.00  0.00     0.015 A 
ATOM      7  N   UNL d   1      52.871  32.433  53.120  0.00  0.00    -0.242 NA
ATOM      8 BR   UNL d   1      52.930  35.157  54.006  0.00  0.00    -0.047 Br
ATOM      9 BR   UNL d   1      54.650  33.241  55.217  0.00  0.00    -0.049 Br
ATOM     10  C   UNL d   1      54.037  32.077  54.227  0.00  0.00     0.004 A 
ATOM     11  C   UNL d   1      53.154  31.660  53.181  0.00  0.00     0.099 A 
ATOM     12  C   UNL d   1      53.738  31.478  53.734  0.00  0.00     0.021 A 
ENDROOT
BRANCH   1  13
ATOM     13  O   UNL d   1      52.298  33.974  52.991  0.00  0.00    -0.257 OA
BRANCH  13  14
ATOM     14  C   UNL d   1      51.549  34.062  53.238  0.00  0.00     0.378 C 
ATOM     15  N   UNL d   1      50.930  34.191  52.654  0.00  0.00    -0.252 N 
ATOM     16  C   UNL d   1      51.107  34.223  51.867  0.00  0.00     0.085 A 
ATOM     17  C   UNL d   1      50.138  34.285  52.909  0.00  0.00     0.085 A 
ATOM     18  C   UNL d   1      50.508  34.348  51.302  0.00  0.00     0.019 A 
ATOM     19  C   UNL d   1      49.734  34.441  51.526  0.00  0.00     0.003 A 
ATOM     20  C   UNL d   1      49.552  34.407  52.357  0.00  0.00     0.019 A 
ATOM     21  O   UNL d   1      51.367  34.031  54.023  0.00  0.00    -0.237 OA
ENDBRANCH  13  14
ENDBRANCH   1  13
TORSDOF 2
ENDMDL
MODEL 2
REMARK VINA RESULT:      -9.3      1.287      3.461
REMARK  2 active torsions:
REMARK  status: ('A' for Active; 'I' for Inactive)
REMARK    1  A    between atoms: O_3  and  C_1 
REMARK    2  A    between atoms: C_2  and  O_3 
REMARK       I    between atoms: N_7  and  C_2 
ROOT
ATOM      1  C   UNL d   1      53.408  33.154  53.731  0.00  0.00     0.129 A 
ATOM      2  C   UNL d   1      52.734  33.570  53.501  0.00  0.00     0.105 A 
ATOM      3  C   UNL d   1      52.617  34.345  53.732  0.00  0.00     0.026 A 
ATOM      4  C   UNL d   1      53.970  33.545  54.207  0.00  0.00     0.059 A 
ATOM      5  C   UNL d   1      53.173  34.721  54.199  0.00  0.00     0.037 A 
ATOM      6  C   UNL d   1      53.855  34.309  54.435  0.00  0.00     0.015 A 
ATOM      7  N   UNL d   1      52.171  33.184  53.026  0.00  0.00    -0.242 NA
ATOM      8 BR   UNL d   1      54.654  33.166  54.457  0.00  0.00    -0.047 Br
ATOM      9 BR   UNL d   1      53.053  35.519  54.437  0.00  0.00    -0.049 Br
ATOM     10  C   UNL d   1      51.944  34.746  53.497  0.00  0.00     0.004 A 
ATOM     11  C   UNL d   1      51.492  33.588  52.788  0.00  0.00     0.099 A 
ATOM     12  C   UNL d   1      51.374  34.370  53.021  0.00  0.00     0.021 A 
ENDROOT
BRANCH   1  13
ATOM     13  O   UNL d   1      53.526  32.369  53.497  0.00  0.00    -0.257 OA
BRANCH  13  14
ATOM     14  C   UNL d   1      53.465  31.793  54.039  0.00  0.00     0.378 C 
ATOM     15  N   UNL d   1      53.352  30.982  53.774  0.00  0.00    -0.252 N 
ATOM     16  C   UNL d   1      53.309  30.808  52.988  0.00  0.00     0.085 A 
ATOM     17  C   UNL d   1      53.287  30.370  54.342  0.00  0.00     0.085 A 
ATOM     18  C   UNL d   1      53.200  30.023  52.731  0.00  0.00     0.019 A 
ATOM     19  C   UNL d   1      53.135  29.415  53.263  0.00  0.00     0.003 A 
ATOM     20  C   UNL d   1      53.181  29.602  54.092  0.00  0.00     0.019 A 
ATOM     21  O   UNL d   1      53.507  31.961  54.827  0.00  0.00    -0.237 OA
ENDBRANCH  13  14
ENDBRANCH   1  13
TORSDOF 2
ENDMDL
MODEL 3
REMARK VINA RESULT:      -7.5      1.050      1.920
REMARK  2 active torsions:
REMARK  status: ('A' for Active; 'I' for Inactive)
REMARK    1  A    between atoms: O_3  and  C_1 
REMARK    2  A    between atoms: C_2  and  O_3 
REMARK       I    between atoms: N_7  and  C_2 
ROOT
ATOM      1  C   UNL d   1      52.496  33.390  53.684  0.00  0.00     0.129 A 
ATOM      2  C   UNL d   1      52.904  33.962  54.117  0.00  0.00     0.105 A 
ATOM      3  C   UNL d   1      53.657  33.819  54.399  0.00  0.00     0.026 A 
ATOM      4  C   UNL d   1      52.873  32.660  53.540  0.00  0.00     0.059 A 
ATOM      5  C   UNL d   1      54.020  33.101  54.255  0.00  0.00     0.037 A 
ATOM      6  C   UNL d   1      53.616  32.519  53.819  0.00  0.00     0.015 A 
ATOM      7  N   UNL d   1      52.532  34.690  54.262  0.00  0.00    -0.242 NA
ATOM      8 BR   UNL d   1      52.501  32.066  53.114  0.00  0.00    -0.047 Br
ATOM      9 BR   UNL d   1      54.795  32.954  54.545  0.00  0.00    -0.049 Br
ATOM     10  C   UNL d   1      54.050  34.394  54.828  0.00  0.00     0.004 A 
ATOM     11  C   UNL d   1      52.927  35.272  54.694  0.00  0.00     0.099 A 
ATOM     12  C   UNL d   1      53.688  35.128  54.979  0.00  0.00     0.021 A 
ENDROOT
BRANCH   1  13
ATOM     13  O   UNL d   1      51.733  33.534  53.398  0.00  0.00    -0.257 OA
BRANCH  13  14
ATOM     14  C   UNL d   1      51.638  33.713  52.631  0.00  0.00     0.378 C 
ATOM     15  N   UNL d   1      50.878  34.019  52.366  0.00  0.00    -0.252 N 
ATOM     16  C   UNL d   1      50.272  34.124  52.888  0.00  0.00     0.085 A 
ATOM     17  C   UNL d   1      50.772  34.210  51.557  0.00  0.00     0.085 A 
ATOM     18  C   UNL d   1      49.537  34.420  52.631  0.00  0.00     0.019 A 
ATOM     19  C   UNL d   1      49.411  34.611  51.853  0.00  0.00     0.003 A 
ATOM     20  C   UNL d   1      50.054  34.499  51.306  0.00  0.00     0.019 A 
ATOM     21  O   UNL d   1      52.241  33.611  52.105  0.00  0.00    -0.237 OA
ENDBRANCH  13  14
ENDBRANCH   1  13
TORSDOF 2
ENDMDL
