MODEL 1
REMARK VINA RESULT:      15.2      0.000      0.000
REMARK  6 active torsions:
REMARK  status: ('A' for Active; 'I' for Inactive)
REMARK    1  A    between atoms: S_2  and  N_1 
REMARK    2  A    between atoms: C_11  and  S_2 
REMARK    3  A    between atoms: C_6  and  C_4 
REMARK    4  A    between atoms: C_12  and  C_5 
REMARK    5  A    between atoms: O_14  and  C_8 
REMARK    6  A    between atoms: O_16  and  C_13 
ROOT
ATOM      1  N   UNL d   1     -41.835-122.574 -52.172  0.00  0.00    -0.152 N 
ATOM      2  N   UNL d   1     -41.961-123.134 -51.559  0.00  0.00    -0.155 NA
ATOM      3  C   UNL d   1     -41.637-121.845 -51.838  0.00  0.00     0.098 A 
ATOM      4  C   UNL d   1     -41.840-122.746 -50.842  0.00  0.00     0.104 A 
ATOM      5  C   UNL d   1     -41.641-121.953 -51.024  0.00  0.00     0.041 A 
ENDROOT
BRANCH   3   6
ATOM      6  C   UNL d   1     -41.470-121.146 -52.244  0.00  0.00     0.043 A 
ATOM      7  C   UNL d   1     -41.393-120.436 -51.830  0.00  0.00     0.118 A 
ATOM      8  C   UNL d   1     -41.225-119.738 -52.236  0.00  0.00     0.116 A 
ATOM      9  C   UNL d   1     -41.140-119.773 -53.043  0.00  0.00     0.026 A 
ATOM     10  C   UNL d   1     -41.211-120.463 -53.477  0.00  0.00     0.002 A 
ATOM     11  C   UNL d   1     -41.379-121.161 -53.071  0.00  0.00     0.004 A 
BRANCH   7  12
ATOM     12  O   UNL d   1     -41.484-120.426 -51.010  0.00  0.00    -0.326 OA
ATOM     13  C   UNL d   1     -41.144-119.819 -50.566  0.00  0.00     0.181 C 
ENDBRANCH   7  12
BRANCH   8  14
ATOM     14  O   UNL d   1     -41.153-119.052 -51.809  0.00  0.00    -0.326 OA
ATOM     15  C   UNL d   1     -41.242-118.314 -52.133  0.00  0.00     0.181 C 
ENDBRANCH   8  14
ENDBRANCH   3   6
BRANCH   1  16
ATOM     16  S   UNL d   1     -41.902-122.740 -52.983  0.00  0.00     0.286 S 
ATOM     17  O   UNL d   1     -42.427-122.485 -53.566  0.00  0.00    -0.198 OA
ATOM     18  O   UNL d   1     -41.322-123.268 -53.251  0.00  0.00    -0.198 OA
BRANCH  16  19
ATOM     19  C   UNL d   1     -41.822-123.012 -53.758  0.00  0.00     0.105 A 
ATOM     20  C   UNL d   1     -41.244-123.540 -53.924  0.00  0.00     0.013 A 
ATOM     21  C   UNL d   1     -41.162-123.815 -54.702  0.00  0.00     0.001 A 
ATOM     22  C   UNL d   1     -41.672-123.542 -55.290  0.00  0.00     0.000 A 
ATOM     23  C   UNL d   1     -42.265-122.995 -55.101  0.00  0.00     0.001 A 
ATOM     24  C   UNL d   1     -42.332-122.739 -54.346  0.00  0.00     0.013 A 
ENDBRANCH  16  19
ENDBRANCH   1  16
BRANCH   4  25
ATOM     25  C   UNL d   1     -41.905-123.084 -50.114  0.00  0.00     0.019 A 
ATOM     26  C   UNL d   1     -42.627-123.044 -49.708  0.00  0.00     0.002 A 
ATOM     27  C   UNL d   1     -42.718-123.384 -48.958  0.00  0.00     0.000 A 
ATOM     28  C   UNL d   1     -42.084-123.764 -48.617  0.00  0.00     0.000 A 
ATOM     29  C   UNL d   1     -41.351-123.817 -49.007  0.00  0.00     0.000 A 
ATOM     30  C   UNL d   1     -41.276-123.463 -49.773  0.00  0.00     0.002 A 
ENDBRANCH   4  25
TORSDOF 6
ENDMDL
MODEL 2
REMARK VINA RESULT:      16.0      1.128      4.208
REMARK  6 active torsions:
REMARK  status: ('A' for Active; 'I' for Inactive)
REMARK    1  A    between atoms: S_2  and  N_1 
REMARK    2  A    between atoms: C_11  and  S_2 
REMARK    3  A    between atoms: C_6  and  C_4 
REMARK    4  A    between atoms: C_12  and  C_5 
REMARK    5  A    between atoms: O_14  and  C_8 
REMARK    6  A    between atoms: O_16  and  C_13 
ROOT
ATOM      1  N   UNL d   1     -41.522-121.450 -51.795  0.00  0.00    -0.152 N 
ATOM      2  N   UNL d   1     -41.465-120.639 -51.586  0.00  0.00    -0.155 NA
ATOM      3  C   UNL d   1     -41.471-121.523 -52.617  0.00  0.00     0.098 A 
ATOM      4  C   UNL d   1     -41.378-120.210 -52.284  0.00  0.00     0.104 A 
ATOM      5  C   UNL d   1     -41.383-120.763 -52.913  0.00  0.00     0.041 A 
ENDROOT
BRANCH   3   6
ATOM      6  C   UNL d   1     -41.502-122.224 -53.051  0.00  0.00     0.043 A 
ATOM      7  C   UNL d   1     -41.908-122.247 -53.769  0.00  0.00     0.118 A 
ATOM      8  C   UNL d   1     -41.940-122.947 -54.204  0.00  0.00     0.116 A 
ATOM      9  C   UNL d   1     -41.563-123.602 -53.906  0.00  0.00     0.026 A 
ATOM     10  C   UNL d   1     -41.154-123.606 -53.197  0.00  0.00     0.002 A 
ATOM     11  C   UNL d   1     -41.123-122.906 -52.763  0.00  0.00     0.004 A 
BRANCH   7  12
ATOM     12  O   UNL d   1     -42.283-121.568 -54.052  0.00  0.00    -0.326 OA
ATOM     13  C   UNL d   1     -42.962-121.636 -54.515  0.00  0.00     0.181 C 
ENDBRANCH   7  12
BRANCH   8  14
ATOM     14  O   UNL d   1     -42.344-122.947 -54.907  0.00  0.00    -0.326 OA
ATOM     15  C   UNL d   1     -41.981-122.895 -55.630  0.00  0.00     0.181 C 
ENDBRANCH   8  14
ENDBRANCH   3   6
BRANCH   1  16
ATOM     16  S   UNL d   1     -41.616-122.071 -51.252  0.00  0.00     0.286 S 
ATOM     17  O   UNL d   1     -41.273-122.819 -51.191  0.00  0.00    -0.198 OA
ATOM     18  O   UNL d   1     -42.164-121.896 -50.656  0.00  0.00    -0.198 OA
BRANCH  16  19
ATOM     19  C   UNL d   1     -41.829-122.574 -50.633  0.00  0.00     0.105 A 
ATOM     20  C   UNL d   1     -42.267-123.223 -50.796  0.00  0.00     0.013 A 
ATOM     21  C   UNL d   1     -42.482-123.729 -50.175  0.00  0.00     0.001 A 
ATOM     22  C   UNL d   1     -42.244-123.558 -49.404  0.00  0.00     0.000 A 
ATOM     23  C   UNL d   1     -41.791-122.880 -49.253  0.00  0.00     0.001 A 
ATOM     24  C   UNL d   1     -41.591-122.402 -49.862  0.00  0.00     0.013 A 
ENDBRANCH  16  19
ENDBRANCH   1  16
BRANCH   4  25
ATOM     25  C   UNL d   1     -41.304-119.409 -52.331  0.00  0.00     0.019 A 
ATOM     26  C   UNL d   1     -41.317-119.041 -53.074  0.00  0.00     0.002 A 
ATOM     27  C   UNL d   1     -41.242-118.219 -53.147  0.00  0.00     0.000 A 
ATOM     28  C   UNL d   1     -41.155-117.768 -52.475  0.00  0.00     0.000 A 
ATOM     29  C   UNL d   1     -41.140-118.117 -51.720  0.00  0.00     0.000 A 
ATOM     30  C   UNL d   1     -41.217-118.959 -51.664  0.00  0.00     0.002 A 
ENDBRANCH   4  25
TORSDOF 6
ENDMDL
MODEL 3
REMARK VINA RESULT:      16.2      1.179      3.496
REMARK  6 active torsions:
REMARK  status: ('A' for Active; 'I' for Inactive)
REMARK    1  A    between atoms: S_2  and  N_1 
REMARK    2  A    between atoms: C_11  and  S_2 
REMARK    3  A    between atoms: C_6  and  C_4 
REMARK    4  A    between atoms: C_12  and  C_5 
REMARK    5  A    between atoms: O_14  and  C_8 
REMARK    6  A    between atoms: O_16  and  C_13 
ROOT
ATOM      1  N   UNL d   1     -41.714-121.413 -53.291  0.00  0.00    -0.152 N 
ATOM      2  N   UNL d   1     -41.647-120.584 -53.404  0.00  0.00    -0.155 NA
ATOM      3  C   UNL d   1     -41.581-121.591 -52.495  0.00  0.00     0.098 A 
ATOM      4  C   UNL d   1     -41.473-120.249 -52.671  0.00  0.00     0.104 A 
ATOM      5  C   UNL d   1     -41.435-120.877 -52.119  0.00  0.00     0.041 A 
ENDROOT
BRANCH   3   6
ATOM      6  C   UNL d   1     -41.595-122.340 -52.150  0.00  0.00     0.043 A 
ATOM      7  C   UNL d   1     -42.071-122.482 -51.490  0.00  0.00     0.118 A 
ATOM      8  C   UNL d   1     -42.084-123.231 -51.145  0.00  0.00     0.116 A 
ATOM      9  C   UNL d   1     -41.621-123.814 -51.470  0.00  0.00     0.026 A 
ATOM     10  C   UNL d   1     -41.141-123.699 -52.123  0.00  0.00     0.002 A 
ATOM     11  C   UNL d   1     -41.128-122.950 -52.468  0.00  0.00     0.004 A 
BRANCH   7  12
ATOM     12  O   UNL d   1     -42.533-121.875 -51.177  0.00  0.00    -0.326 OA
ATOM     13  C   UNL d   1     -42.921-121.982 -50.458  0.00  0.00     0.181 C 
ENDBRANCH   7  12
BRANCH   8  14
ATOM     14  O   UNL d   1     -42.559-123.348 -50.498  0.00  0.00    -0.326 OA
ATOM     15  C   UNL d   1     -42.273-123.541 -49.764  0.00  0.00     0.181 C 
ENDBRANCH   8  14
ENDBRANCH   3   6
BRANCH   1  16
ATOM     16  S   UNL d   1     -41.885-121.957 -53.894  0.00  0.00     0.286 S 
ATOM     17  O   UNL d   1     -41.656-122.739 -54.026  0.00  0.00    -0.198 OA
ATOM     18  O   UNL d   1     -42.388-121.646 -54.474  0.00  0.00    -0.198 OA
BRANCH  16  19
ATOM     19  C   UNL d   1     -42.157-122.360 -54.561  0.00  0.00     0.105 A 
ATOM     20  C   UNL d   1     -41.777-123.025 -54.792  0.00  0.00     0.013 A 
ATOM     21  C   UNL d   1     -42.048-123.431 -55.463  0.00  0.00     0.001 A 
ATOM     22  C   UNL d   1     -42.701-123.147 -55.880  0.00  0.00     0.000 A 
ATOM     23  C   UNL d   1     -43.082-122.456 -55.626  0.00  0.00     0.001 A 
ATOM     24  C   UNL d   1     -42.809-122.075 -54.978  0.00  0.00     0.013 A 
ENDBRANCH  16  19
ENDBRANCH   1  16
BRANCH   4  25
ATOM     25  C   UNL d   1     -41.364-119.463 -52.533  0.00  0.00     0.019 A 
ATOM     26  C   UNL d   1     -41.285-119.192 -51.754  0.00  0.00     0.002 A 
ATOM     27  C   UNL d   1     -41.172-118.388 -51.588  0.00  0.00     0.000 A 
ATOM     28  C   UNL d   1     -41.138-117.858 -52.205  0.00  0.00     0.000 A 
ATOM     29  C   UNL d   1     -41.216-118.108 -52.994  0.00  0.00     0.000 A 
ATOM     30  C   UNL d   1     -41.331-118.933 -53.146  0.00  0.00     0.002 A 
ENDBRANCH   4  25
TORSDOF 6
ENDMDL
MODEL 4
REMARK VINA RESULT:      16.8      1.038      3.123
REMARK  6 active torsions:
REMARK  status: ('A' for Active; 'I' for Inactive)
REMARK    1  A    between atoms: S_2  and  N_1 
REMARK    2  A    between atoms: C_11  and  S_2 
REMARK    3  A    between atoms: C_6  and  C_4 
REMARK    4  A    between atoms: C_12  and  C_5 
REMARK    5  A    between atoms: O_14  and  C_8 
REMARK    6  A    between atoms: O_16  and  C_13 
ROOT
ATOM      1  N   UNL d   1     -41.722-121.747 -51.148  0.00  0.00    -0.152 N 
ATOM      2  N   UNL d   1     -41.807-121.868 -50.322  0.00  0.00    -0.155 NA
ATOM      3  C   UNL d   1     -41.869-122.458 -51.544  0.00  0.00     0.098 A 
ATOM      4  C   UNL d   1     -42.009-122.659 -50.208  0.00  0.00     0.104 A 
ATOM      5  C   UNL d   1     -42.044-123.013 -50.966  0.00  0.00     0.041 A 
ENDROOT
BRANCH   3   6
ATOM      6  C   UNL d   1     -41.844-122.581 -52.359  0.00  0.00     0.043 A 
ATOM      7  C   UNL d   1     -42.500-122.394 -52.825  0.00  0.00     0.118 A 
ATOM      8  C   UNL d   1     -42.475-122.517 -53.641  0.00  0.00     0.116 A 
ATOM      9  C   UNL d   1     -41.796-122.824 -53.963  0.00  0.00     0.026 A 
ATOM     10  C   UNL d   1     -41.133-123.018 -53.524  0.00  0.00     0.002 A 
ATOM     11  C   UNL d   1     -41.158-122.894 -52.709  0.00  0.00     0.004 A 
BRANCH   7  12
ATOM     12  O   UNL d   1     -43.179-122.083 -52.475  0.00  0.00    -0.326 OA
ATOM     13  C   UNL d   1     -43.861-121.973 -52.926  0.00  0.00     0.181 C 
ENDBRANCH   7  12
BRANCH   8  14
ATOM     14  O   UNL d   1     -43.130-122.326 -54.079  0.00  0.00    -0.326 OA
ATOM     15  C   UNL d   1     -43.094-122.078 -54.851  0.00  0.00     0.181 C 
ENDBRANCH   8  14
ENDBRANCH   3   6
BRANCH   1  16
ATOM     16  S   UNL d   1     -41.521-121.023 -51.500  0.00  0.00     0.286 S 
ATOM     17  O   UNL d   1     -41.182-120.826 -52.226  0.00  0.00    -0.198 OA
ATOM     18  O   UNL d   1     -41.699-120.372 -51.018  0.00  0.00    -0.198 OA
BRANCH  16  19
ATOM     19  C   UNL d   1     -41.387-120.231 -51.693  0.00  0.00     0.105 A 
ATOM     20  C   UNL d   1     -41.276-120.034 -52.460  0.00  0.00     0.013 A 
ATOM     21  C   UNL d   1     -41.141-119.239 -52.655  0.00  0.00     0.001 A 
ATOM     22  C   UNL d   1     -41.124-118.667 -52.061  0.00  0.00     0.000 A 
ATOM     23  C   UNL d   1     -41.241-118.889 -51.271  0.00  0.00     0.001 A 
ATOM     24  C   UNL d   1     -41.369-119.659 -51.098  0.00  0.00     0.013 A 
ENDBRANCH  16  19
ENDBRANCH   1  16
BRANCH   4  25
ATOM     25  C   UNL d   1     -42.142-123.007 -49.494  0.00  0.00     0.019 A 
ATOM     26  C   UNL d   1     -41.515-123.375 -49.095  0.00  0.00     0.002 A 
ATOM     27  C   UNL d   1     -41.628-123.739 -48.360  0.00  0.00     0.000 A 
ATOM     28  C   UNL d   1     -42.371-123.733 -48.026  0.00  0.00     0.000 A 
ATOM     29  C   UNL d   1     -43.014-123.370 -48.408  0.00  0.00     0.000 A 
ATOM     30  C   UNL d   1     -42.880-123.002 -49.160  0.00  0.00     0.002 A 
ENDBRANCH   4  25
TORSDOF 6
ENDMDL
