MODEL 1
REMARK VINA RESULT:      50.8      0.000      0.000
REMARK  5 active torsions:
REMARK  status: ('A' for Active; 'I' for Inactive)
REMARK    1  A    between atoms: C_7  and  N_1 
REMARK    2  A    between atoms: C_10  and  C_2 
REMARK    3  A    between atoms: C_11  and  C_5 
REMARK    4  A    between atoms: C_9  and  C_7 
REMARK    5  A    between atoms: O_16  and  C_9 
ROOT
ATOM      1  N   UNL d   1      14.154  13.833  -2.594  0.00  0.00    -0.286 N 
ATOM      2  C   UNL d   1      14.166  13.118  -2.182  0.00  0.00     0.148 A 
ATOM      3  N   UNL d   1      13.895  12.435  -2.548  0.00  0.00    -0.228 NA
ATOM      4  C   UNL d   1      13.606  13.173  -3.721  0.00  0.00     0.035 A 
ATOM      5  C   UNL d   1      13.871  13.851  -3.365  0.00  0.00     0.067 A 
ATOM      6  C   UNL d   1      13.618  12.459  -3.309  0.00  0.00     0.084 A 
ATOM      7  C   UNL d   1      13.327  13.195  -4.485  0.00  0.00     0.014 A 
ATOM      8  C   UNL d   1      13.350  11.779  -3.668  0.00  0.00     0.020 A 
ATOM      9  C   UNL d   1      13.056  12.512  -4.852  0.00  0.00     0.058 A 
ATOM     10  C   UNL d   1      13.067  11.797  -4.439  0.00  0.00     0.013 A 
ATOM     11 CL   UNL d   1      12.769  12.534  -5.636  0.00  0.00    -0.082 Cl
ENDROOT
BRANCH   2  12
ATOM     12  C   UNL d   1      14.347  12.674  -1.458  0.00  0.00     0.035 A 
ATOM     13  C   UNL d   1      13.749  12.596  -0.827  0.00  0.00     0.003 A 
ATOM     14  C   UNL d   1      13.935  12.150  -0.105  0.00  0.00     0.000 A 
ATOM     15  C   UNL d   1      14.728  11.779  -0.014  0.00  0.00     0.000 A 
ATOM     16  C   UNL d   1      15.319  11.863  -0.650  0.00  0.00     0.000 A 
ATOM     17  C   UNL d   1      15.132  12.306  -1.367  0.00  0.00     0.003 A 
ENDBRANCH   2  12
BRANCH   1  18
ATOM     18  C   UNL d   1      14.425  14.516  -2.227  0.00  0.00     0.150 C 
BRANCH  18  19
ATOM     19  C   UNL d   1      14.870  14.476  -1.542  0.00  0.00     0.314 C 
ATOM     20  O   UNL d   1      15.613  14.119  -1.558  0.00  0.00    -0.257 OA
BRANCH  19  21
ATOM     21  O   UNL d   1      14.584  14.786  -0.845  0.00  0.00    -0.295 OA
ATOM     22  C   UNL d   1      14.810  15.541  -0.610  0.00  0.00     0.185 C 
ENDBRANCH  19  21
ENDBRANCH  18  19
ENDBRANCH   1  18
BRANCH   5  23
ATOM     23  C   UNL d   1      13.860  14.565  -3.778  0.00  0.00     0.016 A 
ATOM     24  C   UNL d   1      13.188  14.798  -4.167  0.00  0.00     0.001 A 
ATOM     25  C   UNL d   1      13.177  15.513  -4.579  0.00  0.00     0.000 A 
ATOM     26  C   UNL d   1      13.836  15.982  -4.595  0.00  0.00     0.000 A 
ATOM     27  C   UNL d   1      14.535  15.755  -4.199  0.00  0.00     0.000 A 
ATOM     28  C   UNL d   1      14.533  15.038  -3.791  0.00  0.00     0.001 A 
ENDBRANCH   5  23
TORSDOF 5
ENDMDL
