MODEL 1
REMARK VINA RESULT:      64.5      0.000      0.000
REMARK  3 active torsions:
REMARK  status: ('A' for Active; 'I' for Inactive)
REMARK    1  A    between atoms: C_8  and  N_1 
REMARK    2  A    between atoms: N_7  and  C_2 
REMARK    3  A    between atoms: C_16  and  C_8 
ROOT
ATOM      1  N   UNL d   1     -57.668 -99.312 -44.333  0.00  0.00    -0.225 N 
ATOM      2  C   UNL d   1     -56.484-100.418 -44.044  0.00  0.00     0.158 A 
ATOM      3  C   UNL d   1     -57.008 -99.354 -44.830  0.00  0.00     0.358 A 
ATOM      4  N   UNL d   1     -56.420 -99.904 -44.684  0.00  0.00    -0.174 NA
ATOM      5  C   UNL d   1     -57.740 -99.822 -43.692  0.00  0.00     0.271 A 
ATOM      6  C   UNL d   1     -57.144-100.377 -43.548  0.00  0.00     0.099 A 
ATOM      7  O   UNL d   1     -56.943 -98.836 -45.474  0.00  0.00    -0.244 OA
ATOM      8  O   UNL d   1     -58.400 -99.780 -43.196  0.00  0.00    -0.266 OA
ENDROOT
BRANCH   1   9
ATOM      9  C   UNL d   1     -58.261 -98.757 -44.480  0.00  0.00     0.087 C 
BRANCH   9  10
ATOM     10  C   UNL d   1     -58.691 -98.790 -45.184  0.00  0.00     0.018 A 
ATOM     11  C   UNL d   1     -58.286 -98.765 -45.905  0.00  0.00     0.004 A 
ATOM     12  C   UNL d   1     -58.716 -98.797 -46.608  0.00  0.00     0.030 A 
ATOM     13  C   UNL d   1     -59.535 -98.854 -46.583  0.00  0.00     0.140 A 
ATOM     14  C   UNL d   1     -59.929 -98.879 -45.871  0.00  0.00     0.030 A 
ATOM     15  F   UNL d   1     -59.960 -98.887 -47.294  0.00  0.00    -0.204 F 
ATOM     16  C   UNL d   1     -59.509 -98.847 -45.167  0.00  0.00     0.004 A 
ENDBRANCH   9  10
ENDBRANCH   1   9
BRANCH   2  17
ATOM     17  N   UNL d   1     -55.895-100.973 -43.895  0.00  0.00    -0.285 N 
ATOM     18  C   UNL d   1     -55.601-101.066 -43.140  0.00  0.00     0.106 A 
ATOM     19  C   UNL d   1     -55.012-101.620 -42.991  0.00  0.00     0.118 A 
ATOM     20  C   UNL d   1     -54.715-101.714 -42.227  0.00  0.00     0.028 C 
ATOM     21  O   UNL d   1     -54.714-102.084 -43.595  0.00  0.00    -0.304 OA
ATOM     22  C   UNL d   1     -55.014-101.992 -44.376  0.00  0.00     0.118 A 
ATOM     23  C   UNL d   1     -55.604-101.435 -44.522  0.00  0.00     0.106 A 
ATOM     24  C   UNL d   1     -54.716-102.456 -44.987  0.00  0.00     0.028 C 
ENDBRANCH   2  17
TORSDOF 3
ENDMDL
