MODEL 1
REMARK VINA RESULT:       5.1      0.000      0.000
REMARK  6 active torsions:
REMARK  status: ('A' for Active; 'I' for Inactive)
REMARK    1  A    between atoms: N_2  and  S_1 
REMARK    2  A    between atoms: C_6  and  S_1 
REMARK    3  A    between atoms: N_4  and  C_3 
REMARK       I    between atoms: C_5  and  N_4 
REMARK       I    between atoms: N_10  and  C_5 
REMARK    4  A    between atoms: C_7  and  C_11 
REMARK    5  A    between atoms: O_20  and  C_7 
REMARK    6  A    between atoms: C_14  and  N_10 
ROOT
ATOM      1  N   UNL d   1      60.200  -0.626  28.945  0.00  0.00    -0.214 N 
ATOM      2  C   UNL d   1      60.082   0.049  29.418  0.00  0.00     0.162 A 
ATOM      3  C   UNL d   1      60.855  -0.481  28.455  0.00  0.00     0.093 A 
ATOM      4  C   UNL d   1      60.663   0.607  29.219  0.00  0.00     0.040 A 
ATOM      5  C   UNL d   1      61.133   0.282  28.632  0.00  0.00     0.023 A 
ENDROOT
BRANCH   2   6
ATOM      6  N   UNL d   1      59.480   0.139  29.992  0.00  0.00    -0.173 NA
ATOM      7  C   UNL d   1      59.667   0.446  30.733  0.00  0.00     0.370 C 
ATOM      8  N   UNL d   1      59.072   0.536  31.303  0.00  0.00    -0.191 NA
ATOM      9  O   UNL d   1      60.442   0.665  30.916  0.00  0.00    -0.242 OA
BRANCH   8  10
ATOM     10  C   UNL d   1      58.296   0.320  31.127  0.00  0.00     0.086 A 
ATOM     11  C   UNL d   1      57.898  -0.213  31.615  0.00  0.00     0.025 A 
ATOM     12  C   UNL d   1      57.122  -0.430  31.440  0.00  0.00     0.065 A 
ATOM     13  C   UNL d   1      56.744  -0.112  30.774  0.00  0.00     0.005 A 
ATOM     14  C   UNL d   1      57.146   0.420  30.290  0.00  0.00     0.002 A 
ATOM     15  C   UNL d   1      57.921   0.636  30.465  0.00  0.00     0.019 A 
BRANCH  12  16
ATOM     16  C   UNL d   1      56.729  -0.965  31.933  0.00  0.00     0.296 C 
ATOM     17  O   UNL d   1      56.945  -1.753  31.952  0.00  0.00    -0.259 OA
BRANCH  16  18
ATOM     18  O   UNL d   1      56.111  -0.694  32.409  0.00  0.00    -0.296 OA
ATOM     19  C   UNL d   1      55.819  -1.155  33.019  0.00  0.00     0.185 C 
ENDBRANCH  16  18
ENDBRANCH  12  16
ENDBRANCH   8  10
ENDBRANCH   2   6
BRANCH   1  20
ATOM     20  S   UNL d   1      59.808  -1.345  28.891  0.00  0.00     0.272 S 
ATOM     21  O   UNL d   1      60.405  -1.732  29.254  0.00  0.00    -0.200 OA
ATOM     22  O   UNL d   1      59.174  -0.982  28.515  0.00  0.00    -0.200 OA
BRANCH  20  23
ATOM     23  C   UNL d   1      59.416  -2.082  28.840  0.00  0.00     0.104 A 
ATOM     24  C   UNL d   1      59.817  -2.776  29.030  0.00  0.00     0.014 A 
ATOM     25  C   UNL d   1      59.428  -3.492  28.978  0.00  0.00     0.012 A 
ATOM     26  C   UNL d   1      58.633  -3.528  28.736  0.00  0.00     0.058 A 
ATOM     27  C   UNL d   1      58.233  -2.835  28.547  0.00  0.00     0.012 A 
ATOM     28 CL   UNL d   1      58.242  -4.256  28.685  0.00  0.00    -0.082 Cl
ATOM     29  C   UNL d   1      58.626  -2.102  28.599  0.00  0.00     0.014 A 
ENDBRANCH  20  23
ENDBRANCH   1  20
TORSDOF 6
ENDMDL
MODEL 2
REMARK VINA RESULT:       6.8      1.954      3.856
REMARK  6 active torsions:
REMARK  status: ('A' for Active; 'I' for Inactive)
REMARK    1  A    between atoms: N_2  and  S_1 
REMARK    2  A    between atoms: C_6  and  S_1 
REMARK    3  A    between atoms: N_4  and  C_3 
REMARK       I    between atoms: C_5  and  N_4 
REMARK       I    between atoms: N_10  and  C_5 
REMARK    4  A    between atoms: C_7  and  C_11 
REMARK    5  A    between atoms: O_20  and  C_7 
REMARK    6  A    between atoms: C_14  and  N_10 
ROOT
ATOM      1  N   UNL d   1      59.444   0.480  32.110  0.00  0.00    -0.214 N 
ATOM      2  C   UNL d   1      60.019   0.337  31.525  0.00  0.00     0.162 A 
ATOM      3  C   UNL d   1      59.842   0.680  32.811  0.00  0.00     0.093 A 
ATOM      4  C   UNL d   1      60.768   0.448  31.866  0.00  0.00     0.040 A 
ATOM      5  C   UNL d   1      60.657   0.658  32.651  0.00  0.00     0.023 A 
ENDROOT
BRANCH   2   6
ATOM      6  N   UNL d   1      59.860   0.119  30.732  0.00  0.00    -0.173 NA
ATOM      7  C   UNL d   1      60.416   0.280  30.147  0.00  0.00     0.370 C 
ATOM      8  N   UNL d   1      60.261   0.065  29.362  0.00  0.00    -0.191 NA
ATOM      9  O   UNL d   1      61.129   0.654  30.333  0.00  0.00    -0.242 OA
BRANCH   8  10
ATOM     10  C   UNL d   1      59.552  -0.309  29.169  0.00  0.00     0.086 A 
ATOM     11  C   UNL d   1      59.436  -1.100  29.371  0.00  0.00     0.025 A 
ATOM     12  C   UNL d   1      58.727  -1.473  29.179  0.00  0.00     0.065 A 
ATOM     13  C   UNL d   1      58.133  -1.054  28.782  0.00  0.00     0.005 A 
ATOM     14  C   UNL d   1      58.253  -0.264  28.582  0.00  0.00     0.002 A 
ATOM     15  C   UNL d   1      58.961   0.110  28.774  0.00  0.00     0.019 A 
BRANCH  12  16
ATOM     16  C   UNL d   1      58.617  -2.267  29.385  0.00  0.00     0.296 C 
ATOM     17  O   UNL d   1      58.125  -2.474  30.004  0.00  0.00    -0.259 OA
BRANCH  16  18
ATOM     18  O   UNL d   1      59.011  -2.853  28.956  0.00  0.00    -0.296 OA
ATOM     19  C   UNL d   1      58.625  -3.539  28.734  0.00  0.00     0.185 C 
ENDBRANCH  16  18
ENDBRANCH  12  16
ENDBRANCH   8  10
ENDBRANCH   2   6
BRANCH   1  20
ATOM     20  S   UNL d   1      58.624   0.458  32.104  0.00  0.00     0.272 S 
ATOM     21  O   UNL d   1      58.594   0.246  32.873  0.00  0.00    -0.200 OA
ATOM     22  O   UNL d   1      58.615   0.674  31.312  0.00  0.00    -0.200 OA
BRANCH  20  23
ATOM     23  C   UNL d   1      57.789   0.432  32.107  0.00  0.00     0.104 A 
ATOM     24  C   UNL d   1      57.368   0.590  31.418  0.00  0.00     0.014 A 
ATOM     25  C   UNL d   1      56.552   0.563  31.429  0.00  0.00     0.012 A 
ATOM     26  C   UNL d   1      56.142   0.378  32.129  0.00  0.00     0.058 A 
ATOM     27  C   UNL d   1      56.562   0.221  32.817  0.00  0.00     0.012 A 
ATOM     28 CL   UNL d   1      55.314   0.352  32.136  0.00  0.00    -0.082 Cl
ATOM     29  C   UNL d   1      57.395   0.247  32.810  0.00  0.00     0.014 A 
ENDBRANCH  20  23
ENDBRANCH   1  20
TORSDOF 6
ENDMDL
