MODEL 1
REMARK VINA RESULT:      77.3      0.000      0.000
REMARK  6 active torsions:
REMARK  status: ('A' for Active; 'I' for Inactive)
REMARK    1  A    between atoms: N_3  and  S_1 
REMARK    2  A    between atoms: C_10  and  S_1 
REMARK    3  A    between atoms: N_2  and  C_12 
REMARK    4  A    between atoms: C_4  and  N_3 
REMARK       I    between atoms: C_7  and  N_11 
REMARK    5  A    between atoms: C_15  and  C_7 
REMARK    6  A    between atoms: N_11  and  C_30 
ROOT
ATOM      1  C   UNL d   1      14.038  17.080  -5.326  0.00  0.00     0.106 A 
ATOM      2  C   UNL d   1      13.731  16.345  -5.521  0.00  0.00     0.015 A 
ATOM      3  C   UNL d   1      14.428  17.204  -4.608  0.00  0.00     0.015 A 
ATOM      4  C   UNL d   1      14.199  15.827  -4.272  0.00  0.00     0.085 A 
ATOM      5  C   UNL d   1      14.509  16.576  -4.080  0.00  0.00     0.020 A 
ATOM      6  C   UNL d   1      13.811  15.716  -4.992  0.00  0.00     0.020 A 
ENDROOT
BRANCH   4   7
ATOM      7  N   UNL d   1      14.282  15.196  -3.735  0.00  0.00    -0.208 NA
ATOM      8  C   UNL d   1      14.330  15.340  -2.922  0.00  0.00     0.279 C 
ATOM      9  O   UNL d   1      14.294  16.116  -2.646  0.00  0.00    -0.265 OA
BRANCH   8  10
ATOM     10  C   UNL d   1      14.412  14.711  -2.395  0.00  0.00     0.058 A 
ATOM     11  C   UNL d   1      14.336  13.941  -2.661  0.00  0.00     0.006 A 
ATOM     12  C   UNL d   1      14.417  13.312  -2.139  0.00  0.00     0.018 A 
ATOM     13  C   UNL d   1      14.576  13.435  -1.347  0.00  0.00     0.070 A 
ATOM     14  C   UNL d   1      14.656  14.223  -1.066  0.00  0.00     0.018 A 
ATOM     15  C   UNL d   1      14.574  14.854  -1.588  0.00  0.00     0.006 A 
BRANCH  13  16
ATOM     16  N   UNL d   1      14.657  12.799  -0.823  0.00  0.00    -0.242 N 
ATOM     17  C   UNL d   1      14.014  12.370  -0.516  0.00  0.00     0.267 A 
ATOM     18  C   UNL d   1      14.317  11.779  -0.014  0.00  0.00     0.066 A 
ATOM     19  O   UNL d   1      13.193  12.508  -0.682  0.00  0.00    -0.267 OA
ATOM     20  C   UNL d   1      15.135  11.850  -0.019  0.00  0.00     0.066 A 
ATOM     21  C   UNL d   1      15.340  12.478  -0.518  0.00  0.00     0.267 A 
ATOM     22  O   UNL d   1      16.111  12.732  -0.674  0.00  0.00    -0.267 OA
ENDBRANCH  13  16
ENDBRANCH   8  10
ENDBRANCH   4   7
BRANCH   1  23
ATOM     23  S   UNL d   1      13.958  17.709  -5.854  0.00  0.00     0.300 S 
ATOM     24  O   UNL d   1      14.579  18.110  -5.494  0.00  0.00    -0.198 OA
ATOM     25  O   UNL d   1      13.328  17.323  -6.235  0.00  0.00    -0.198 OA
BRANCH  23  26
ATOM     26  N   UNL d   1      13.875  18.339  -6.387  0.00  0.00     0.034 NA
BRANCH  26  27
ATOM     27  C   UNL d   1      13.948  19.117  -6.122  0.00  0.00     0.760 A 
ATOM     28  N   UNL d   1      14.640  19.549  -6.264  0.00  0.00    -0.059 NA
ATOM     29  C   UNL d   1      14.718  20.323  -6.003  0.00  0.00     0.101 A 
ATOM     30  C   UNL d   1      15.406  20.748  -6.146  0.00  0.00     0.021 C 
ATOM     31  C   UNL d   1      14.088  20.685  -5.584  0.00  0.00     0.040 A 
ATOM     32  C   UNL d   1      13.393  20.264  -5.437  0.00  0.00     0.101 A 
ATOM     33  N   UNL d   1      13.317  19.479  -5.703  0.00  0.00    -0.059 NA
ATOM     34  C   UNL d   1      12.772  20.620  -5.024  0.00  0.00     0.021 C 
ENDBRANCH  26  27
ENDBRANCH  23  26
ENDBRANCH   1  23
TORSDOF 6
ENDMDL
