MODEL 1
REMARK VINA RESULT:      -5.6      0.000      0.000
REMARK  2 active torsions:
REMARK  status: ('A' for Active; 'I' for Inactive)
REMARK    1  A    between atoms: C_2  and  P_1 
REMARK    2  A    between atoms: C_7  and  C_2 
ROOT
ATOM      1  C   UNL d   1      54.081  33.064  54.773  0.00  0.00     0.194 C 
ATOM      2  N   UNL d   1      54.148  32.633  55.482  0.00  0.00    -0.138 N 
ENDROOT
BRANCH   1   3
ATOM      3  P   UNL d   1      53.898  33.877  54.818  0.00  0.00     0.317 P 
ATOM      4  O   UNL d   1      53.727  34.671  54.864  0.00  0.00    -0.635 OA
ATOM      5  O   UNL d   1      54.679  34.015  55.105  0.00  0.00    -0.635 OA
ATOM      6  O   UNL d   1      53.126  33.737  54.534  0.00  0.00    -0.635 OA
ENDBRANCH   1   3
BRANCH   1   7
ATOM      7  C   UNL d   1      54.193  32.693  54.044  0.00  0.00     0.029 C 
ATOM      8  C   UNL d   1      54.802  32.930  53.553  0.00  0.00     0.002 C 
ATOM      9  C   UNL d   1      53.685  32.083  53.818  0.00  0.00     0.002 C 
ENDBRANCH   1   7
TORSDOF 2
ENDMDL
MODEL 2
REMARK VINA RESULT:      -5.5      1.381      1.932
REMARK  2 active torsions:
REMARK  status: ('A' for Active; 'I' for Inactive)
REMARK    1  A    between atoms: C_2  and  P_1 
REMARK    2  A    between atoms: C_7  and  C_2 
ROOT
ATOM      1  C   UNL d   1      54.295  32.895  53.911  0.00  0.00     0.194 C 
ATOM      2  N   UNL d   1      54.949  32.778  53.411  0.00  0.00    -0.138 N 
ENDROOT
BRANCH   1   3
ATOM      3  P   UNL d   1      53.529  32.847  53.583  0.00  0.00     0.317 P 
ATOM      4  O   UNL d   1      52.782  32.793  53.263  0.00  0.00    -0.635 OA
ATOM      5  O   UNL d   1      53.618  32.009  53.550  0.00  0.00    -0.635 OA
ATOM      6  O   UNL d   1      53.443  33.677  53.617  0.00  0.00    -0.635 OA
ENDBRANCH   1   3
BRANCH   1   7
ATOM      7  C   UNL d   1      54.404  33.055  54.715  0.00  0.00     0.029 C 
ATOM      8  C   UNL d   1      54.014  32.610  55.278  0.00  0.00     0.002 C 
ATOM      9  C   UNL d   1      54.910  33.668  54.940  0.00  0.00     0.002 C 
ENDBRANCH   1   7
TORSDOF 2
ENDMDL
