MODEL 1
REMARK VINA RESULT:      -5.6      0.000      0.000
REMARK  6 active torsions:
REMARK  status: ('A' for Active; 'I' for Inactive)
REMARK       I    between atoms: C_6  and  N_1 
REMARK    1  A    between atoms: C_7  and  C_3 
REMARK    2  A    between atoms: C_8  and  C_4 
REMARK    3  A    between atoms: C_11  and  C_6 
REMARK    4  A    between atoms: C_9  and  C_17 
REMARK    5  A    between atoms: C_17  and  C_11 
REMARK    6  A    between atoms: O_26  and  C_19 
ROOT
ATOM      1  N   UNL d   1     -40.769  14.194  20.548  0.00  0.00    -0.195 N 
ATOM      2  N   UNL d   1     -41.028  14.332  19.784  0.00  0.00    -0.163 NA
ATOM      3  C   UNL d   1     -40.481  14.761  19.382  0.00  0.00     0.103 A 
ATOM      4  C   UNL d   1     -40.042  14.547  20.624  0.00  0.00     0.088 A 
ATOM      5  C   UNL d   1     -39.855  14.894  19.926  0.00  0.00     0.040 A 
ATOM      6  C   UNL d   1     -41.186  13.769  21.128  0.00  0.00     0.281 C 
ATOM      7  O   UNL d   1     -40.833  13.679  21.896  0.00  0.00    -0.265 OA
ENDROOT
BRANCH   3   8
ATOM      8  C   UNL d   1     -40.610  14.969  18.612  0.00  0.00     0.019 A 
ATOM      9  C   UNL d   1     -40.991  15.696  18.452  0.00  0.00     0.004 A 
ATOM     10  C   UNL d   1     -41.130  15.922  17.653  0.00  0.00     0.024 A 
ATOM     11  C   UNL d   1     -40.894  15.433  17.032  0.00  0.00     0.094 A 
ATOM     12  C   UNL d   1     -40.513  14.706  17.192  0.00  0.00     0.024 A 
ATOM     13  C   UNL d   1     -40.375  14.481  17.991  0.00  0.00     0.004 A 
BRANCH  11  14
ATOM     14  O   UNL d   1     -41.044  15.682  16.259  0.00  0.00    -0.328 OA
ATOM     15  C   UNL d   1     -41.808  15.922  16.016  0.00  0.00     0.181 C 
ENDBRANCH  11  14
ENDBRANCH   3   8
BRANCH   4  16
ATOM     16  C   UNL d   1     -39.537  14.568  21.303  0.00  0.00     0.018 A 
ATOM     17  C   UNL d   1     -39.576  15.210  21.830  0.00  0.00     0.002 A 
ATOM     18  C   UNL d   1     -39.086  15.231  22.491  0.00  0.00     0.007 A 
ATOM     19  C   UNL d   1     -38.558  14.618  22.627  0.00  0.00     0.035 A 
ATOM     20  C   UNL d   1     -38.519  13.977  22.101  0.00  0.00     0.007 A 
ATOM     21 BR   UNL d   1     -38.068  14.640  23.288  0.00  0.00    -0.049 Br
ATOM     22  C   UNL d   1     -39.006  13.945  21.435  0.00  0.00     0.002 A 
ENDBRANCH   4  16
BRANCH   6  23
ATOM     23  C   UNL d   1     -41.920  13.434  20.993  0.00  0.00     0.069 C 
BRANCH  23  24
ATOM     24  C   UNL d   1     -42.313  13.021  21.575  0.00  0.00     0.075 C 
BRANCH  24  25
ATOM     25  C   UNL d   1     -43.008  12.621  21.420  0.00  0.00     0.211 C 
ATOM     26  O   UNL d   1     -43.381  12.168  22.000  0.00  0.00    -0.644 OA
ATOM     27  O   UNL d   1     -43.358  12.657  20.679  0.00  0.00    -0.644 OA
ENDBRANCH  24  25
ENDBRANCH  23  24
ENDBRANCH   6  23
TORSDOF 6
ENDMDL
MODEL 2
REMARK VINA RESULT:      -4.0      2.271      2.986
REMARK  6 active torsions:
REMARK  status: ('A' for Active; 'I' for Inactive)
REMARK       I    between atoms: C_6  and  N_1 
REMARK    1  A    between atoms: C_7  and  C_3 
REMARK    2  A    between atoms: C_8  and  C_4 
REMARK    3  A    between atoms: C_11  and  C_6 
REMARK    4  A    between atoms: C_9  and  C_17 
REMARK    5  A    between atoms: C_17  and  C_11 
REMARK    6  A    between atoms: O_26  and  C_19 
ROOT
ATOM      1  N   UNL d   1     -38.964  13.752  18.886  0.00  0.00    -0.195 N 
ATOM      2  N   UNL d   1     -39.332  13.973  18.189  0.00  0.00    -0.163 NA
ATOM      3  C   UNL d   1     -39.791  14.620  18.312  0.00  0.00     0.103 A 
ATOM      4  C   UNL d   1     -39.201  14.276  19.459  0.00  0.00     0.088 A 
ATOM      5  C   UNL d   1     -39.701  14.807  19.127  0.00  0.00     0.040 A 
ATOM      6  C   UNL d   1     -38.447  13.108  18.974  0.00  0.00     0.281 C 
ATOM      7  O   UNL d   1     -38.114  12.959  19.742  0.00  0.00    -0.265 OA
ENDROOT
BRANCH   3   8
ATOM      8  C   UNL d   1     -40.212  14.944  17.704  0.00  0.00     0.019 A 
ATOM      9  C   UNL d   1     -41.030  14.781  17.652  0.00  0.00     0.004 A 
ATOM     10  C   UNL d   1     -41.479  15.114  17.023  0.00  0.00     0.024 A 
ATOM     11  C   UNL d   1     -41.117  15.598  16.460  0.00  0.00     0.094 A 
ATOM     12  C   UNL d   1     -40.299  15.761  16.513  0.00  0.00     0.024 A 
ATOM     13  C   UNL d   1     -39.852  15.427  17.143  0.00  0.00     0.004 A 
BRANCH  11  14
ATOM     14  O   UNL d   1     -41.583  15.910  15.854  0.00  0.00    -0.328 OA
ATOM     15  C   UNL d   1     -42.413  15.811  15.845  0.00  0.00     0.181 C 
ENDBRANCH  11  14
ENDBRANCH   3   8
BRANCH   4  16
ATOM     16  C   UNL d   1     -38.982  14.294  20.277  0.00  0.00     0.018 A 
ATOM     17  C   UNL d   1     -39.556  14.164  20.864  0.00  0.00     0.002 A 
ATOM     18  C   UNL d   1     -39.343  14.181  21.659  0.00  0.00     0.007 A 
ATOM     19  C   UNL d   1     -38.564  14.328  21.870  0.00  0.00     0.035 A 
ATOM     20  C   UNL d   1     -37.990  14.458  21.283  0.00  0.00     0.007 A 
ATOM     21 BR   UNL d   1     -38.352  14.345  22.665  0.00  0.00    -0.049 Br
ATOM     22  C   UNL d   1     -38.192  14.443  20.483  0.00  0.00     0.002 A 
ENDBRANCH   4  16
BRANCH   6  23
ATOM     23  C   UNL d   1     -38.244  12.612  18.357  0.00  0.00     0.069 C 
BRANCH  23  24
ATOM     24  C   UNL d   1     -37.999  11.846  18.489  0.00  0.00     0.075 C 
BRANCH  24  25
ATOM     25  C   UNL d   1     -37.972  11.296  17.887  0.00  0.00     0.211 C 
ATOM     26  O   UNL d   1     -37.953  10.487  18.044  0.00  0.00    -0.644 OA
ATOM     27  O   UNL d   1     -37.963  11.533  17.101  0.00  0.00    -0.644 OA
ENDBRANCH  24  25
ENDBRANCH  23  24
ENDBRANCH   6  23
TORSDOF 6
ENDMDL
MODEL 3
REMARK VINA RESULT:      -3.2      1.856      4.441
REMARK  6 active torsions:
REMARK  status: ('A' for Active; 'I' for Inactive)
REMARK       I    between atoms: C_6  and  N_1 
REMARK    1  A    between atoms: C_7  and  C_3 
REMARK    2  A    between atoms: C_8  and  C_4 
REMARK    3  A    between atoms: C_11  and  C_6 
REMARK    4  A    between atoms: C_9  and  C_17 
REMARK    5  A    between atoms: C_17  and  C_11 
REMARK    6  A    between atoms: O_26  and  C_19 
ROOT
ATOM      1  N   UNL d   1     -40.533  14.469  20.709  0.00  0.00    -0.195 N 
ATOM      2  N   UNL d   1     -41.115  14.129  21.174  0.00  0.00    -0.163 NA
ATOM      3  C   UNL d   1     -41.700  13.834  20.711  0.00  0.00     0.103 A 
ATOM      4  C   UNL d   1     -40.763  14.382  19.935  0.00  0.00     0.088 A 
ATOM      5  C   UNL d   1     -41.467  14.000  19.921  0.00  0.00     0.040 A 
ATOM      6  C   UNL d   1     -39.840  14.830  20.992  0.00  0.00     0.281 C 
ATOM      7  O   UNL d   1     -39.294  15.155  20.428  0.00  0.00    -0.265 OA
ENDROOT
BRANCH   3   8
ATOM      8  C   UNL d   1     -42.340  13.470  21.043  0.00  0.00     0.019 A 
ATOM      9  C   UNL d   1     -42.233  12.725  21.407  0.00  0.00     0.004 A 
ATOM     10  C   UNL d   1     -42.893  12.337  21.756  0.00  0.00     0.024 A 
ATOM     11  C   UNL d   1     -43.641  12.686  21.741  0.00  0.00     0.094 A 
ATOM     12  C   UNL d   1     -43.748  13.432  21.378  0.00  0.00     0.024 A 
ATOM     13  C   UNL d   1     -43.087  13.818  21.029  0.00  0.00     0.004 A 
BRANCH  11  14
ATOM     14  O   UNL d   1     -44.269  12.282  22.092  0.00  0.00    -0.328 OA
ATOM     15  C   UNL d   1     -44.985  12.667  22.286  0.00  0.00     0.181 C 
ENDBRANCH  11  14
ENDBRANCH   3   8
BRANCH   4  16
ATOM     16  C   UNL d   1     -40.358  14.636  19.236  0.00  0.00     0.018 A 
ATOM     17  C   UNL d   1     -39.841  14.117  18.843  0.00  0.00     0.002 A 
ATOM     18  C   UNL d   1     -39.447  14.364  18.163  0.00  0.00     0.007 A 
ATOM     19  C   UNL d   1     -39.567  15.122  17.875  0.00  0.00     0.035 A 
ATOM     20  C   UNL d   1     -40.084  15.641  18.267  0.00  0.00     0.007 A 
ATOM     21 BR   UNL d   1     -39.173  15.368  17.195  0.00  0.00    -0.049 Br
ATOM     22  C   UNL d   1     -40.484  15.404  18.950  0.00  0.00     0.002 A 
ENDBRANCH   4  16
BRANCH   6  23
ATOM     23  C   UNL d   1     -39.662  14.888  21.787  0.00  0.00     0.069 C 
BRANCH  23  24
ATOM     24  C   UNL d   1     -38.969  15.232  22.044  0.00  0.00     0.075 C 
BRANCH  24  25
ATOM     25  C   UNL d   1     -38.787  15.285  22.839  0.00  0.00     0.211 C 
ATOM     26  O   UNL d   1     -39.039  15.922  23.296  0.00  0.00    -0.644 OA
ATOM     27  O   UNL d   1     -38.344  14.701  23.207  0.00  0.00    -0.644 OA
ENDBRANCH  24  25
ENDBRANCH  23  24
ENDBRANCH   6  23
TORSDOF 6
ENDMDL
MODEL 4
REMARK VINA RESULT:      -3.0      1.131      3.977
REMARK  6 active torsions:
REMARK  status: ('A' for Active; 'I' for Inactive)
REMARK       I    between atoms: C_6  and  N_1 
REMARK    1  A    between atoms: C_7  and  C_3 
REMARK    2  A    between atoms: C_8  and  C_4 
REMARK    3  A    between atoms: C_11  and  C_6 
REMARK    4  A    between atoms: C_9  and  C_17 
REMARK    5  A    between atoms: C_17  and  C_11 
REMARK    6  A    between atoms: O_26  and  C_19 
ROOT
ATOM      1  N   UNL d   1     -40.930  14.250  20.425  0.00  0.00    -0.195 N 
ATOM      2  N   UNL d   1     -41.651  13.861  20.447  0.00  0.00    -0.163 NA
ATOM      3  C   UNL d   1     -41.875  13.738  21.207  0.00  0.00     0.103 A 
ATOM      4  C   UNL d   1     -40.701  14.371  21.195  0.00  0.00     0.088 A 
ATOM      5  C   UNL d   1     -41.262  14.067  21.678  0.00  0.00     0.040 A 
ATOM      6  C   UNL d   1     -40.523  14.471  19.736  0.00  0.00     0.281 C 
ATOM      7  O   UNL d   1     -39.778  14.873  19.818  0.00  0.00    -0.265 OA
ENDROOT
BRANCH   3   8
ATOM      8  C   UNL d   1     -42.571  13.362  21.372  0.00  0.00     0.019 A 
ATOM      9  C   UNL d   1     -42.543  12.584  21.678  0.00  0.00     0.004 A 
ATOM     10  C   UNL d   1     -43.262  12.184  21.853  0.00  0.00     0.024 A 
ATOM     11  C   UNL d   1     -43.989  12.552  21.727  0.00  0.00     0.094 A 
ATOM     12  C   UNL d   1     -44.017  13.330  21.421  0.00  0.00     0.024 A 
ATOM     13  C   UNL d   1     -43.297  13.730  21.246  0.00  0.00     0.004 A 
BRANCH  11  14
ATOM     14  O   UNL d   1     -44.677  12.134  21.908  0.00  0.00    -0.328 OA
ATOM     15  C   UNL d   1     -45.272  12.460  22.397  0.00  0.00     0.181 C 
ENDBRANCH  11  14
ENDBRANCH   3   8
BRANCH   4  16
ATOM     16  C   UNL d   1     -39.998  14.749  21.479  0.00  0.00     0.018 A 
ATOM     17  C   UNL d   1     -39.307  14.304  21.601  0.00  0.00     0.002 A 
ATOM     18  C   UNL d   1     -38.624  14.670  21.877  0.00  0.00     0.007 A 
ATOM     19  C   UNL d   1     -38.627  15.476  22.032  0.00  0.00     0.035 A 
ATOM     20  C   UNL d   1     -39.317  15.922  21.909  0.00  0.00     0.007 A 
ATOM     21 BR   UNL d   1     -37.943  15.843  22.308  0.00  0.00    -0.049 Br
ATOM     22  C   UNL d   1     -40.008  15.564  21.633  0.00  0.00     0.002 A 
ENDBRANCH   4  16
BRANCH   6  23
ATOM     23  C   UNL d   1     -40.806  14.321  18.984  0.00  0.00     0.069 C 
BRANCH  23  24
ATOM     24  C   UNL d   1     -40.471  14.667  18.327  0.00  0.00     0.075 C 
BRANCH  24  25
ATOM     25  C   UNL d   1     -40.630  14.395  17.573  0.00  0.00     0.211 C 
ATOM     26  O   UNL d   1     -40.394  13.645  17.328  0.00  0.00    -0.644 OA
ATOM     27  O   UNL d   1     -41.032  14.864  17.034  0.00  0.00    -0.644 OA
ENDBRANCH  24  25
ENDBRANCH  23  24
ENDBRANCH   6  23
TORSDOF 6
ENDMDL
