MODEL 1
REMARK VINA RESULT:      -9.2      0.000      0.000
REMARK  3 active torsions:
REMARK  status: ('A' for Active; 'I' for Inactive)
REMARK    1  A    between atoms: C_7  and  N_1 
REMARK    2  A    between atoms: C_11  and  C_4 
REMARK    3  A    between atoms: C_9  and  C_7 
ROOT
ATOM      1  N   UNL d   1     -47.531  13.086  23.087  0.00  0.00    -0.252 N 
ATOM      2  C   UNL d   1     -47.259  12.324  23.357  0.00  0.00     0.354 A 
ATOM      3  C   UNL d   1     -48.877  12.603  23.243  0.00  0.00     0.035 A 
ATOM      4  C   UNL d   1     -48.343  13.216  23.034  0.00  0.00     0.070 A 
ATOM      5  N   UNL d   1     -47.808  11.737  23.556  0.00  0.00    -0.192 NA
ATOM      6  C   UNL d   1     -48.620  11.867  23.503  0.00  0.00     0.087 A 
ATOM      7  C   UNL d   1     -49.680  12.768  23.177  0.00  0.00     0.010 A 
ATOM      8  O   UNL d   1     -46.455  12.159  23.422  0.00  0.00    -0.244 OA
ATOM      9  C   UNL d   1     -49.131  11.294  23.698  0.00  0.00     0.020 A 
ATOM     10  C   UNL d   1     -50.236  12.188  23.375  0.00  0.00     0.035 A 
ATOM     11  C   UNL d   1     -49.945  11.416  23.647  0.00  0.00     0.008 A 
ATOM     12 BR   UNL d   1     -51.064  12.357  23.307  0.00  0.00    -0.049 Br
ENDROOT
BRANCH   4  13
ATOM     13  C   UNL d   1     -48.628  13.906  22.790  0.00  0.00     0.016 A 
ATOM     14  C   UNL d   1     -48.760  14.033  21.990  0.00  0.00     0.001 A 
ATOM     15  C   UNL d   1     -49.060  14.757  21.718  0.00  0.00     0.000 A 
ATOM     16  C   UNL d   1     -49.232  15.367  22.264  0.00  0.00     0.000 A 
ATOM     17  C   UNL d   1     -49.102  15.246  23.069  0.00  0.00     0.000 A 
ATOM     18  C   UNL d   1     -48.813  14.548  23.325  0.00  0.00     0.001 A 
ENDBRANCH   4  13
BRANCH   1  19
ATOM     19  C   UNL d   1     -47.004  13.701  22.877  0.00  0.00     0.155 C 
BRANCH  19  20
ATOM     20  C   UNL d   1     -46.190  13.574  22.944  0.00  0.00     0.230 C 
ATOM     21  O   UNL d   1     -45.759  13.302  22.270  0.00  0.00    -0.643 OA
ATOM     22  O   UNL d   1     -45.826  13.717  23.664  0.00  0.00    -0.643 OA
ENDBRANCH  19  20
ENDBRANCH   1  19
TORSDOF 3
ENDMDL
MODEL 2
REMARK VINA RESULT:      -9.1      1.944      3.120
REMARK  3 active torsions:
REMARK  status: ('A' for Active; 'I' for Inactive)
REMARK    1  A    between atoms: C_7  and  N_1 
REMARK    2  A    between atoms: C_11  and  C_4 
REMARK    3  A    between atoms: C_9  and  C_7 
ROOT
ATOM      1  N   UNL d   1     -48.660  14.220  22.663  0.00  0.00    -0.252 N 
ATOM      2  C   UNL d   1     -48.002  14.760  22.615  0.00  0.00     0.354 A 
ATOM      3  C   UNL d   1     -47.723  13.188  23.018  0.00  0.00     0.035 A 
ATOM      4  C   UNL d   1     -48.510  13.435  22.865  0.00  0.00     0.070 A 
ATOM      5  N   UNL d   1     -47.235  14.489  22.771  0.00  0.00    -0.192 NA
ATOM      6  C   UNL d   1     -47.085  13.704  22.973  0.00  0.00     0.087 A 
ATOM      7  C   UNL d   1     -47.610  12.398  23.217  0.00  0.00     0.010 A 
ATOM      8  O   UNL d   1     -48.114  15.550  22.416  0.00  0.00    -0.244 OA
ATOM      9  C   UNL d   1     -46.344  13.463  23.119  0.00  0.00     0.020 A 
ATOM     10  C   UNL d   1     -46.846  12.119  23.375  0.00  0.00     0.035 A 
ATOM     11  C   UNL d   1     -46.185  12.680  23.322  0.00  0.00     0.008 A 
ATOM     12 BR   UNL d   1     -46.730  11.304  23.580  0.00  0.00    -0.049 Br
ENDROOT
BRANCH   4  13
ATOM     13  C   UNL d   1     -49.093  12.911  22.919  0.00  0.00     0.016 A 
ATOM     14  C   UNL d   1     -49.333  12.498  22.251  0.00  0.00     0.001 A 
ATOM     15  C   UNL d   1     -49.947  11.942  22.293  0.00  0.00     0.000 A 
ATOM     16  C   UNL d   1     -50.328  11.798  23.023  0.00  0.00     0.000 A 
ATOM     17  C   UNL d   1     -50.092  12.209  23.697  0.00  0.00     0.000 A 
ATOM     18  C   UNL d   1     -49.501  12.744  23.652  0.00  0.00     0.001 A 
ENDBRANCH   4  13
BRANCH   1  19
ATOM     19  C   UNL d   1     -49.447  14.458  22.512  0.00  0.00     0.155 C 
BRANCH  19  20
ATOM     20  C   UNL d   1     -49.638  15.262  22.548  0.00  0.00     0.230 C 
ATOM     21  O   UNL d   1     -49.749  15.627  23.303  0.00  0.00    -0.643 OA
ATOM     22  O   UNL d   1     -49.713  15.681  21.848  0.00  0.00    -0.643 OA
ENDBRANCH  19  20
ENDBRANCH   1  19
TORSDOF 3
ENDMDL
MODEL 3
REMARK VINA RESULT:      -9.1      1.005      2.534
REMARK  3 active torsions:
REMARK  status: ('A' for Active; 'I' for Inactive)
REMARK    1  A    between atoms: C_7  and  N_1 
REMARK    2  A    between atoms: C_11  and  C_4 
REMARK    3  A    between atoms: C_9  and  C_7 
ROOT
ATOM      1  N   UNL d   1     -47.503  13.768  22.737  0.00  0.00    -0.252 N 
ATOM      2  C   UNL d   1     -47.269  14.584  22.658  0.00  0.00     0.354 A 
ATOM      3  C   UNL d   1     -48.869  14.216  22.782  0.00  0.00     0.035 A 
ATOM      4  C   UNL d   1     -48.306  13.594  22.798  0.00  0.00     0.070 A 
ATOM      5  N   UNL d   1     -47.846  15.178  22.644  0.00  0.00    -0.192 NA
ATOM      6  C   UNL d   1     -48.649  15.004  22.706  0.00  0.00     0.087 A 
ATOM      7  C   UNL d   1     -49.662  14.005  22.845  0.00  0.00     0.010 A 
ATOM      8  O   UNL d   1     -46.476  14.795  22.594  0.00  0.00    -0.244 OA
ATOM      9  C   UNL d   1     -49.188  15.586  22.691  0.00  0.00     0.020 A 
ATOM     10  C   UNL d   1     -50.245  14.593  22.832  0.00  0.00     0.035 A 
ATOM     11  C   UNL d   1     -49.993  15.420  22.751  0.00  0.00     0.008 A 
ATOM     12 BR   UNL d   1     -51.062  14.376  22.898  0.00  0.00    -0.049 Br
ENDROOT
BRANCH   4  13
ATOM     13  C   UNL d   1     -48.556  12.853  22.872  0.00  0.00     0.016 A 
ATOM     14  C   UNL d   1     -48.708  12.405  22.202  0.00  0.00     0.001 A 
ATOM     15  C   UNL d   1     -48.973  11.621  22.265  0.00  0.00     0.000 A 
ATOM     16  C   UNL d   1     -49.087  11.280  23.020  0.00  0.00     0.000 A 
ATOM     17  C   UNL d   1     -48.936  11.725  23.698  0.00  0.00     0.000 A 
ATOM     18  C   UNL d   1     -48.681  12.479  23.632  0.00  0.00     0.001 A 
ENDBRANCH   4  13
BRANCH   1  19
ATOM     19  C   UNL d   1     -46.948  13.143  22.754  0.00  0.00     0.155 C 
BRANCH  19  20
ATOM     20  C   UNL d   1     -46.152  13.315  22.901  0.00  0.00     0.230 C 
ATOM     21  O   UNL d   1     -45.896  13.435  23.698  0.00  0.00    -0.643 OA
ATOM     22  O   UNL d   1     -45.636  13.363  22.267  0.00  0.00    -0.643 OA
ENDBRANCH  19  20
ENDBRANCH   1  19
TORSDOF 3
ENDMDL
MODEL 4
REMARK VINA RESULT:      -8.7      1.973      2.928
REMARK  3 active torsions:
REMARK  status: ('A' for Active; 'I' for Inactive)
REMARK    1  A    between atoms: C_7  and  N_1 
REMARK    2  A    between atoms: C_11  and  C_4 
REMARK    3  A    between atoms: C_9  and  C_7 
ROOT
ATOM      1  N   UNL d   1     -49.245  12.601  23.274  0.00  0.00    -0.252 N 
ATOM      2  C   UNL d   1     -48.967  11.826  23.498  0.00  0.00     0.354 A 
ATOM      3  C   UNL d   1     -47.870  12.999  23.140  0.00  0.00     0.035 A 
ATOM      4  C   UNL d   1     -48.688  13.181  23.097  0.00  0.00     0.070 A 
ATOM      5  N   UNL d   1     -48.154  11.674  23.533  0.00  0.00    -0.192 NA
ATOM      6  C   UNL d   1     -47.597  12.255  23.355  0.00  0.00     0.087 A 
ATOM      7  C   UNL d   1     -47.342  13.603  22.955  0.00  0.00     0.010 A 
ATOM      8  O   UNL d   1     -49.496  11.222  23.683  0.00  0.00    -0.244 OA
ATOM      9  C   UNL d   1     -46.822  12.091  23.393  0.00  0.00     0.020 A 
ATOM     10  C   UNL d   1     -46.527  13.460  22.987  0.00  0.00     0.035 A 
ATOM     11  C   UNL d   1     -46.258  12.666  23.217  0.00  0.00     0.008 A 
ATOM     12 BR   UNL d   1     -45.983  14.082  22.797  0.00  0.00    -0.049 Br
ENDROOT
BRANCH   4  13
ATOM     13  C   UNL d   1     -48.909  13.905  22.887  0.00  0.00     0.016 A 
ATOM     14  C   UNL d   1     -49.076  14.464  23.464  0.00  0.00     0.001 A 
ATOM     15  C   UNL d   1     -49.310  15.232  23.257  0.00  0.00     0.000 A 
ATOM     16  C   UNL d   1     -49.378  15.443  22.451  0.00  0.00     0.000 A 
ATOM     17  C   UNL d   1     -49.212  14.886  21.865  0.00  0.00     0.000 A 
ATOM     18  C   UNL d   1     -48.987  14.148  22.070  0.00  0.00     0.001 A 
ENDBRANCH   4  13
BRANCH   1  19
ATOM     19  C   UNL d   1     -50.059  12.789  23.230  0.00  0.00     0.155 C 
BRANCH  19  20
ATOM     20  C   UNL d   1     -50.604  12.186  23.080  0.00  0.00     0.230 C 
ATOM     21  O   UNL d   1     -50.670  11.875  22.296  0.00  0.00    -0.643 OA
ATOM     22  O   UNL d   1     -51.064  11.908  23.698  0.00  0.00    -0.643 OA
ENDBRANCH  19  20
ENDBRANCH   1  19
TORSDOF 3
ENDMDL
MODEL 5
REMARK VINA RESULT:      -7.7      1.987      2.729
REMARK  3 active torsions:
REMARK  status: ('A' for Active; 'I' for Inactive)
REMARK    1  A    between atoms: C_7  and  N_1 
REMARK    2  A    between atoms: C_11  and  C_4 
REMARK    3  A    between atoms: C_9  and  C_7 
ROOT
ATOM      1  N   UNL d   1     -48.865  13.962  22.804  0.00  0.00    -0.252 N 
ATOM      2  C   UNL d   1     -49.677  13.742  22.942  0.00  0.00     0.354 A 
ATOM      3  C   UNL d   1     -48.491  12.628  23.189  0.00  0.00     0.035 A 
ATOM      4  C   UNL d   1     -48.279  13.397  22.930  0.00  0.00     0.070 A 
ATOM      5  N   UNL d   1     -49.858  12.976  23.198  0.00  0.00    -0.192 NA
ATOM      6  C   UNL d   1     -49.272  12.411  23.324  0.00  0.00     0.087 A 
ATOM      7  C   UNL d   1     -47.880  12.090  23.306  0.00  0.00     0.010 A 
ATOM      8  O   UNL d   1     -50.289  14.280  22.826  0.00  0.00    -0.244 OA
ATOM      9  C   UNL d   1     -49.464  11.681  23.569  0.00  0.00     0.020 A 
ATOM     10  C   UNL d   1     -48.052  11.321  23.561  0.00  0.00     0.035 A 
ATOM     11  C   UNL d   1     -48.883  11.111  23.698  0.00  0.00     0.008 A 
ATOM     12 BR   UNL d   1     -47.422  10.766  23.681  0.00  0.00    -0.049 Br
ENDROOT
BRANCH   4  13
ATOM     13  C   UNL d   1     -47.521  13.566  22.813  0.00  0.00     0.016 A 
ATOM     14  C   UNL d   1     -47.069  13.866  23.428  0.00  0.00     0.001 A 
ATOM     15  C   UNL d   1     -46.267  14.049  23.318  0.00  0.00     0.000 A 
ATOM     16  C   UNL d   1     -45.912  13.927  22.572  0.00  0.00     0.000 A 
ATOM     17  C   UNL d   1     -46.359  13.625  21.948  0.00  0.00     0.000 A 
ATOM     18  C   UNL d   1     -47.131  13.451  22.059  0.00  0.00     0.001 A 
ENDBRANCH   4  13
BRANCH   1  19
ATOM     19  C   UNL d   1     -48.646  14.727  22.546  0.00  0.00     0.155 C 
BRANCH  19  20
ATOM     20  C   UNL d   1     -49.204  15.336  22.574  0.00  0.00     0.230 C 
ATOM     21  O   UNL d   1     -49.623  15.544  21.869  0.00  0.00    -0.643 OA
ATOM     22  O   UNL d   1     -49.333  15.721  23.286  0.00  0.00    -0.643 OA
ENDBRANCH  19  20
ENDBRANCH   1  19
TORSDOF 3
ENDMDL
MODEL 6
REMARK VINA RESULT:      -7.5      1.640      2.500
REMARK  3 active torsions:
REMARK  status: ('A' for Active; 'I' for Inactive)
REMARK    1  A    between atoms: C_7  and  N_1 
REMARK    2  A    between atoms: C_11  and  C_4 
REMARK    3  A    between atoms: C_9  and  C_7 
ROOT
ATOM      1  N   UNL d   1     -48.838  12.405  23.115  0.00  0.00    -0.252 N 
ATOM      2  C   UNL d   1     -49.564  12.018  23.341  0.00  0.00     0.354 A 
ATOM      3  C   UNL d   1     -49.512  13.663  23.294  0.00  0.00     0.035 A 
ATOM      4  C   UNL d   1     -48.822  13.228  23.095  0.00  0.00     0.070 A 
ATOM      5  N   UNL d   1     -50.230  12.472  23.532  0.00  0.00    -0.192 NA
ATOM      6  C   UNL d   1     -50.214  13.295  23.511  0.00  0.00     0.087 A 
ATOM      7  C   UNL d   1     -49.460  14.484  23.262  0.00  0.00     0.010 A 
ATOM      8  O   UNL d   1     -49.616  11.198  23.372  0.00  0.00    -0.244 OA
ATOM      9  C   UNL d   1     -50.862  13.713  23.698  0.00  0.00     0.020 A 
ATOM     10  C   UNL d   1     -50.121  14.945  23.452  0.00  0.00     0.035 A 
ATOM     11  C   UNL d   1     -50.854  14.538  23.680  0.00  0.00     0.008 A 
ATOM     12 BR   UNL d   1     -50.068  15.790  23.420  0.00  0.00    -0.049 Br
ENDROOT
BRANCH   4  13
ATOM     13  C   UNL d   1     -48.171  13.617  22.892  0.00  0.00     0.016 A 
ATOM     14  C   UNL d   1     -48.067  13.863  22.116  0.00  0.00     0.001 A 
ATOM     15  C   UNL d   1     -47.384  14.274  21.887  0.00  0.00     0.000 A 
ATOM     16  C   UNL d   1     -46.791  14.441  22.452  0.00  0.00     0.000 A 
ATOM     17  C   UNL d   1     -46.888  14.197  23.234  0.00  0.00     0.000 A 
ATOM     18  C   UNL d   1     -47.548  13.802  23.449  0.00  0.00     0.001 A 
ENDBRANCH   4  13
BRANCH   1  19
ATOM     19  C   UNL d   1     -48.147  11.979  22.916  0.00  0.00     0.155 C 
BRANCH  19  20
ATOM     20  C   UNL d   1     -48.155  11.153  22.963  0.00  0.00     0.230 C 
ATOM     21  O   UNL d   1     -47.953  10.780  23.694  0.00  0.00    -0.643 OA
ATOM     22  O   UNL d   1     -48.360  10.722  22.297  0.00  0.00    -0.643 OA
ENDBRANCH  19  20
ENDBRANCH   1  19
TORSDOF 3
ENDMDL
MODEL 7
REMARK VINA RESULT:      -7.0      1.301      2.724
REMARK  3 active torsions:
REMARK  status: ('A' for Active; 'I' for Inactive)
REMARK    1  A    between atoms: C_7  and  N_1 
REMARK    2  A    between atoms: C_11  and  C_4 
REMARK    3  A    between atoms: C_9  and  C_7 
ROOT
ATOM      1  N   UNL d   1     -47.158  12.208  23.367  0.00  0.00    -0.252 N 
ATOM      2  C   UNL d   1     -46.375  12.539  23.447  0.00  0.00     0.354 A 
ATOM      3  C   UNL d   1     -47.612  13.510  22.961  0.00  0.00     0.035 A 
ATOM      4  C   UNL d   1     -47.770  12.702  23.123  0.00  0.00     0.070 A 
ATOM      5  N   UNL d   1     -46.249  13.340  23.280  0.00  0.00    -0.192 NA
ATOM      6  C   UNL d   1     -46.861  13.834  23.036  0.00  0.00     0.087 A 
ATOM      7  C   UNL d   1     -48.247  13.975  22.719  0.00  0.00     0.010 A 
ATOM      8  O   UNL d   1     -45.740  12.074  23.688  0.00  0.00    -0.244 OA
ATOM      9  C   UNL d   1     -46.720  14.599  22.881  0.00  0.00     0.020 A 
ATOM     10  C   UNL d   1     -48.129  14.777  22.551  0.00  0.00     0.035 A 
ATOM     11  C   UNL d   1     -47.328  15.100  22.636  0.00  0.00     0.008 A 
ATOM     12 BR   UNL d   1     -48.783  15.255  22.302  0.00  0.00    -0.049 Br
ENDROOT
BRANCH   4  13
ATOM     13  C   UNL d   1     -48.501  12.430  23.039  0.00  0.00     0.016 A 
ATOM     14  C   UNL d   1     -48.779  12.229  22.293  0.00  0.00     0.001 A 
ATOM     15  C   UNL d   1     -49.550  11.940  22.190  0.00  0.00     0.000 A 
ATOM     16  C   UNL d   1     -50.054  11.853  22.852  0.00  0.00     0.000 A 
ATOM     17  C   UNL d   1     -49.781  12.053  23.604  0.00  0.00     0.000 A 
ATOM     18  C   UNL d   1     -49.038  12.331  23.698  0.00  0.00     0.001 A 
ENDBRANCH   4  13
BRANCH   1  19
ATOM     19  C   UNL d   1     -47.322  11.403  23.526  0.00  0.00     0.155 C 
BRANCH  19  20
ATOM     20  C   UNL d   1     -46.751  10.833  23.346  0.00  0.00     0.230 C 
ATOM     21  O   UNL d   1     -46.946  10.211  22.807  0.00  0.00    -0.643 OA
ATOM     22  O   UNL d   1     -46.013  10.888  23.698  0.00  0.00    -0.643 OA
ENDBRANCH  19  20
ENDBRANCH   1  19
TORSDOF 3
ENDMDL
