MODEL 1
REMARK VINA RESULT:      24.2      0.000      0.000
REMARK  3 active torsions:
REMARK  status: ('A' for Active; 'I' for Inactive)
REMARK    1  A    between atoms: S_9  and  C_2 
REMARK    2  A    between atoms: C_8  and  C_3 
REMARK    3  A    between atoms: C_10  and  S_9 
ROOT
ATOM      1  N   UNL d   1      56.121  47.779  50.962  0.00  0.00    -0.195 NA
ATOM      2  C   UNL d   1      56.168  48.351  50.372  0.00  0.00     0.086 C 
ATOM      3  C   UNL d   1      56.212  48.920  49.778  0.00  0.00     0.169 C 
ENDROOT
BRANCH   3   4
ATOM      4  S   UNL d   1      56.630  49.607  49.912  0.00  0.00    -0.072 SA
BRANCH   4   5
ATOM      5  C   UNL d   1      57.450  49.613  49.870  0.00  0.00     0.137 A 
ATOM      6  N   UNL d   1      57.980  49.633  50.507  0.00  0.00    -0.232 NA
ATOM      7  C   UNL d   1      58.739  49.632  50.207  0.00  0.00     0.089 A 
ATOM      8  C   UNL d   1      58.692  49.613  49.390  0.00  0.00     0.057 A 
ATOM      9  S   UNL d   1      57.900  49.601  49.177  0.00  0.00    -0.060 SA
BRANCH   7  10
ATOM     10  C   UNL d   1      59.435  49.648  50.650  0.00  0.00     0.018 A 
ATOM     11  C   UNL d   1      59.383  49.647  51.471  0.00  0.00     0.002 A 
ATOM     12  C   UNL d   1      60.079  49.663  51.915  0.00  0.00     0.000 A 
ATOM     13  C   UNL d   1      60.816  49.680  51.541  0.00  0.00     0.000 A 
ATOM     14  C   UNL d   1      60.850  49.681  50.710  0.00  0.00     0.000 A 
ATOM     15  C   UNL d   1      60.152  49.665  50.271  0.00  0.00     0.002 A 
ENDBRANCH   7  10
ENDBRANCH   4   5
ENDBRANCH   3   4
TORSDOF 3
ENDMDL
