MODEL 1
REMARK VINA RESULT:      53.3      0.000      0.000
REMARK  6 active torsions:
REMARK  status: ('A' for Active; 'I' for Inactive)
REMARK    1  A    between atoms: N_15  and  C_1 
REMARK    2  A    between atoms: C_21  and  N_6 
REMARK    3  A    between atoms: C_16  and  C_8 
REMARK    4  A    between atoms: C_9  and  S_17 
REMARK       I    between atoms: C_20  and  N_15 
REMARK    5  A    between atoms: S_17  and  C_23 
REMARK    6  A    between atoms: C_23  and  C_20 
ROOT
ATOM      1  C   UNL d   1      44.506 -17.249  39.270  0.00  0.00     0.099 C 
ENDROOT
BRANCH   1   2
ATOM      2  S   UNL d   1      44.739 -17.150  38.421  0.00  0.00    -0.064 SA
BRANCH   2   3
ATOM      3  C   UNL d   1      44.916 -16.475  37.919  0.00  0.00     0.096 A 
ATOM      4  N   UNL d   1      44.302 -16.088  37.530  0.00  0.00    -0.285 N 
ATOM      5  C   UNL d   1      44.475 -15.426  37.039  0.00  0.00     0.150 A 
ATOM      6  C   UNL d   1      42.898 -15.941  37.217  0.00  0.00     0.084 A 
ATOM      7  N   UNL d   1      43.860 -15.028  36.641  0.00  0.00    -0.227 NA
ATOM      8  C   UNL d   1      45.255 -15.174  36.952  0.00  0.00     0.056 A 
ATOM      9  C   UNL d   1      43.071 -15.281  36.726  0.00  0.00     0.099 A 
ATOM     10  C   UNL d   1      42.458 -14.893  36.336  0.00  0.00     0.021 A 
ATOM     11  C   UNL d   1      41.677 -15.146  36.422  0.00  0.00     0.002 A 
ATOM     12  C   UNL d   1      41.508 -15.796  36.906  0.00  0.00     0.002 A 
ATOM     13  C   UNL d   1      42.117 -16.194  37.303  0.00  0.00     0.019 A 
ATOM     14  C   UNL d   1      45.875 -15.572  37.351  0.00  0.00     0.006 A 
ATOM     15  C   UNL d   1      45.697 -16.222  37.833  0.00  0.00     0.025 A 
ATOM     16  C   UNL d   1      46.647 -15.319  37.263  0.00  0.00     0.000 C 
BRANCH   8  17
ATOM     17  C   UNL d   1      45.434 -14.524  36.471  0.00  0.00     0.125 C 
ATOM     18  N   UNL d   1      45.694 -13.834  36.849  0.00  0.00    -0.146 N 
ENDBRANCH   8  17
ENDBRANCH   2   3
ENDBRANCH   1   2
BRANCH   1  19
ATOM     19  C   UNL d   1      44.910 -17.856  39.761  0.00  0.00     0.286 C 
ATOM     20  N   UNL d   1      44.990 -17.731  40.632  0.00  0.00    -0.201 NA
ATOM     21  O   UNL d   1      45.236 -18.589  39.392  0.00  0.00    -0.265 OA
BRANCH  20  22
ATOM     22  C   UNL d   1      45.396 -18.339  41.132  0.00  0.00     0.160 A 
ATOM     23  C   UNL d   1      45.491 -18.451  41.927  0.00  0.00     0.298 A 
ATOM     24  N   UNL d   1      45.911 -19.091  42.193  0.00  0.00    -0.209 N 
ATOM     25  O   UNL d   1      45.172 -17.932  42.446  0.00  0.00    -0.263 OA
ATOM     26  N   UNL d   1      46.232 -19.612  41.676  0.00  0.00    -0.238 N 
ATOM     27  C   UNL d   1      46.135 -19.497  40.879  0.00  0.00     0.104 A 
ATOM     28  C   UNL d   1      46.647 -20.246  41.940  0.00  0.00     0.120 C 
ATOM     29  C   UNL d   1      46.391 -19.929  40.157  0.00  0.00     0.022 C 
BRANCH  24  30
ATOM     30  C   UNL d   1      46.006 -19.202  42.988  0.00  0.00     0.085 A 
ATOM     31  C   UNL d   1      46.421 -18.663  43.418  0.00  0.00     0.019 A 
ATOM     32  C   UNL d   1      46.515 -18.775  44.213  0.00  0.00     0.002 A 
ATOM     33  C   UNL d   1      46.191 -19.428  44.566  0.00  0.00     0.000 A 
ATOM     34  C   UNL d   1      45.780 -19.955  44.121  0.00  0.00     0.002 A 
ATOM     35  C   UNL d   1      45.688 -19.840  43.334  0.00  0.00     0.019 A 
ENDBRANCH  24  30
ENDBRANCH  20  22
ENDBRANCH   1  19
TORSDOF 6
ENDMDL
