MODEL 1
REMARK VINA RESULT:      -4.6      0.000      0.000
REMARK  5 active torsions:
REMARK  status: ('A' for Active; 'I' for Inactive)
REMARK    1  A    between atoms: C_2  and  S_1 
REMARK    2  A    between atoms: N_11  and  S_1 
REMARK    3  A    between atoms: N_3  and  C_17 
REMARK    4  A    between atoms: C_16  and  N_11 
REMARK    5  A    between atoms: C_17  and  C_16 
ROOT
ATOM      1  S   UNL d   1     -42.397-122.405 -50.537  0.00  0.00     0.285 S 
ATOM      2  O   UNL d   1     -43.112-122.259 -50.152  0.00  0.00    -0.198 OA
ATOM      3  O   UNL d   1     -42.691-122.054 -51.226  0.00  0.00    -0.198 OA
ENDROOT
BRANCH   1   4
ATOM      4  C   UNL d   1     -42.083-122.762 -49.854  0.00  0.00     0.105 A 
ATOM      5  C   UNL d   1     -42.411-123.463 -49.570  0.00  0.00     0.012 A 
ATOM      6  C   UNL d   1     -42.105-123.817 -48.897  0.00  0.00     0.001 A 
ATOM      7  C   UNL d   1     -43.052-123.814 -49.962  0.00  0.00     0.001 C 
ATOM      8  C   UNL d   1     -41.463-123.472 -48.499  0.00  0.00     0.000 A 
ATOM      9  C   UNL d   1     -41.138-122.765 -48.793  0.00  0.00     0.001 A 
ATOM     10  C   UNL d   1     -41.145-123.817 -47.823  0.00  0.00     0.000 C 
ATOM     11  C   UNL d   1     -41.454-122.416 -49.471  0.00  0.00     0.012 A 
ATOM     12  C   UNL d   1     -41.129-121.716 -49.758  0.00  0.00     0.001 C 
ENDBRANCH   1   4
BRANCH   1  13
ATOM     13  N   UNL d   1     -41.788-122.452 -51.090  0.00  0.00    -0.155 NA
BRANCH  13  14
ATOM     14  C   UNL d   1     -41.952-122.653 -51.873  0.00  0.00     0.131 C 
BRANCH  14  15
ATOM     15  C   UNL d   1     -41.489-122.345 -52.482  0.00  0.00     0.102 C 
BRANCH  15  16
ATOM     16  N   UNL d   1     -41.436-122.744 -53.202  0.00  0.00    -0.303 N 
ATOM     17  C   UNL d   1     -41.165-123.519 -53.308  0.00  0.00     0.080 A 
ATOM     18  C   UNL d   1     -41.205-123.697 -54.111  0.00  0.00     0.021 A 
ATOM     19  C   UNL d   1     -41.500-123.037 -54.509  0.00  0.00     0.018 A 
ATOM     20  C   UNL d   1     -41.644-122.446 -53.949  0.00  0.00     0.064 A 
ATOM     21  C   UNL d   1     -41.659-122.887 -55.302  0.00  0.00     0.002 A 
ATOM     22  C   UNL d   1     -41.942-121.714 -54.176  0.00  0.00     0.018 A 
ATOM     23  C   UNL d   1     -42.101-121.565 -54.969  0.00  0.00     0.002 A 
ATOM     24  C   UNL d   1     -41.961-122.151 -55.546  0.00  0.00     0.000 A 
ENDBRANCH  15  16
ENDBRANCH  14  15
ENDBRANCH  13  14
ENDBRANCH   1  13
TORSDOF 5
ENDMDL
