MODEL 1
REMARK VINA RESULT:      -8.2      0.000      0.000
REMARK  3 active torsions:
REMARK  status: ('A' for Active; 'I' for Inactive)
REMARK    1  A    between atoms: S_4  and  C_1 
REMARK    2  A    between atoms: N_3  and  C_2 
REMARK    3  A    between atoms: C_5  and  S_4 
ROOT
ATOM      1  C   UNL d   1      53.465  32.469  53.614  0.00  0.00     0.139 A 
ATOM      2  C   UNL d   1      53.616  33.078  54.150  0.00  0.00     0.188 A 
ATOM      3  N   UNL d   1      52.704  32.450  53.255  0.00  0.00    -0.216 NA
ATOM      4  C   UNL d   1      53.095  33.638  54.344  0.00  0.00     0.209 A 
ATOM      5  N   UNL d   1      52.314  33.649  53.998  0.00  0.00    -0.202 NA
ATOM      6  C   UNL d   1      52.139  33.027  53.442  0.00  0.00     0.201 A 
ATOM      7  N   UNL d   1      53.192  34.282  54.882  0.00  0.00    -0.125 N 
ENDROOT
BRANCH   1   8
ATOM      8  S   UNL d   1      53.974  31.920  53.424  0.00  0.00    -0.047 SA
BRANCH   8   9
ATOM      9  C   UNL d   1      53.533  31.084  53.415  0.00  0.00     0.115 A 
ATOM     10  N   UNL d   1      53.114  30.909  52.704  0.00  0.00    -0.217 NA
ATOM     11  C   UNL d   1      52.707  30.179  52.647  0.00  0.00     0.200 A 
ATOM     12  N   UNL d   1      52.714  29.647  53.268  0.00  0.00    -0.224 NA
ATOM     13  C   UNL d   1      53.137  29.828  53.980  0.00  0.00     0.085 A 
ATOM     14  C   UNL d   1      53.539  30.538  54.047  0.00  0.00     0.045 A 
ATOM     15  C   UNL d   1      53.132  29.362  54.498  0.00  0.00     0.021 C 
ENDBRANCH   8   9
ENDBRANCH   1   8
BRANCH   2  16
ATOM     16  N   UNL d   1      54.379  33.094  54.508  0.00  0.00    -0.108 N 
ATOM     17  O   UNL d   1      55.077  33.300  54.128  0.00  0.00    -0.532 OA
ATOM     18  O   UNL d   1      54.500  32.893  55.312  0.00  0.00    -0.532 OA
ENDBRANCH   2  16
TORSDOF 3
ENDMDL
MODEL 2
REMARK VINA RESULT:      -7.9      2.127      3.039
REMARK  3 active torsions:
REMARK  status: ('A' for Active; 'I' for Inactive)
REMARK    1  A    between atoms: S_4  and  C_1 
REMARK    2  A    between atoms: N_3  and  C_2 
REMARK    3  A    between atoms: C_5  and  S_4 
ROOT
ATOM      1  C   UNL d   1      53.001  33.441  54.055  0.00  0.00     0.139 A 
ATOM      2  C   UNL d   1      53.738  33.245  54.371  0.00  0.00     0.188 A 
ATOM      3  N   UNL d   1      52.706  34.214  54.212  0.00  0.00    -0.216 NA
ATOM      4  C   UNL d   1      54.179  33.734  54.807  0.00  0.00     0.209 A 
ATOM      5  N   UNL d   1      53.909  34.526  54.985  0.00  0.00    -0.202 NA
ATOM      6  C   UNL d   1      53.150  34.746  54.667  0.00  0.00     0.201 A 
ATOM      7  N   UNL d   1      54.935  33.591  55.154  0.00  0.00    -0.125 N 
ENDROOT
BRANCH   1   8
ATOM      8  S   UNL d   1      52.569  32.963  53.628  0.00  0.00    -0.047 SA
BRANCH   8   9
ATOM      9  C   UNL d   1      51.990  33.477  53.087  0.00  0.00     0.115 A 
ATOM     10  N   UNL d   1      52.324  33.746  52.361  0.00  0.00    -0.217 NA
ATOM     11  C   UNL d   1      51.849  34.206  51.846  0.00  0.00     0.200 A 
ATOM     12  N   UNL d   1      51.077  34.390  52.042  0.00  0.00    -0.224 NA
ATOM     13  C   UNL d   1      50.747  34.116  52.773  0.00  0.00     0.085 A 
ATOM     14  C   UNL d   1      51.201  33.667  53.284  0.00  0.00     0.045 A 
ATOM     15  C   UNL d   1      50.087  34.283  52.924  0.00  0.00     0.021 C 
ENDBRANCH   8   9
ENDBRANCH   1   8
BRANCH   2  16
ATOM     16  N   UNL d   1      54.031  32.471  54.211  0.00  0.00    -0.108 N 
ATOM     17  O   UNL d   1      54.541  32.273  53.599  0.00  0.00    -0.532 OA
ATOM     18  O   UNL d   1      53.820  31.809  54.679  0.00  0.00    -0.532 OA
ENDBRANCH   2  16
TORSDOF 3
ENDMDL
MODEL 3
REMARK VINA RESULT:      -7.6      1.299      3.212
REMARK  3 active torsions:
REMARK  status: ('A' for Active; 'I' for Inactive)
REMARK    1  A    between atoms: S_4  and  C_1 
REMARK    2  A    between atoms: N_3  and  C_2 
REMARK    3  A    between atoms: C_5  and  S_4 
ROOT
ATOM      1  C   UNL d   1      53.014  32.538  53.263  0.00  0.00     0.139 A 
ATOM      2  C   UNL d   1      53.520  32.056  53.701  0.00  0.00     0.188 A 
ATOM      3  N   UNL d   1      52.485  32.159  52.729  0.00  0.00    -0.216 NA
ATOM      4  C   UNL d   1      53.538  31.268  53.650  0.00  0.00     0.209 A 
ATOM      5  N   UNL d   1      53.015  30.852  53.118  0.00  0.00    -0.202 NA
ATOM      6  C   UNL d   1      52.485  31.333  52.657  0.00  0.00     0.201 A 
ATOM      7  N   UNL d   1      54.031  30.726  54.071  0.00  0.00    -0.125 N 
ENDROOT
BRANCH   1   8
ATOM      8  S   UNL d   1      52.995  33.309  53.312  0.00  0.00    -0.047 SA
BRANCH   8   9
ATOM      9  C   UNL d   1      52.124  33.608  53.101  0.00  0.00     0.115 A 
ATOM     10  N   UNL d   1      51.570  33.570  53.736  0.00  0.00    -0.217 NA
ATOM     11  C   UNL d   1      50.783  33.824  53.598  0.00  0.00     0.200 A 
ATOM     12  N   UNL d   1      50.556  34.102  52.864  0.00  0.00    -0.224 NA
ATOM     13  C   UNL d   1      51.118  34.138  52.230  0.00  0.00     0.085 A 
ATOM     14  C   UNL d   1      51.889  33.893  52.352  0.00  0.00     0.045 A 
ATOM     15  C   UNL d   1      50.906  34.379  51.610  0.00  0.00     0.021 C 
ENDBRANCH   8   9
ENDBRANCH   1   8
BRANCH   2  16
ATOM     16  N   UNL d   1      54.048  32.439  54.236  0.00  0.00    -0.108 N 
ATOM     17  O   UNL d   1      53.928  32.521  55.044  0.00  0.00    -0.532 OA
ATOM     18  O   UNL d   1      54.768  32.784  53.982  0.00  0.00    -0.532 OA
ENDBRANCH   2  16
TORSDOF 3
ENDMDL
MODEL 4
REMARK VINA RESULT:      -7.4      2.221      3.145
REMARK  3 active torsions:
REMARK  status: ('A' for Active; 'I' for Inactive)
REMARK    1  A    between atoms: S_4  and  C_1 
REMARK    2  A    between atoms: N_3  and  C_2 
REMARK    3  A    between atoms: C_5  and  S_4 
ROOT
ATOM      1  C   UNL d   1      53.008  33.270  53.316  0.00  0.00     0.139 A 
ATOM      2  C   UNL d   1      52.256  33.073  53.037  0.00  0.00     0.188 A 
ATOM      3  N   UNL d   1      53.151  34.077  53.506  0.00  0.00    -0.216 NA
ATOM      4  C   UNL d   1      51.669  33.592  52.940  0.00  0.00     0.209 A 
ATOM      5  N   UNL d   1      51.780  34.419  53.124  0.00  0.00    -0.202 NA
ATOM      6  C   UNL d   1      52.550  34.641  53.413  0.00  0.00     0.201 A 
ATOM      7  N   UNL d   1      50.884  33.450  52.661  0.00  0.00    -0.125 N 
ENDROOT
BRANCH   1   8
ATOM      8  S   UNL d   1      53.583  32.763  53.411  0.00  0.00    -0.047 SA
BRANCH   8   9
ATOM      9  C   UNL d   1      54.064  32.990  54.192  0.00  0.00     0.115 A 
ATOM     10  N   UNL d   1      53.762  32.659  54.907  0.00  0.00    -0.217 NA
ATOM     11  C   UNL d   1      54.154  32.831  55.627  0.00  0.00     0.200 A 
ATOM     12  N   UNL d   1      54.816  33.311  55.638  0.00  0.00    -0.224 NA
ATOM     13  C   UNL d   1      55.115  33.641  54.917  0.00  0.00     0.085 A 
ATOM     14  C   UNL d   1      54.741  33.480  54.207  0.00  0.00     0.045 A 
ATOM     15  C   UNL d   1      55.680  34.048  54.946  0.00  0.00     0.021 C 
ENDBRANCH   8   9
ENDBRANCH   1   8
BRANCH   2  16
ATOM     16  N   UNL d   1      52.117  32.264  52.848  0.00  0.00    -0.108 N 
ATOM     17  O   UNL d   1      51.656  31.746  53.288  0.00  0.00    -0.532 OA
ATOM     18  O   UNL d   1      52.447  31.900  52.170  0.00  0.00    -0.532 OA
ENDBRANCH   2  16
TORSDOF 3
ENDMDL
MODEL 5
REMARK VINA RESULT:      -7.2      1.420      1.810
REMARK  3 active torsions:
REMARK  status: ('A' for Active; 'I' for Inactive)
REMARK    1  A    between atoms: S_4  and  C_1 
REMARK    2  A    between atoms: N_3  and  C_2 
REMARK    3  A    between atoms: C_5  and  S_4 
ROOT
ATOM      1  C   UNL d   1      53.291  33.234  53.674  0.00  0.00     0.139 A 
ATOM      2  C   UNL d   1      53.057  33.991  53.905  0.00  0.00     0.188 A 
ATOM      3  N   UNL d   1      53.744  32.785  54.224  0.00  0.00    -0.216 NA
ATOM      4  C   UNL d   1      53.230  34.316  54.604  0.00  0.00     0.209 A 
ATOM      5  N   UNL d   1      53.687  33.888  55.185  0.00  0.00    -0.202 NA
ATOM      6  C   UNL d   1      53.939  33.104  54.964  0.00  0.00     0.201 A 
ATOM      7  N   UNL d   1      53.018  35.080  54.895  0.00  0.00    -0.125 N 
ENDROOT
BRANCH   1   8
ATOM      8  S   UNL d   1      53.123  32.916  52.991  0.00  0.00    -0.047 SA
BRANCH   8   9
ATOM      9  C   UNL d   1      52.941  31.997  53.119  0.00  0.00     0.115 A 
ATOM     10  N   UNL d   1      52.124  31.803  53.200  0.00  0.00    -0.217 NA
ATOM     11  C   UNL d   1      51.913  31.000  53.316  0.00  0.00     0.200 A 
ATOM     12  N   UNL d   1      52.485  30.417  53.348  0.00  0.00    -0.224 NA
ATOM     13  C   UNL d   1      53.304  30.619  53.266  0.00  0.00     0.085 A 
ATOM     14  C   UNL d   1      53.523  31.399  53.152  0.00  0.00     0.045 A 
ATOM     15  C   UNL d   1      53.778  30.109  53.296  0.00  0.00     0.021 C 
ENDBRANCH   8   9
ENDBRANCH   1   8
BRANCH   2  16
ATOM     16  N   UNL d   1      52.603  34.438  53.352  0.00  0.00    -0.108 N 
ATOM     17  O   UNL d   1      51.785  34.512  53.359  0.00  0.00    -0.532 OA
ATOM     18  O   UNL d   1      52.957  34.863  52.724  0.00  0.00    -0.532 OA
ENDBRANCH   2  16
TORSDOF 3
ENDMDL
