MODEL 1
REMARK VINA RESULT:      -4.9      0.000      0.000
REMARK  5 active torsions:
REMARK  status: ('A' for Active; 'I' for Inactive)
REMARK    1  A    between atoms: N_15  and  C_6 
REMARK    2  A    between atoms: N_14  and  C_18 
REMARK    3  A    between atoms: C_24  and  N_15 
REMARK    4  A    between atoms: C_18  and  C_19 
REMARK    5  A    between atoms: C_19  and  C_24 
ROOT
ATOM      1  N   UNL d   1      58.796  -0.843  29.623  0.00  0.00    -0.183 N 
ATOM      2  C   UNL d   1      59.450  -1.189  29.259  0.00  0.00     0.169 A 
ATOM      3  C   UNL d   1      59.443  -1.977  29.058  0.00  0.00     0.073 A 
ATOM      4  C   UNL d   1      58.779  -2.417  29.224  0.00  0.00     0.185 A 
ATOM      5  N   UNL d   1      58.125  -2.070  29.588  0.00  0.00    -0.142 NA
ATOM      6  C   UNL d   1      58.821  -0.054  29.817  0.00  0.00     0.218 A 
ATOM      7  N   UNL d   1      60.111  -0.738  29.097  0.00  0.00    -0.226 NA
ATOM      8  C   UNL d   1      60.090  -2.320  28.697  0.00  0.00     0.007 A 
ATOM      9  N   UNL d   1      58.757  -3.216  29.026  0.00  0.00    -0.225 NA
ATOM     10  C   UNL d   1      59.473   0.397  29.659  0.00  0.00     0.071 A 
ATOM     11  C   UNL d   1      60.083  -3.109  28.496  0.00  0.00     0.019 A 
ATOM     12  C   UNL d   1      60.127   0.050  29.294  0.00  0.00     0.087 A 
ATOM     13  C   UNL d   1      59.411  -3.563  28.662  0.00  0.00     0.083 A 
ATOM     14  C   UNL d   1      60.753  -1.866  28.535  0.00  0.00     0.000 C 
ATOM     15  C   UNL d   1      60.813   0.521  29.127  0.00  0.00     0.021 C 
ATOM     16  C   UNL d   1      59.397  -4.348  28.465  0.00  0.00     0.021 C 
ENDROOT
BRANCH   6  17
ATOM     17  N   UNL d   1      58.142   0.297  30.193  0.00  0.00    -0.380 NA
BRANCH  17  18
ATOM     18  C   UNL d   1      57.541   0.682  30.638  0.00  0.00     0.164 C 
BRANCH  18  19
ATOM     19  C   UNL d   1      57.303   0.365  31.379  0.00  0.00     0.054 C 
BRANCH  19  20
ATOM     20  C   UNL d   1      56.580   0.646  31.748  0.00  0.00     0.083 C 
BRANCH  20  21
ATOM     21  N   UNL d   1      56.237   0.222  32.395  0.00  0.00    -0.299 N 
ATOM     22  C   UNL d   1      56.202  -0.631  32.368  0.00  0.00     0.107 A 
ATOM     23  C   UNL d   1      55.859  -1.066  33.014  0.00  0.00     0.142 A 
ATOM     24  O   UNL d   1      55.551  -0.646  33.687  0.00  0.00    -0.300 OA
ATOM     25  C   UNL d   1      55.587   0.198  33.712  0.00  0.00     0.142 A 
ATOM     26  C   UNL d   1      55.929   0.632  33.067  0.00  0.00     0.107 A 
ENDBRANCH  20  21
ENDBRANCH  19  20
ENDBRANCH  18  19
ENDBRANCH  17  18
ENDBRANCH   6  17
TORSDOF 5
ENDMDL
MODEL 2
REMARK VINA RESULT:      -2.6      1.939      5.951
REMARK  5 active torsions:
REMARK  status: ('A' for Active; 'I' for Inactive)
REMARK    1  A    between atoms: N_15  and  C_6 
REMARK    2  A    between atoms: N_14  and  C_18 
REMARK    3  A    between atoms: C_24  and  N_15 
REMARK    4  A    between atoms: C_18  and  C_19 
REMARK    5  A    between atoms: C_19  and  C_24 
ROOT
ATOM      1  N   UNL d   1      56.742   0.682  32.838  0.00  0.00    -0.183 N 
ATOM      2  C   UNL d   1      56.601   0.682  33.650  0.00  0.00     0.169 A 
ATOM      3  C   UNL d   1      55.841   0.682  33.940  0.00  0.00     0.073 A 
ATOM      4  C   UNL d   1      55.222   0.682  33.411  0.00  0.00     0.185 A 
ATOM      5  N   UNL d   1      55.363   0.682  32.598  0.00  0.00    -0.142 NA
ATOM      6  C   UNL d   1      57.508   0.682  32.568  0.00  0.00     0.218 A 
ATOM      7  N   UNL d   1      57.230   0.682  34.172  0.00  0.00    -0.226 NA
ATOM      8  C   UNL d   1      55.701   0.682  34.744  0.00  0.00     0.007 A 
ATOM      9  N   UNL d   1      54.446   0.682  33.689  0.00  0.00    -0.225 NA
ATOM     10  C   UNL d   1      58.134   0.682  33.079  0.00  0.00     0.071 A 
ATOM     11  C   UNL d   1      54.941   0.682  35.033  0.00  0.00     0.019 A 
ATOM     12  C   UNL d   1      57.993   0.682  33.892  0.00  0.00     0.087 A 
ATOM     13  C   UNL d   1      54.305   0.682  34.502  0.00  0.00     0.083 A 
ATOM     14  C   UNL d   1      56.334   0.682  35.266  0.00  0.00     0.000 C 
ATOM     15  C   UNL d   1      58.648   0.682  34.431  0.00  0.00     0.021 C 
ATOM     16  C   UNL d   1      53.546   0.682  34.782  0.00  0.00     0.021 C 
ENDROOT
BRANCH   6  17
ATOM     17  N   UNL d   1      57.645   0.682  31.727  0.00  0.00    -0.380 NA
BRANCH  17  18
ATOM     18  C   UNL d   1      57.885   0.668  30.921  0.00  0.00     0.164 C 
BRANCH  18  19
ATOM     19  C   UNL d   1      58.142  -0.054  30.575  0.00  0.00     0.054 C 
BRANCH  19  20
ATOM     20  C   UNL d   1      58.266  -0.096  29.726  0.00  0.00     0.083 C 
BRANCH  20  21
ATOM     21  N   UNL d   1      58.773  -0.688  29.396  0.00  0.00    -0.299 N 
ATOM     22  C   UNL d   1      59.465  -0.452  28.954  0.00  0.00     0.107 A 
ATOM     23  C   UNL d   1      59.980  -1.040  28.620  0.00  0.00     0.142 A 
ATOM     24  O   UNL d   1      59.802  -1.865  28.728  0.00  0.00    -0.300 OA
ATOM     25  C   UNL d   1      59.117  -2.097  29.165  0.00  0.00     0.142 A 
ATOM     26  C   UNL d   1      58.603  -1.509  29.499  0.00  0.00     0.107 A 
ENDBRANCH  20  21
ENDBRANCH  19  20
ENDBRANCH  18  19
ENDBRANCH  17  18
ENDBRANCH   6  17
TORSDOF 5
ENDMDL
