MODEL 1
REMARK VINA RESULT:      93.4      0.000      0.000
REMARK  5 active torsions:
REMARK  status: ('A' for Active; 'I' for Inactive)
REMARK    1  A    between atoms: C_23  and  N_10 
REMARK    2  A    between atoms: C_14  and  N_13 
REMARK    3  A    between atoms: N_15  and  C_28 
REMARK    4  A    between atoms: C_27  and  C_23 
REMARK    5  A    between atoms: C_28  and  C_27 
ROOT
ATOM      1  C   UNL d   1      46.092 -16.692  43.979  0.00  0.00     0.173 A 
ATOM      2  C   UNL d   1      46.072 -16.414  43.223  0.00  0.00     0.191 A 
ATOM      3  C   UNL d   1      45.853 -15.086  43.696  0.00  0.00     0.722 A 
ATOM      4  N   UNL d   1      45.872 -15.361  44.478  0.00  0.00    -0.131 N 
ATOM      5  N   UNL d   1      45.953 -15.612  43.069  0.00  0.00    -0.042 NA
ATOM      6  N   UNL d   1      46.170 -16.927  42.589  0.00  0.00    -0.240 N 
ATOM      7  N   UNL d   1      46.308 -18.014  43.557  0.00  0.00    -0.223 N 
ATOM      8  C   UNL d   1      46.289 -17.731  42.754  0.00  0.00     0.343 A 
ATOM      9  C   UNL d   1      46.208 -17.484  44.174  0.00  0.00     0.288 A 
ATOM     10  N   UNL d   1      45.734 -14.284  43.542  0.00  0.00    -0.139 N 
ATOM     11  C   UNL d   1      45.651 -14.021  44.954  0.00  0.00     0.116 A 
ATOM     12  C   UNL d   1      45.632 -13.746  44.173  0.00  0.00     0.100 A 
ATOM     13  O   UNL d   1      46.389 -18.254  42.080  0.00  0.00    -0.245 OA
ATOM     14  O   UNL d   1      46.227 -17.759  44.955  0.00  0.00    -0.265 OA
ATOM     15  C   UNL d   1      46.150 -16.651  41.808  0.00  0.00     0.105 C 
ATOM     16  C   UNL d   1      46.428 -18.816  43.711  0.00  0.00     0.107 C 
ATOM     17  C   UNL d   1      45.514 -12.948  43.993  0.00  0.00     0.021 C 
ENDROOT
BRANCH  10  18
ATOM     18  C   UNL d   1      45.713 -14.002  42.763  0.00  0.00     0.100 C 
BRANCH  18  19
ATOM     19  C   UNL d   1      46.028 -13.257  42.574  0.00  0.00     0.039 C 
BRANCH  19  20
ATOM     20  C   UNL d   1      45.652 -12.780  42.027  0.00  0.00     0.082 C 
BRANCH  20  21
ATOM     21  N   UNL d   1      45.673 -12.972  41.225  0.00  0.00    -0.300 N 
ATOM     22  C   UNL d   1      46.388 -13.193  40.877  0.00  0.00     0.100 A 
ATOM     23  C   UNL d   1      46.404 -13.385  40.071  0.00  0.00     0.100 A 
ATOM     24  N   UNL d   1      45.717 -13.355  39.621  0.00  0.00    -0.301 N 
ATOM     25  C   UNL d   1      45.004 -13.133  39.974  0.00  0.00     0.100 A 
ATOM     26  C   UNL d   1      44.981 -12.942  40.771  0.00  0.00     0.100 A 
BRANCH  24  27
ATOM     27  C   UNL d   1      45.740 -13.547  38.819  0.00  0.00     0.065 A 
ATOM     28  C   UNL d   1      45.265 -14.145  38.527  0.00  0.00     0.029 A 
ATOM     29  C   UNL d   1      45.285 -14.337  37.736  0.00  0.00     0.059 A 
ATOM     30 CL   UNL d   1      44.800 -14.947  37.437  0.00  0.00    -0.082 Cl
ATOM     31  C   UNL d   1      45.789 -13.924  37.223  0.00  0.00     0.011 A 
ATOM     32  C   UNL d   1      46.270 -13.319  37.514  0.00  0.00     0.002 A 
ATOM     33  C   UNL d   1      46.248 -13.128  38.315  0.00  0.00     0.018 A 
ENDBRANCH  24  27
ENDBRANCH  20  21
ENDBRANCH  19  20
ENDBRANCH  18  19
ENDBRANCH  10  18
TORSDOF 5
ENDMDL
MODEL 2
REMARK VINA RESULT:      94.2      2.865      5.759
REMARK  5 active torsions:
REMARK  status: ('A' for Active; 'I' for Inactive)
REMARK    1  A    between atoms: C_23  and  N_10 
REMARK    2  A    between atoms: C_14  and  N_13 
REMARK    3  A    between atoms: N_15  and  C_28 
REMARK    4  A    between atoms: C_27  and  C_23 
REMARK    5  A    between atoms: C_28  and  C_27 
ROOT
ATOM      1  C   UNL d   1      44.726 -16.622  38.238  0.00  0.00     0.173 A 
ATOM      2  C   UNL d   1      45.407 -16.471  38.641  0.00  0.00     0.191 A 
ATOM      3  C   UNL d   1      45.050 -17.424  39.641  0.00  0.00     0.722 A 
ATOM      4  N   UNL d   1      44.346 -17.588  39.234  0.00  0.00    -0.131 N 
ATOM      5  N   UNL d   1      45.580 -16.866  39.345  0.00  0.00    -0.042 NA
ATOM      6  N   UNL d   1      45.943 -15.918  38.358  0.00  0.00    -0.240 N 
ATOM      7  N   UNL d   1      45.038 -15.693  37.231  0.00  0.00    -0.223 N 
ATOM      8  C   UNL d   1      45.761 -15.525  37.650  0.00  0.00     0.343 A 
ATOM      9  C   UNL d   1      44.518 -16.249  37.533  0.00  0.00     0.288 A 
ATOM     10  N   UNL d   1      45.222 -17.820  40.345  0.00  0.00    -0.139 N 
ATOM     11  C   UNL d   1      43.986 -18.549  40.242  0.00  0.00     0.116 A 
ATOM     12  C   UNL d   1      44.689 -18.386  40.649  0.00  0.00     0.100 A 
ATOM     13  O   UNL d   1      46.333 -14.950  37.368  0.00  0.00    -0.245 OA
ATOM     14  O   UNL d   1      43.815 -16.412  37.126  0.00  0.00    -0.265 OA
ATOM     15  C   UNL d   1      46.647 -15.755  38.765  0.00  0.00     0.105 C 
ATOM     16  C   UNL d   1      44.866 -15.298  36.528  0.00  0.00     0.107 C 
ATOM     17  C   UNL d   1      44.884 -18.769  41.356  0.00  0.00     0.021 C 
ENDROOT
BRANCH  10  18
ATOM     18  C   UNL d   1      45.923 -17.661  40.756  0.00  0.00     0.100 C 
BRANCH  18  19
ATOM     19  C   UNL d   1      46.058 -17.991  41.507  0.00  0.00     0.039 C 
BRANCH  19  20
ATOM     20  C   UNL d   1      46.630 -17.676  41.997  0.00  0.00     0.082 C 
BRANCH  20  21
ATOM     21  N   UNL d   1      46.449 -17.041  42.492  0.00  0.00    -0.300 N 
ATOM     22  C   UNL d   1      46.575 -16.269  42.227  0.00  0.00     0.100 A 
ATOM     23  C   UNL d   1      46.391 -15.635  42.728  0.00  0.00     0.100 A 
ATOM     24  N   UNL d   1      46.088 -15.770  43.479  0.00  0.00    -0.301 N 
ATOM     25  C   UNL d   1      45.964 -16.544  43.740  0.00  0.00     0.100 A 
ATOM     26  C   UNL d   1      46.144 -17.177  43.249  0.00  0.00     0.100 A 
BRANCH  24  27
ATOM     27  C   UNL d   1      45.907 -15.133  43.973  0.00  0.00     0.065 A 
ATOM     28  C   UNL d   1      45.128 -14.940  44.123  0.00  0.00     0.029 A 
ATOM     29  C   UNL d   1      44.947 -14.312  44.610  0.00  0.00     0.059 A 
ATOM     30 CL   UNL d   1      44.151 -14.114  44.764  0.00  0.00    -0.082 Cl
ATOM     31  C   UNL d   1      45.556 -13.868  44.955  0.00  0.00     0.011 A 
ATOM     32  C   UNL d   1      46.344 -14.060  44.805  0.00  0.00     0.002 A 
ATOM     33  C   UNL d   1      46.524 -14.696  44.312  0.00  0.00     0.018 A 
ENDBRANCH  24  27
ENDBRANCH  20  21
ENDBRANCH  19  20
ENDBRANCH  18  19
ENDBRANCH  10  18
TORSDOF 5
ENDMDL
MODEL 3
REMARK VINA RESULT:      96.3      2.109      3.731
REMARK  5 active torsions:
REMARK  status: ('A' for Active; 'I' for Inactive)
REMARK    1  A    between atoms: C_23  and  N_10 
REMARK    2  A    between atoms: C_14  and  N_13 
REMARK    3  A    between atoms: N_15  and  C_28 
REMARK    4  A    between atoms: C_27  and  C_23 
REMARK    5  A    between atoms: C_28  and  C_27 
ROOT
ATOM      1  C   UNL d   1      45.334 -17.426  43.436  0.00  0.00     0.173 A 
ATOM      2  C   UNL d   1      45.684 -17.012  42.840  0.00  0.00     0.191 A 
ATOM      3  C   UNL d   1      45.793 -18.197  42.054  0.00  0.00     0.722 A 
ATOM      4  N   UNL d   1      45.433 -18.633  42.660  0.00  0.00    -0.131 N 
ATOM      5  N   UNL d   1      45.918 -17.387  42.144  0.00  0.00    -0.042 NA
ATOM      6  N   UNL d   1      45.815 -16.205  42.916  0.00  0.00    -0.240 N 
ATOM      7  N   UNL d   1      45.207 -16.284  44.244  0.00  0.00    -0.223 N 
ATOM      8  C   UNL d   1      45.576 -15.836  43.620  0.00  0.00     0.343 A 
ATOM      9  C   UNL d   1      45.086 -17.088  44.146  0.00  0.00     0.288 A 
ATOM     10  N   UNL d   1      46.027 -18.573  41.357  0.00  0.00    -0.139 N 
ATOM     11  C   UNL d   1      45.543 -19.829  41.867  0.00  0.00     0.116 A 
ATOM     12  C   UNL d   1      45.903 -19.393  41.260  0.00  0.00     0.100 A 
ATOM     13  O   UNL d   1      45.721 -14.992  43.683  0.00  0.00    -0.245 OA
ATOM     14  O   UNL d   1      44.727 -17.523  44.752  0.00  0.00    -0.265 OA
ATOM     15  C   UNL d   1      46.175 -15.770  42.310  0.00  0.00     0.105 C 
ATOM     16  C   UNL d   1      44.972 -15.908  44.941  0.00  0.00     0.107 C 
ATOM     17  C   UNL d   1      46.146 -19.747  40.554  0.00  0.00     0.021 C 
ENDROOT
BRANCH  10  18
ATOM     18  C   UNL d   1      46.387 -18.144  40.747  0.00  0.00     0.100 C 
BRANCH  18  19
ATOM     19  C   UNL d   1      46.286 -18.368  39.954  0.00  0.00     0.039 C 
BRANCH  19  20
ATOM     20  C   UNL d   1      45.636 -18.106  39.533  0.00  0.00     0.082 C 
BRANCH  20  21
ATOM     21  N   UNL d   1      45.711 -17.478  39.004  0.00  0.00    -0.300 N 
ATOM     22  C   UNL d   1      46.399 -17.021  39.006  0.00  0.00     0.100 A 
ATOM     23  C   UNL d   1      46.468 -16.391  38.473  0.00  0.00     0.100 A 
ATOM     24  N   UNL d   1      45.861 -16.220  37.946  0.00  0.00    -0.301 N 
ATOM     25  C   UNL d   1      45.174 -16.680  37.948  0.00  0.00     0.100 A 
ATOM     26  C   UNL d   1      45.099 -17.305  38.473  0.00  0.00     0.100 A 
BRANCH  24  27
ATOM     27  C   UNL d   1      45.937 -15.591  37.417  0.00  0.00     0.065 A 
ATOM     28  C   UNL d   1      45.393 -14.981  37.426  0.00  0.00     0.029 A 
ATOM     29  C   UNL d   1      45.466 -14.359  36.905  0.00  0.00     0.059 A 
ATOM     30 CL   UNL d   1      44.911 -13.735  36.913  0.00  0.00    -0.082 Cl
ATOM     31  C   UNL d   1      46.093 -14.344  36.364  0.00  0.00     0.011 A 
ATOM     32  C   UNL d   1      46.644 -14.958  36.352  0.00  0.00     0.002 A 
ATOM     33  C   UNL d   1      46.568 -15.587  36.880  0.00  0.00     0.018 A 
ENDBRANCH  24  27
ENDBRANCH  20  21
ENDBRANCH  19  20
ENDBRANCH  18  19
ENDBRANCH  10  18
TORSDOF 5
ENDMDL
