MODEL 1
REMARK VINA RESULT:      40.1      0.000      0.000
REMARK  6 active torsions:
REMARK  status: ('A' for Active; 'I' for Inactive)
REMARK       I    between atoms: C_2  and  N_1 
REMARK    1  A    between atoms: C_15  and  C_2 
REMARK    2  A    between atoms: C_3  and  C_4 
REMARK    3  A    between atoms: C_9  and  O_14 
REMARK    4  A    between atoms: O_14  and  C_21 
REMARK    5  A    between atoms: C_22  and  C_15 
REMARK    6  A    between atoms: C_21  and  C_22 
ROOT
ATOM      1  O   UNL d   1     -49.552  26.674  33.379  0.00  0.00    -0.305 OA
ENDROOT
BRANCH   1   2
ATOM      2  C   UNL d   1     -50.105  26.067  33.365  0.00  0.00     0.100 A 
ATOM      3  C   UNL d   1     -50.916  26.239  33.327  0.00  0.00     0.024 A 
ATOM      4  C   UNL d   1     -51.476  25.643  33.312  0.00  0.00    -0.002 A 
ATOM      5  C   UNL d   1     -51.230  24.844  33.336  0.00  0.00    -0.023 A 
ATOM      6  C   UNL d   1     -50.430  24.664  33.373  0.00  0.00    -0.002 A 
ATOM      7  C   UNL d   1     -49.859  25.268  33.388  0.00  0.00     0.024 A 
BRANCH   5   8
ATOM      8  C   UNL d   1     -51.790  24.243  33.321  0.00  0.00     0.019 C 
ATOM      9  C   UNL d   1     -52.591  24.423  33.310  0.00  0.00     0.004 C 
ATOM     10  C   UNL d   1     -51.546  23.451  33.318  0.00  0.00     0.004 C 
ATOM     11  C   UNL d   1     -52.229  24.944  33.320  0.00  0.00     0.004 C 
ENDBRANCH   5   8
ENDBRANCH   1   2
BRANCH   1  12
ATOM     12  C   UNL d   1     -49.677  27.328  33.872  0.00  0.00     0.123 C 
BRANCH  12  13
ATOM     13  C   UNL d   1     -49.073  27.584  34.371  0.00  0.00     0.032 C 
BRANCH  13  14
ATOM     14  C   UNL d   1     -48.978  28.388  34.517  0.00  0.00     0.063 C 
BRANCH  14  15
ATOM     15  C   UNL d   1     -48.510  28.633  35.153  0.00  0.00     0.265 C 
ATOM     16  N   UNL d   1     -48.149  29.379  35.138  0.00  0.00    -0.268 N 
ATOM     17  C   UNL d   1     -47.680  29.634  35.765  0.00  0.00     0.110 A 
ATOM     18  C   UNL d   1     -48.264  29.879  34.477  0.00  0.00     0.110 A 
ATOM     19  C   UNL d   1     -47.328  30.370  35.745  0.00  0.00     0.142 A 
ATOM     20  O   UNL d   1     -47.443  30.871  35.084  0.00  0.00    -0.300 OA
ATOM     21  C   UNL d   1     -47.906  30.617  34.466  0.00  0.00     0.142 A 
ATOM     22  O   UNL d   1     -48.396  28.137  35.807  0.00  0.00    -0.267 OA
ENDBRANCH  14  15
ENDBRANCH  13  14
ENDBRANCH  12  13
ENDBRANCH   1  12
TORSDOF 6
ENDMDL
