MODEL 1
REMARK VINA RESULT:      -3.9      0.000      0.000
REMARK  4 active torsions:
REMARK  status: ('A' for Active; 'I' for Inactive)
REMARK    1  A    between atoms: C_9  and  C_2 
REMARK    2  A    between atoms: N_11  and  C_9 
REMARK    3  A    between atoms: C_14  and  N_11 
REMARK    4  A    between atoms: C_17  and  C_14 
ROOT
ATOM      1  C   UNL d   1      56.369   0.648  33.729  0.00  0.00     0.106 A 
ATOM      2  C   UNL d   1      57.001   0.636  32.448  0.00  0.00     0.025 A 
ATOM      3  C   UNL d   1      56.317   0.634  32.906  0.00  0.00     0.025 A 
ATOM      4  O   UNL d   1      57.106   0.663  34.095  0.00  0.00    -0.273 OA
ATOM      5  C   UNL d   1      55.684   0.646  34.186  0.00  0.00     0.062 A 
ATOM      6  C   UNL d   1      57.799   0.665  33.638  0.00  0.00     0.300 A 
ATOM      7  C   UNL d   1      57.747   0.652  32.815  0.00  0.00     0.070 A 
ATOM      8  C   UNL d   1      55.579   0.618  32.539  0.00  0.00     0.005 A 
ATOM      9  C   UNL d   1      54.947   0.630  33.815  0.00  0.00     0.198 A 
ATOM     10  O   UNL d   1      58.542   0.681  34.011  0.00  0.00    -0.259 OA
ATOM     11  C   UNL d   1      54.895   0.616  32.997  0.00  0.00     0.042 A 
ATOM     12  O   UNL d   1      54.258   0.628  34.273  0.00  0.00    -0.286 OA
ATOM     13  C   UNL d   1      55.736   0.659  35.009  0.00  0.00     0.005 C 
ENDROOT
BRANCH   2  14
ATOM     14  C   UNL d   1      56.950   0.622  31.633  0.00  0.00     0.081 C 
BRANCH  14  15
ATOM     15  N   UNL d   1      57.452   0.125  31.197  0.00  0.00    -0.301 N 
ATOM     16  C   UNL d   1      57.266  -0.676  31.130  0.00  0.00     0.100 C 
BRANCH  15  17
ATOM     17  C   UNL d   1      58.129   0.430  30.834  0.00  0.00     0.080 C 
BRANCH  17  18
ATOM     18  C   UNL d   1      58.290   0.253  30.047  0.00  0.00     0.018 A 
ATOM     19  C   UNL d   1      57.940   0.681  29.457  0.00  0.00     0.002 A 
ATOM     20  C   UNL d   1      58.095   0.511  28.663  0.00  0.00     0.000 A 
ATOM     21  C   UNL d   1      58.620  -0.112  28.468  0.00  0.00     0.000 A 
ATOM     22  C   UNL d   1      58.971  -0.542  29.083  0.00  0.00     0.000 A 
ATOM     23  C   UNL d   1      58.808  -0.362  29.863  0.00  0.00     0.002 A 
ENDBRANCH  17  18
ENDBRANCH  15  17
ENDBRANCH  14  15
ENDBRANCH   2  14
TORSDOF 4
ENDMDL
MODEL 2
REMARK VINA RESULT:      -2.3      2.121      4.873
REMARK  4 active torsions:
REMARK  status: ('A' for Active; 'I' for Inactive)
REMARK    1  A    between atoms: C_9  and  C_2 
REMARK    2  A    between atoms: N_11  and  C_9 
REMARK    3  A    between atoms: C_14  and  N_11 
REMARK    4  A    between atoms: C_17  and  C_14 
ROOT
ATOM      1  C   UNL d   1      58.987   0.362  29.638  0.00  0.00     0.106 A 
ATOM      2  C   UNL d   1      58.107   0.590  30.739  0.00  0.00     0.025 A 
ATOM      3  C   UNL d   1      58.862   0.437  30.450  0.00  0.00     0.025 A 
ATOM      4  O   UNL d   1      58.356   0.439  29.115  0.00  0.00    -0.273 OA
ATOM      5  C   UNL d   1      59.743   0.209  29.349  0.00  0.00     0.062 A 
ATOM      6  C   UNL d   1      57.593   0.593  29.402  0.00  0.00     0.300 A 
ATOM      7  C   UNL d   1      57.468   0.669  30.214  0.00  0.00     0.070 A 
ATOM      8  C   UNL d   1      59.494   0.360  30.973  0.00  0.00     0.005 A 
ATOM      9  C   UNL d   1      60.373   0.132  29.877  0.00  0.00     0.198 A 
ATOM     10  O   UNL d   1      56.958   0.671  28.871  0.00  0.00    -0.259 OA
ATOM     11  C   UNL d   1      60.249   0.207  30.684  0.00  0.00     0.042 A 
ATOM     12  O   UNL d   1      61.133  -0.021  29.588  0.00  0.00    -0.286 OA
ATOM     13  C   UNL d   1      59.868   0.134  28.537  0.00  0.00     0.005 C 
ENDROOT
BRANCH   2  14
ATOM     14  C   UNL d   1      57.984   0.664  31.543  0.00  0.00     0.081 C 
BRANCH  14  15
ATOM     15  N   UNL d   1      57.253   0.442  31.870  0.00  0.00    -0.301 N 
ATOM     16  C   UNL d   1      56.557   0.682  31.499  0.00  0.00     0.100 C 
BRANCH  15  17
ATOM     17  C   UNL d   1      57.225  -0.013  32.560  0.00  0.00     0.080 C 
BRANCH  17  18
ATOM     18  C   UNL d   1      56.509  -0.129  32.948  0.00  0.00     0.018 A 
ATOM     19  C   UNL d   1      56.242   0.422  33.476  0.00  0.00     0.002 A 
ATOM     20  C   UNL d   1      55.524   0.315  33.872  0.00  0.00     0.000 A 
ATOM     21  C   UNL d   1      55.069  -0.372  33.722  0.00  0.00     0.000 A 
ATOM     22  C   UNL d   1      55.355  -0.927  33.179  0.00  0.00     0.000 A 
ATOM     23  C   UNL d   1      56.066  -0.808  32.796  0.00  0.00     0.002 A 
ENDBRANCH  17  18
ENDBRANCH  15  17
ENDBRANCH  14  15
ENDBRANCH   2  14
TORSDOF 4
ENDMDL
