MODEL 1
REMARK VINA RESULT:      -8.9      0.000      0.000
REMARK  1 active torsions:
REMARK  status: ('A' for Active; 'I' for Inactive)
REMARK    1  A    between atoms: C_6  and  N_1 
ROOT
ATOM      1  N   UNL d   1      53.693  32.438  54.028  0.00  0.00    -0.210 N 
ATOM      2  C   UNL d   1      53.265  33.115  54.216  0.00  0.00     0.196 A 
ATOM      3  N   UNL d   1      54.481  32.559  54.261  0.00  0.00    -0.161 NA
ATOM      4  C   UNL d   1      53.782  33.654  54.562  0.00  0.00     0.127 A 
ATOM      5  C   UNL d   1      54.530  33.318  54.592  0.00  0.00     0.134 A 
ATOM      6  C   UNL d   1      53.581  34.411  54.836  0.00  0.00     0.106 C 
ATOM      7  N   UNL d   1      53.384  35.170  55.111  0.00  0.00    -0.191 NA
ATOM      8  N   UNL d   1      52.440  33.229  54.075  0.00  0.00    -0.126 N 
ENDROOT
BRANCH   1   9
ATOM      9  C   UNL d   1      53.432  31.736  53.672  0.00  0.00     0.085 A 
ATOM     10  C   UNL d   1      53.546  31.020  54.065  0.00  0.00     0.019 A 
ATOM     11  C   UNL d   1      53.284  30.313  53.709  0.00  0.00     0.002 A 
ATOM     12  C   UNL d   1      53.395  29.579  54.099  0.00  0.00     0.000 C 
ATOM     13  C   UNL d   1      52.916  30.334  52.975  0.00  0.00     0.000 A 
ATOM     14  C   UNL d   1      52.803  31.051  52.585  0.00  0.00     0.002 A 
ATOM     15  C   UNL d   1      53.063  31.757  52.937  0.00  0.00     0.019 A 
ENDBRANCH   1   9
TORSDOF 1
ENDMDL
MODEL 2
REMARK VINA RESULT:      -8.8      1.801      2.770
REMARK  1 active torsions:
REMARK  status: ('A' for Active; 'I' for Inactive)
REMARK    1  A    between atoms: C_6  and  N_1 
ROOT
ATOM      1  N   UNL d   1      52.476  33.681  53.304  0.00  0.00    -0.210 N 
ATOM      2  C   UNL d   1      51.667  33.551  53.232  0.00  0.00     0.196 A 
ATOM      3  N   UNL d   1      52.645  34.433  52.994  0.00  0.00    -0.161 NA
ATOM      4  C   UNL d   1      51.333  34.217  52.880  0.00  0.00     0.127 A 
ATOM      5  C   UNL d   1      51.929  34.761  52.732  0.00  0.00     0.134 A 
ATOM      6  C   UNL d   1      50.529  34.321  52.704  0.00  0.00     0.106 C 
ATOM      7  N   UNL d   1      49.725  34.429  52.527  0.00  0.00    -0.191 NA
ATOM      8  N   UNL d   1      51.258  32.855  53.478  0.00  0.00    -0.126 N 
ENDROOT
BRANCH   1   9
ATOM      9  C   UNL d   1      53.059  33.183  53.621  0.00  0.00     0.085 A 
ATOM     10  C   UNL d   1      53.429  33.397  54.326  0.00  0.00     0.019 A 
ATOM     11  C   UNL d   1      54.015  32.898  54.647  0.00  0.00     0.002 A 
ATOM     12  C   UNL d   1      54.398  33.105  55.363  0.00  0.00     0.000 C 
ATOM     13  C   UNL d   1      54.219  32.202  54.260  0.00  0.00     0.000 A 
ATOM     14  C   UNL d   1      53.848  31.992  53.555  0.00  0.00     0.002 A 
ATOM     15  C   UNL d   1      53.263  32.486  53.234  0.00  0.00     0.019 A 
ENDBRANCH   1   9
TORSDOF 1
ENDMDL
MODEL 3
REMARK VINA RESULT:      -8.8      1.170      3.462
REMARK  1 active torsions:
REMARK  status: ('A' for Active; 'I' for Inactive)
REMARK    1  A    between atoms: C_6  and  N_1 
ROOT
ATOM      1  N   UNL d   1      53.411  32.070  53.560  0.00  0.00    -0.210 N 
ATOM      2  C   UNL d   1      53.344  31.284  53.793  0.00  0.00     0.196 A 
ATOM      3  N   UNL d   1      53.028  32.154  52.827  0.00  0.00    -0.161 NA
ATOM      4  C   UNL d   1      52.923  30.881  53.212  0.00  0.00     0.127 A 
ATOM      5  C   UNL d   1      52.727  31.410  52.617  0.00  0.00     0.134 A 
ATOM      6  C   UNL d   1      52.730  30.074  53.225  0.00  0.00     0.106 C 
ATOM      7  N   UNL d   1      52.534  29.267  53.234  0.00  0.00    -0.191 NA
ATOM      8  N   UNL d   1      53.656  30.956  54.507  0.00  0.00    -0.126 N 
ENDROOT
BRANCH   1   9
ATOM      9  C   UNL d   1      53.782  32.701  53.948  0.00  0.00     0.085 A 
ATOM     10  C   UNL d   1      53.317  33.286  54.299  0.00  0.00     0.019 A 
ATOM     11  C   UNL d   1      53.688  33.922  54.690  0.00  0.00     0.002 A 
ATOM     12  C   UNL d   1      53.226  34.522  55.051  0.00  0.00     0.000 C 
ATOM     13  C   UNL d   1      54.509  33.961  54.724  0.00  0.00     0.000 A 
ATOM     14  C   UNL d   1      54.970  33.376  54.373  0.00  0.00     0.002 A 
ATOM     15  C   UNL d   1      54.604  32.741  53.982  0.00  0.00     0.019 A 
ENDBRANCH   1   9
TORSDOF 1
ENDMDL
MODEL 4
REMARK VINA RESULT:      -8.5      1.827      2.757
REMARK  1 active torsions:
REMARK  status: ('A' for Active; 'I' for Inactive)
REMARK    1  A    between atoms: C_6  and  N_1 
ROOT
ATOM      1  N   UNL d   1      53.047  33.316  53.702  0.00  0.00    -0.210 N 
ATOM      2  C   UNL d   1      53.456  33.745  54.273  0.00  0.00     0.196 A 
ATOM      3  N   UNL d   1      53.522  32.676  53.471  0.00  0.00    -0.161 NA
ATOM      4  C   UNL d   1      54.180  33.375  54.397  0.00  0.00     0.127 A 
ATOM      5  C   UNL d   1      54.226  32.719  53.907  0.00  0.00     0.134 A 
ATOM      6  C   UNL d   1      54.767  33.624  54.928  0.00  0.00     0.106 C 
ATOM      7  N   UNL d   1      55.357  33.869  55.459  0.00  0.00    -0.191 NA
ATOM      8  N   UNL d   1      53.174  34.441  54.660  0.00  0.00    -0.126 N 
ENDROOT
BRANCH   1   9
ATOM      9  C   UNL d   1      52.294  33.457  53.382  0.00  0.00     0.085 A 
ATOM     10  C   UNL d   1      52.231  33.883  52.679  0.00  0.00     0.019 A 
ATOM     11  C   UNL d   1      51.476  34.026  52.355  0.00  0.00     0.002 A 
ATOM     12  C   UNL d   1      51.399  34.458  51.640  0.00  0.00     0.000 C 
ATOM     13  C   UNL d   1      50.805  33.743  52.737  0.00  0.00     0.000 A 
ATOM     14  C   UNL d   1      50.872  33.318  53.439  0.00  0.00     0.002 A 
ATOM     15  C   UNL d   1      51.622  33.174  53.764  0.00  0.00     0.019 A 
ENDBRANCH   1   9
TORSDOF 1
ENDMDL
MODEL 5
REMARK VINA RESULT:      -8.2      1.554      3.400
REMARK  1 active torsions:
REMARK  status: ('A' for Active; 'I' for Inactive)
REMARK    1  A    between atoms: C_6  and  N_1 
ROOT
ATOM      1  N   UNL d   1      53.035  32.469  53.252  0.00  0.00    -0.210 N 
ATOM      2  C   UNL d   1      52.625  31.756  53.244  0.00  0.00     0.196 A 
ATOM      3  N   UNL d   1      53.846  32.300  53.314  0.00  0.00    -0.161 NA
ATOM      4  C   UNL d   1      53.176  31.146  53.302  0.00  0.00     0.127 A 
ATOM      5  C   UNL d   1      53.926  31.475  53.345  0.00  0.00     0.134 A 
ATOM      6  C   UNL d   1      53.002  30.335  53.314  0.00  0.00     0.106 C 
ATOM      7  N   UNL d   1      52.832  29.522  53.327  0.00  0.00    -0.191 NA
ATOM      8  N   UNL d   1      51.787  31.672  53.187  0.00  0.00    -0.126 N 
ENDROOT
BRANCH   1   9
ATOM      9  C   UNL d   1      52.738  33.242  53.207  0.00  0.00     0.085 A 
ATOM     10  C   UNL d   1      52.988  33.800  53.762  0.00  0.00     0.019 A 
ATOM     11  C   UNL d   1      52.692  34.578  53.719  0.00  0.00     0.002 A 
ATOM     12  C   UNL d   1      52.938  35.154  54.277  0.00  0.00     0.000 C 
ATOM     13  C   UNL d   1      52.157  34.783  53.129  0.00  0.00     0.000 A 
ATOM     14  C   UNL d   1      51.909  34.223  52.577  0.00  0.00     0.002 A 
ATOM     15  C   UNL d   1      52.203  33.447  52.617  0.00  0.00     0.019 A 
ENDBRANCH   1   9
TORSDOF 1
ENDMDL
