MODEL 1
REMARK VINA RESULT:      -9.2      0.000      0.000
REMARK  4 active torsions:
REMARK  status: ('A' for Active; 'I' for Inactive)
REMARK    1  A    between atoms: C_7  and  C_1 
REMARK    2  A    between atoms: C_8  and  C_4 
REMARK    3  A    between atoms: O_9  and  C_7 
REMARK    4  A    between atoms: C_16  and  O_9 
ROOT
ATOM      1  C   UNL d   1      52.644  33.102  53.363  0.00  0.00     0.098 A 
ATOM      2  C   UNL d   1      51.870  33.232  53.108  0.00  0.00     0.075 A 
ATOM      3  C   UNL d   1      52.005  34.623  53.411  0.00  0.00     0.354 A 
ATOM      4  C   UNL d   1      53.077  33.736  53.635  0.00  0.00     0.093 A 
ATOM      5  N   UNL d   1      51.530  33.996  53.125  0.00  0.00    -0.256 N 
ATOM      6  N   UNL d   1      52.779  34.493  53.666  0.00  0.00    -0.192 NA
ATOM      7  O   UNL d   1      51.665  35.392  53.429  0.00  0.00    -0.244 OA
ATOM      8  C   UNL d   1      51.395  32.605  52.822  0.00  0.00     0.019 C 
ATOM      9  C   UNL d   1      50.756  34.127  52.871  0.00  0.00     0.104 C 
ENDROOT
BRANCH   1  10
ATOM     10  C   UNL d   1      52.942  32.345  53.332  0.00  0.00     0.303 C 
ATOM     11  O   UNL d   1      53.450  32.145  52.713  0.00  0.00    -0.259 OA
BRANCH  10  12
ATOM     12  O   UNL d   1      52.761  31.776  53.886  0.00  0.00    -0.273 OA
BRANCH  12  13
ATOM     13  C   UNL d   1      52.890  30.982  53.761  0.00  0.00     0.103 A 
ATOM     14  C   UNL d   1      52.793  30.680  52.999  0.00  0.00     0.025 A 
ATOM     15  C   UNL d   1      52.891  29.889  52.724  0.00  0.00     0.002 A 
ATOM     16  C   UNL d   1      53.108  29.244  53.170  0.00  0.00     0.000 A 
ATOM     17  C   UNL d   1      53.283  29.172  53.956  0.00  0.00     0.000 A 
ATOM     18  C   UNL d   1      53.283  29.786  54.541  0.00  0.00     0.002 A 
ATOM     19  C   UNL d   1      53.109  30.565  54.434  0.00  0.00     0.025 A 
ENDBRANCH  12  13
ENDBRANCH  10  12
ENDBRANCH   1  10
BRANCH   4  20
ATOM     20  C   UNL d   1      53.851  33.605  53.890  0.00  0.00     0.023 A 
ATOM     21  C   UNL d   1      54.089  33.789  54.671  0.00  0.00     0.032 A 
ATOM     22  I   UNL d   1      53.510  34.111  55.183  0.00  0.00    -0.043 I 
ATOM     23  C   UNL d   1      54.862  33.659  54.925  0.00  0.00     0.006 A 
ATOM     24  C   UNL d   1      55.397  33.346  54.404  0.00  0.00     0.000 A 
ATOM     25  C   UNL d   1      55.190  33.157  53.633  0.00  0.00     0.000 A 
ATOM     26  C   UNL d   1      54.416  33.287  53.378  0.00  0.00     0.002 A 
ENDBRANCH   4  20
TORSDOF 4
ENDMDL
MODEL 2
REMARK VINA RESULT:      -8.7      1.062      2.474
REMARK  4 active torsions:
REMARK  status: ('A' for Active; 'I' for Inactive)
REMARK    1  A    between atoms: C_7  and  C_1 
REMARK    2  A    between atoms: C_8  and  C_4 
REMARK    3  A    between atoms: O_9  and  C_7 
REMARK    4  A    between atoms: C_16  and  O_9 
ROOT
ATOM      1  C   UNL d   1      53.253  33.146  53.946  0.00  0.00     0.098 A 
ATOM      2  C   UNL d   1      53.952  33.180  54.382  0.00  0.00     0.075 A 
ATOM      3  C   UNL d   1      53.624  34.506  54.805  0.00  0.00     0.354 A 
ATOM      4  C   UNL d   1      52.758  33.794  53.950  0.00  0.00     0.093 A 
ATOM      5  N   UNL d   1      54.156  33.861  54.824  0.00  0.00    -0.256 N 
ATOM      6  N   UNL d   1      52.925  34.473  54.368  0.00  0.00    -0.192 NA
ATOM      7  O   UNL d   1      53.828  35.192  55.248  0.00  0.00    -0.244 OA
ATOM      8  C   UNL d   1      54.484  32.534  54.402  0.00  0.00     0.019 C 
ATOM      9  C   UNL d   1      54.856  33.894  55.261  0.00  0.00     0.104 C 
ENDROOT
BRANCH   1  10
ATOM     10  C   UNL d   1      53.086  32.467  53.528  0.00  0.00     0.303 C 
ATOM     11  O   UNL d   1      53.327  32.418  52.741  0.00  0.00    -0.259 OA
BRANCH  10  12
ATOM     12  O   UNL d   1      52.691  31.834  53.855  0.00  0.00    -0.273 OA
BRANCH  12  13
ATOM     13  C   UNL d   1      52.841  31.063  53.641  0.00  0.00     0.103 A 
ATOM     14  C   UNL d   1      52.805  30.860  52.842  0.00  0.00     0.025 A 
ATOM     15  C   UNL d   1      52.934  30.111  52.476  0.00  0.00     0.002 A 
ATOM     16  C   UNL d   1      53.127  29.416  52.853  0.00  0.00     0.000 A 
ATOM     17  C   UNL d   1      53.243  29.245  53.634  0.00  0.00     0.000 A 
ATOM     18  C   UNL d   1      53.191  29.780  54.291  0.00  0.00     0.002 A 
ATOM     19  C   UNL d   1      53.015  30.565  54.270  0.00  0.00     0.025 A 
ENDBRANCH  12  13
ENDBRANCH  10  12
ENDBRANCH   1  10
BRANCH   4  20
ATOM     20  C   UNL d   1      52.059  33.760  53.513  0.00  0.00     0.023 A 
ATOM     21  C   UNL d   1      51.965  34.201  52.808  0.00  0.00     0.032 A 
ATOM     22  I   UNL d   1      52.609  34.677  52.564  0.00  0.00    -0.043 I 
ATOM     23  C   UNL d   1      51.266  34.167  52.371  0.00  0.00     0.006 A 
ATOM     24  C   UNL d   1      50.663  33.696  52.637  0.00  0.00     0.000 A 
ATOM     25  C   UNL d   1      50.730  33.254  53.325  0.00  0.00     0.000 A 
ATOM     26  C   UNL d   1      51.429  33.287  53.762  0.00  0.00     0.002 A 
ENDBRANCH   4  20
TORSDOF 4
ENDMDL
MODEL 3
REMARK VINA RESULT:      -8.7      1.455      3.356
REMARK  4 active torsions:
REMARK  status: ('A' for Active; 'I' for Inactive)
REMARK    1  A    between atoms: C_7  and  C_1 
REMARK    2  A    between atoms: C_8  and  C_4 
REMARK    3  A    between atoms: O_9  and  C_7 
REMARK    4  A    between atoms: C_16  and  O_9 
ROOT
ATOM      1  C   UNL d   1      53.101  31.790  53.319  0.00  0.00     0.098 A 
ATOM      2  C   UNL d   1      52.685  31.112  53.099  0.00  0.00     0.075 A 
ATOM      3  C   UNL d   1      53.622  30.304  53.817  0.00  0.00     0.354 A 
ATOM      4  C   UNL d   1      53.766  31.706  53.782  0.00  0.00     0.093 A 
ATOM      5  N   UNL d   1      52.935  30.351  53.342  0.00  0.00    -0.256 N 
ATOM      6  N   UNL d   1      54.038  30.982  54.037  0.00  0.00    -0.192 NA
ATOM      7  O   UNL d   1      53.875  29.540  54.062  0.00  0.00    -0.244 OA
ATOM      8  C   UNL d   1      51.998  31.158  52.624  0.00  0.00     0.019 C 
ATOM      9  C   UNL d   1      52.519  29.673  53.121  0.00  0.00     0.104 C 
ENDROOT
BRANCH   1  10
ATOM     10  C   UNL d   1      52.829  32.514  53.065  0.00  0.00     0.303 C 
ATOM     11  O   UNL d   1      53.128  32.823  52.361  0.00  0.00    -0.259 OA
BRANCH  10  12
ATOM     12  O   UNL d   1      52.274  32.946  53.476  0.00  0.00    -0.273 OA
BRANCH  12  13
ATOM     13  C   UNL d   1      51.724  33.421  53.108  0.00  0.00     0.103 A 
ATOM     14  C   UNL d   1      51.945  33.821  52.421  0.00  0.00     0.025 A 
ATOM     15  C   UNL d   1      51.488  34.341  51.938  0.00  0.00     0.002 A 
ATOM     16  C   UNL d   1      50.713  34.559  52.059  0.00  0.00     0.000 A 
ATOM     17  C   UNL d   1      50.186  34.357  52.637  0.00  0.00     0.000 A 
ATOM     18  C   UNL d   1      50.317  33.839  53.296  0.00  0.00     0.002 A 
ATOM     19  C   UNL d   1      50.993  33.444  53.481  0.00  0.00     0.025 A 
ENDBRANCH  12  13
ENDBRANCH  10  12
ENDBRANCH   1  10
BRANCH   4  20
ATOM     20  C   UNL d   1      54.181  32.384  54.003  0.00  0.00     0.023 A 
ATOM     21  C   UNL d   1      54.221  32.630  54.802  0.00  0.00     0.032 A 
ATOM     22  I   UNL d   1      53.822  32.160  55.369  0.00  0.00    -0.043 I 
ATOM     23  C   UNL d   1      54.636  33.308  55.022  0.00  0.00     0.006 A 
ATOM     24  C   UNL d   1      55.011  33.739  54.448  0.00  0.00     0.000 A 
ATOM     25  C   UNL d   1      54.987  33.520  53.657  0.00  0.00     0.000 A 
ATOM     26  C   UNL d   1      54.572  32.842  53.437  0.00  0.00     0.002 A 
ENDBRANCH   4  20
TORSDOF 4
ENDMDL
MODEL 4
REMARK VINA RESULT:      -7.5      1.489      3.665
REMARK  4 active torsions:
REMARK  status: ('A' for Active; 'I' for Inactive)
REMARK    1  A    between atoms: C_7  and  C_1 
REMARK    2  A    between atoms: C_8  and  C_4 
REMARK    3  A    between atoms: O_9  and  C_7 
REMARK    4  A    between atoms: C_16  and  O_9 
ROOT
ATOM      1  C   UNL d   1      53.066  33.620  54.188  0.00  0.00     0.098 A 
ATOM      2  C   UNL d   1      53.261  34.314  54.590  0.00  0.00     0.075 A 
ATOM      3  C   UNL d   1      54.447  33.692  55.090  0.00  0.00     0.354 A 
ATOM      4  C   UNL d   1      53.567  32.981  54.249  0.00  0.00     0.093 A 
ATOM      5  N   UNL d   1      53.957  34.369  55.051  0.00  0.00    -0.256 N 
ATOM      6  N   UNL d   1      54.253  32.998  54.689  0.00  0.00    -0.192 NA
ATOM      7  O   UNL d   1      55.147  33.745  55.554  0.00  0.00    -0.244 OA
ATOM      8  C   UNL d   1      52.770  34.991  54.551  0.00  0.00     0.019 C 
ATOM      9  C   UNL d   1      54.151  35.063  55.452  0.00  0.00     0.104 C 
ENDROOT
BRANCH   1  10
ATOM     10  C   UNL d   1      52.381  33.603  53.749  0.00  0.00     0.303 C 
ATOM     11  O   UNL d   1      51.753  33.138  54.013  0.00  0.00    -0.259 OA
BRANCH  10  12
ATOM     12  O   UNL d   1      52.289  34.025  53.058  0.00  0.00    -0.273 OA
BRANCH  12  13
ATOM     13  C   UNL d   1      51.563  34.154  52.713  0.00  0.00     0.103 A 
ATOM     14  C   UNL d   1      50.914  34.299  53.201  0.00  0.00     0.025 A 
ATOM     15  C   UNL d   1      50.111  34.447  52.988  0.00  0.00     0.002 A 
ATOM     16  C   UNL d   1      49.808  34.478  52.234  0.00  0.00     0.000 A 
ATOM     17  C   UNL d   1      50.159  34.382  51.513  0.00  0.00     0.000 A 
ATOM     18  C   UNL d   1      50.976  34.217  51.356  0.00  0.00     0.002 A 
ATOM     19  C   UNL d   1      51.568  34.122  51.893  0.00  0.00     0.025 A 
ENDBRANCH  12  13
ENDBRANCH  10  12
ENDBRANCH   1  10
BRANCH   4  20
ATOM     20  C   UNL d   1      53.373  32.287  53.848  0.00  0.00     0.023 A 
ATOM     21  C   UNL d   1      53.880  31.964  53.265  0.00  0.00     0.032 A 
ATOM     22  I   UNL d   1      54.592  32.374  53.105  0.00  0.00    -0.043 I 
ATOM     23  C   UNL d   1      53.685  31.270  52.864  0.00  0.00     0.006 A 
ATOM     24  C   UNL d   1      52.988  30.899  53.043  0.00  0.00     0.000 A 
ATOM     25  C   UNL d   1      52.473  31.194  53.610  0.00  0.00     0.000 A 
ATOM     26  C   UNL d   1      52.668  31.888  54.011  0.00  0.00     0.002 A 
ENDBRANCH   4  20
TORSDOF 4
ENDMDL
