MODEL 1
REMARK VINA RESULT:      -9.9      0.000      0.000
REMARK  3 active torsions:
REMARK  status: ('A' for Active; 'I' for Inactive)
REMARK       I    between atoms: N_2  and  C_1 
REMARK    1  A    between atoms: C_9  and  C_1 
REMARK    2  A    between atoms: C_6  and  N_5 
REMARK    3  A    between atoms: N_8  and  C_7 
ROOT
ATOM      1  C   UNL d   1      53.237  32.391  53.654  0.00  0.00     0.265 C 
ATOM      2  N   UNL d   1      52.562  32.822  53.458  0.00  0.00    -0.269 N 
ATOM      3  N   UNL d   1      51.215  33.686  53.069  0.00  0.00    -0.285 N 
ATOM      4  C   UNL d   1      52.563  33.647  53.555  0.00  0.00     0.102 A 
ATOM      5  C   UNL d   1      51.894  32.438  53.170  0.00  0.00     0.102 A 
ATOM      6  C   UNL d   1      51.884  34.080  53.359  0.00  0.00     0.101 A 
ATOM      7  C   UNL d   1      51.216  32.860  52.972  0.00  0.00     0.101 A 
ATOM      8  O   UNL d   1      53.247  31.566  53.560  0.00  0.00    -0.267 OA
ENDROOT
BRANCH   3   9
ATOM      9  C   UNL d   1      50.538  34.119  52.873  0.00  0.00     0.170 A 
ATOM     10  N   UNL d   1      50.120  34.512  53.459  0.00  0.00    -0.129 NA
ATOM     11  N   UNL d   1      49.446  34.943  53.264  0.00  0.00    -0.129 NA
ATOM     12  C   UNL d   1      49.183  34.983  52.476  0.00  0.00     0.170 A 
ATOM     13  C   UNL d   1      49.610  34.583  51.893  0.00  0.00     0.042 A 
ATOM     14  C   UNL d   1      50.284  34.153  52.088  0.00  0.00     0.042 A 
BRANCH  12  15
ATOM     15  N   UNL d   1      48.508  35.413  52.281  0.00  0.00    -0.284 N 
ATOM     16  C   UNL d   1      48.222  35.992  52.794  0.00  0.00     0.108 A 
ATOM     17  C   UNL d   1      47.547  36.422  52.598  0.00  0.00     0.142 A 
ATOM     18  O   UNL d   1      47.163  36.272  51.892  0.00  0.00    -0.300 OA
ATOM     19  C   UNL d   1      47.442  35.699  51.378  0.00  0.00     0.142 A 
ATOM     20  C   UNL d   1      48.118  35.260  51.563  0.00  0.00     0.108 A 
ENDBRANCH  12  15
ENDBRANCH   3   9
BRANCH   1  21
ATOM     21  C   UNL d   1      53.912  32.772  53.944  0.00  0.00     0.057 A 
ATOM     22  C   UNL d   1      53.986  32.946  54.751  0.00  0.00     0.005 A 
ATOM     23  C   UNL d   1      54.656  33.323  55.035  0.00  0.00     0.000 A 
ATOM     24  C   UNL d   1      54.718  33.490  55.839  0.00  0.00     0.000 C 
ATOM     25  C   UNL d   1      55.255  33.527  54.505  0.00  0.00     0.000 A 
ATOM     26  C   UNL d   1      55.190  33.358  53.697  0.00  0.00     0.000 A 
ATOM     27  C   UNL d   1      54.517  32.981  53.426  0.00  0.00     0.005 A 
ENDBRANCH   1  21
TORSDOF 3
ENDMDL
MODEL 2
REMARK VINA RESULT:      -9.5      1.107      1.822
REMARK  3 active torsions:
REMARK  status: ('A' for Active; 'I' for Inactive)
REMARK       I    between atoms: N_2  and  C_1 
REMARK    1  A    between atoms: C_9  and  C_1 
REMARK    2  A    between atoms: C_6  and  N_5 
REMARK    3  A    between atoms: N_8  and  C_7 
ROOT
ATOM      1  C   UNL d   1      53.249  32.952  53.145  0.00  0.00     0.265 C 
ATOM      2  N   UNL d   1      52.527  33.342  53.067  0.00  0.00    -0.269 N 
ATOM      3  N   UNL d   1      51.082  34.116  52.911  0.00  0.00    -0.285 N 
ATOM      4  C   UNL d   1      51.829  32.960  53.308  0.00  0.00     0.102 A 
ATOM      5  C   UNL d   1      52.498  34.101  52.752  0.00  0.00     0.102 A 
ATOM      6  C   UNL d   1      51.103  33.352  53.229  0.00  0.00     0.101 A 
ATOM      7  C   UNL d   1      51.781  34.497  52.670  0.00  0.00     0.101 A 
ATOM      8  O   UNL d   1      53.952  33.325  52.906  0.00  0.00    -0.267 OA
ENDROOT
BRANCH   3   9
ATOM      9  C   UNL d   1      50.357  34.507  52.832  0.00  0.00     0.170 A 
ATOM     10  N   UNL d   1      50.104  35.022  53.420  0.00  0.00    -0.129 NA
ATOM     11  N   UNL d   1      49.383  35.411  53.341  0.00  0.00    -0.129 NA
ATOM     12  C   UNL d   1      48.906  35.288  52.671  0.00  0.00     0.170 A 
ATOM     13  C   UNL d   1      49.169  34.768  52.086  0.00  0.00     0.042 A 
ATOM     14  C   UNL d   1      49.891  34.379  52.165  0.00  0.00     0.042 A 
BRANCH  12  15
ATOM     15  N   UNL d   1      48.184  35.677  52.593  0.00  0.00    -0.284 N 
ATOM     16  C   UNL d   1      47.759  35.625  51.889  0.00  0.00     0.108 A 
ATOM     17  C   UNL d   1      47.037  36.014  51.811  0.00  0.00     0.142 A 
ATOM     18  O   UNL d   1      46.745  36.453  52.437  0.00  0.00    -0.300 OA
ATOM     19  C   UNL d   1      47.163  36.509  53.138  0.00  0.00     0.142 A 
ATOM     20  C   UNL d   1      47.889  36.123  53.229  0.00  0.00     0.108 A 
ENDBRANCH  12  15
ENDBRANCH   3   9
BRANCH   1  21
ATOM     21  C   UNL d   1      53.285  32.188  53.461  0.00  0.00     0.057 A 
ATOM     22  C   UNL d   1      53.112  31.527  52.992  0.00  0.00     0.005 A 
ATOM     23  C   UNL d   1      53.148  30.772  53.309  0.00  0.00     0.000 A 
ATOM     24  C   UNL d   1      52.974  30.123  52.832  0.00  0.00     0.000 C 
ATOM     25  C   UNL d   1      53.360  30.681  54.101  0.00  0.00     0.000 A 
ATOM     26  C   UNL d   1      53.534  31.335  54.577  0.00  0.00     0.000 A 
ATOM     27  C   UNL d   1      53.495  32.083  54.250  0.00  0.00     0.005 A 
ENDBRANCH   1  21
TORSDOF 3
ENDMDL
MODEL 3
REMARK VINA RESULT:      -8.8      0.986      6.085
REMARK  3 active torsions:
REMARK  status: ('A' for Active; 'I' for Inactive)
REMARK       I    between atoms: N_2  and  C_1 
REMARK    1  A    between atoms: C_9  and  C_1 
REMARK    2  A    between atoms: C_6  and  N_5 
REMARK    3  A    between atoms: N_8  and  C_7 
ROOT
ATOM      1  C   UNL d   1      48.019  35.146  51.472  0.00  0.00     0.265 C 
ATOM      2  N   UNL d   1      48.729  34.884  51.799  0.00  0.00    -0.269 N 
ATOM      3  N   UNL d   1      50.145  34.362  52.457  0.00  0.00    -0.285 N 
ATOM      4  C   UNL d   1      48.888  35.034  52.601  0.00  0.00     0.102 A 
ATOM      5  C   UNL d   1      49.274  34.478  51.336  0.00  0.00     0.102 A 
ATOM      6  C   UNL d   1      49.602  34.770  52.930  0.00  0.00     0.101 A 
ATOM      7  C   UNL d   1      49.985  34.213  51.655  0.00  0.00     0.101 A 
ATOM      8  O   UNL d   1      47.850  35.002  50.672  0.00  0.00    -0.267 OA
ENDROOT
BRANCH   3   9
ATOM      9  C   UNL d   1      50.858  34.099  52.785  0.00  0.00     0.170 A 
ATOM     10  N   UNL d   1      50.854  33.489  53.335  0.00  0.00    -0.129 NA
ATOM     11  N   UNL d   1      51.563  33.227  53.662  0.00  0.00    -0.129 NA
ATOM     12  C   UNL d   1      52.285  33.575  53.440  0.00  0.00     0.170 A 
ATOM     13  C   UNL d   1      52.278  34.187  52.886  0.00  0.00     0.042 A 
ATOM     14  C   UNL d   1      51.570  34.449  52.559  0.00  0.00     0.042 A 
BRANCH  12  15
ATOM     15  N   UNL d   1      52.994  33.313  53.767  0.00  0.00    -0.284 N 
ATOM     16  C   UNL d   1      53.244  33.596  54.499  0.00  0.00     0.108 A 
ATOM     17  C   UNL d   1      53.953  33.334  54.826  0.00  0.00     0.142 A 
ATOM     18  O   UNL d   1      54.409  32.790  54.418  0.00  0.00    -0.300 OA
ATOM     19  C   UNL d   1      54.166  32.504  53.690  0.00  0.00     0.142 A 
ATOM     20  C   UNL d   1      53.456  32.760  53.352  0.00  0.00     0.108 A 
ENDBRANCH  12  15
ENDBRANCH   3   9
BRANCH   1  21
ATOM     21  C   UNL d   1      47.466  35.556  51.934  0.00  0.00     0.057 A 
ATOM     22  C   UNL d   1      46.719  35.232  52.084  0.00  0.00     0.005 A 
ATOM     23  C   UNL d   1      46.175  35.640  52.542  0.00  0.00     0.000 A 
ATOM     24  C   UNL d   1      45.434  35.309  52.685  0.00  0.00     0.000 C 
ATOM     25  C   UNL d   1      46.384  36.378  52.849  0.00  0.00     0.000 A 
ATOM     26  C   UNL d   1      47.128  36.708  52.703  0.00  0.00     0.000 A 
ATOM     27  C   UNL d   1      47.663  36.292  52.246  0.00  0.00     0.005 A 
ENDBRANCH   1  21
TORSDOF 3
ENDMDL
