MODEL 1
REMARK VINA RESULT:      -9.9      0.000      0.000
REMARK  3 active torsions:
REMARK  status: ('A' for Active; 'I' for Inactive)
REMARK    1  A    between atoms: C_6  and  C_1 
REMARK    2  A    between atoms: C_7  and  N_3 
REMARK    3  A    between atoms: C_10  and  C_7 
ROOT
ATOM      1  C   UNL d   1      52.492  33.787  53.643  0.00  0.00     0.148 A 
ATOM      2  N   UNL d   1      52.872  34.336  54.140  0.00  0.00    -0.227 NA
ATOM      3  N   UNL d   1      52.928  33.091  53.706  0.00  0.00    -0.289 N 
ATOM      4  C   UNL d   1      53.544  33.197  54.213  0.00  0.00     0.083 A 
ATOM      5  C   UNL d   1      53.509  33.979  54.485  0.00  0.00     0.099 A 
ATOM      6  C   UNL d   1      54.145  32.699  54.477  0.00  0.00     0.019 A 
ATOM      7  C   UNL d   1      54.077  34.228  55.010  0.00  0.00     0.021 A 
ATOM      8  C   UNL d   1      54.691  32.976  54.996  0.00  0.00     0.002 A 
ATOM      9  C   UNL d   1      54.656  33.757  55.268  0.00  0.00     0.002 A 
ENDROOT
BRANCH   1  10
ATOM     10  C   UNL d   1      51.817  33.918  53.182  0.00  0.00     0.035 A 
ATOM     11  C   UNL d   1      51.069  33.775  53.495  0.00  0.00     0.005 A 
ATOM     12  C   UNL d   1      50.394  33.906  53.034  0.00  0.00     0.021 A 
ATOM     13  C   UNL d   1      50.467  34.178  52.260  0.00  0.00     0.103 A 
ATOM     14  C   UNL d   1      51.218  34.321  51.945  0.00  0.00     0.021 A 
ATOM     15  N   UNL d   1      49.793  34.308  51.800  0.00  0.00    -0.148 N 
ATOM     16  C   UNL d   1      51.893  34.191  52.406  0.00  0.00     0.005 A 
ENDBRANCH   1  10
BRANCH   3  17
ATOM     17  C   UNL d   1      52.641  32.475  53.254  0.00  0.00     0.082 C 
BRANCH  17  18
ATOM     18  C   UNL d   1      53.017  31.755  53.194  0.00  0.00     0.019 C 
ATOM     19  C   UNL d   1      52.677  31.099  52.838  0.00  0.00     0.002 C 
ENDBRANCH  17  18
ENDBRANCH   3  17
TORSDOF 3
ENDMDL
MODEL 2
REMARK VINA RESULT:      -8.9      0.774      1.860
REMARK  3 active torsions:
REMARK  status: ('A' for Active; 'I' for Inactive)
REMARK    1  A    between atoms: C_6  and  C_1 
REMARK    2  A    between atoms: C_7  and  N_3 
REMARK    3  A    between atoms: C_10  and  C_7 
ROOT
ATOM      1  C   UNL d   1      52.163  33.353  53.123  0.00  0.00     0.148 A 
ATOM      2  N   UNL d   1      52.412  32.567  53.010  0.00  0.00    -0.227 NA
ATOM      3  N   UNL d   1      52.746  33.708  53.584  0.00  0.00    -0.289 N 
ATOM      4  C   UNL d   1      53.326  33.176  53.751  0.00  0.00     0.083 A 
ATOM      5  C   UNL d   1      53.117  32.460  53.391  0.00  0.00     0.099 A 
ATOM      6  C   UNL d   1      54.027  33.227  54.182  0.00  0.00     0.019 A 
ATOM      7  C   UNL d   1      53.617  31.826  53.477  0.00  0.00     0.021 A 
ATOM      8  C   UNL d   1      54.500  32.582  54.248  0.00  0.00     0.002 A 
ATOM      9  C   UNL d   1      54.290  31.866  53.888  0.00  0.00     0.002 A 
ENDROOT
BRANCH   1  10
ATOM     10  C   UNL d   1      51.472  33.703  52.830  0.00  0.00     0.035 A 
ATOM     11  C   UNL d   1      50.786  33.707  53.286  0.00  0.00     0.005 A 
ATOM     12  C   UNL d   1      50.095  34.057  52.993  0.00  0.00     0.021 A 
ATOM     13  C   UNL d   1      50.090  34.402  52.245  0.00  0.00     0.103 A 
ATOM     14  C   UNL d   1      50.779  34.398  51.787  0.00  0.00     0.021 A 
ATOM     15  N   UNL d   1      49.400  34.751  51.953  0.00  0.00    -0.148 N 
ATOM     16  C   UNL d   1      51.470  34.048  52.079  0.00  0.00     0.005 A 
ENDBRANCH   1  10
BRANCH   3  17
ATOM     17  C   UNL d   1      52.603  34.492  53.759  0.00  0.00     0.082 C 
BRANCH  17  18
ATOM     18  C   UNL d   1      53.103  34.943  54.217  0.00  0.00     0.019 C 
ATOM     19  C   UNL d   1      52.946  35.722  54.419  0.00  0.00     0.002 C 
ENDBRANCH  17  18
ENDBRANCH   3  17
TORSDOF 3
ENDMDL
MODEL 3
REMARK VINA RESULT:      -8.9      1.516      3.830
REMARK  3 active torsions:
REMARK  status: ('A' for Active; 'I' for Inactive)
REMARK    1  A    between atoms: C_6  and  C_1 
REMARK    2  A    between atoms: C_7  and  N_3 
REMARK    3  A    between atoms: C_10  and  C_7 
ROOT
ATOM      1  C   UNL d   1      53.838  31.898  54.013  0.00  0.00     0.148 A 
ATOM      2  N   UNL d   1      54.025  31.094  54.113  0.00  0.00    -0.227 NA
ATOM      3  N   UNL d   1      53.182  31.914  53.514  0.00  0.00    -0.289 N 
ATOM      4  C   UNL d   1      52.971  31.164  53.315  0.00  0.00     0.083 A 
ATOM      5  C   UNL d   1      53.499  30.649  53.690  0.00  0.00     0.099 A 
ATOM      6  C   UNL d   1      52.369  30.858  52.841  0.00  0.00     0.019 A 
ATOM      7  C   UNL d   1      53.403  29.850  53.577  0.00  0.00     0.021 A 
ATOM      8  C   UNL d   1      52.301  30.064  52.749  0.00  0.00     0.002 A 
ATOM      9  C   UNL d   1      52.830  29.549  53.125  0.00  0.00     0.002 A 
ENDROOT
BRANCH   1  10
ATOM     10  C   UNL d   1      54.233  32.546  54.346  0.00  0.00     0.035 A 
ATOM     11  C   UNL d   1      54.822  32.933  53.922  0.00  0.00     0.005 A 
ATOM     12  C   UNL d   1      55.217  33.580  54.255  0.00  0.00     0.021 A 
ATOM     13  C   UNL d   1      55.020  33.840  55.012  0.00  0.00     0.103 A 
ATOM     14  C   UNL d   1      54.428  33.452  55.439  0.00  0.00     0.021 A 
ATOM     15  N   UNL d   1      55.414  34.487  55.344  0.00  0.00    -0.148 N 
ATOM     16  C   UNL d   1      54.034  32.804  55.105  0.00  0.00     0.005 A 
ENDBRANCH   1  10
BRANCH   3  17
ATOM     17  C   UNL d   1      52.910  32.665  53.346  0.00  0.00     0.082 C 
BRANCH  17  18
ATOM     18  C   UNL d   1      52.234  32.804  52.912  0.00  0.00     0.019 C 
ATOM     19  C   UNL d   1      51.941  33.556  52.768  0.00  0.00     0.002 C 
ENDBRANCH  17  18
ENDBRANCH   3  17
TORSDOF 3
ENDMDL
MODEL 4
REMARK VINA RESULT:      -8.7      1.305      3.565
REMARK  3 active torsions:
REMARK  status: ('A' for Active; 'I' for Inactive)
REMARK    1  A    between atoms: C_6  and  C_1 
REMARK    2  A    between atoms: C_7  and  N_3 
REMARK    3  A    between atoms: C_10  and  C_7 
ROOT
ATOM      1  C   UNL d   1      52.781  32.178  53.248  0.00  0.00     0.148 A 
ATOM      2  N   UNL d   1      52.259  32.477  52.674  0.00  0.00    -0.227 NA
ATOM      3  N   UNL d   1      53.065  32.835  53.656  0.00  0.00    -0.289 N 
ATOM      4  C   UNL d   1      52.740  33.507  53.353  0.00  0.00     0.083 A 
ATOM      5  C   UNL d   1      52.234  33.282  52.737  0.00  0.00     0.099 A 
ATOM      6  C   UNL d   1      52.824  34.305  53.543  0.00  0.00     0.019 A 
ATOM      7  C   UNL d   1      51.834  33.865  52.337  0.00  0.00     0.021 A 
ATOM      8  C   UNL d   1      52.414  34.856  53.128  0.00  0.00     0.002 A 
ATOM      9  C   UNL d   1      51.909  34.631  52.512  0.00  0.00     0.002 A 
ENDROOT
BRANCH   1  10
ATOM     10  C   UNL d   1      52.973  31.383  53.381  0.00  0.00     0.035 A 
ATOM     11  C   UNL d   1      53.684  31.078  53.100  0.00  0.00     0.005 A 
ATOM     12  C   UNL d   1      53.876  30.283  53.233  0.00  0.00     0.021 A 
ATOM     13  C   UNL d   1      53.356  29.795  53.646  0.00  0.00     0.103 A 
ATOM     14  C   UNL d   1      52.642  30.101  53.928  0.00  0.00     0.021 A 
ATOM     15  N   UNL d   1      53.548  29.002  53.778  0.00  0.00    -0.148 N 
ATOM     16  C   UNL d   1      52.450  30.896  53.796  0.00  0.00     0.005 A 
ENDBRANCH   1  10
BRANCH   3  17
ATOM     17  C   UNL d   1      53.593  32.657  54.251  0.00  0.00     0.082 C 
BRANCH  17  18
ATOM     18  C   UNL d   1      53.905  33.220  54.751  0.00  0.00     0.019 C 
ATOM     19  C   UNL d   1      54.455  33.046  55.335  0.00  0.00     0.002 C 
ENDBRANCH  17  18
ENDBRANCH   3  17
TORSDOF 3
ENDMDL
MODEL 5
REMARK VINA RESULT:      -8.0      1.309      3.014
REMARK  3 active torsions:
REMARK  status: ('A' for Active; 'I' for Inactive)
REMARK    1  A    between atoms: C_6  and  C_1 
REMARK    2  A    between atoms: C_7  and  N_3 
REMARK    3  A    between atoms: C_10  and  C_7 
ROOT
ATOM      1  C   UNL d   1      53.645  32.137  54.049  0.00  0.00     0.148 A 
ATOM      2  N   UNL d   1      54.360  32.296  54.443  0.00  0.00    -0.227 NA
ATOM      3  N   UNL d   1      53.231  32.850  54.041  0.00  0.00    -0.289 N 
ATOM      4  C   UNL d   1      53.662  33.421  54.410  0.00  0.00     0.083 A 
ATOM      5  C   UNL d   1      54.370  33.074  54.662  0.00  0.00     0.099 A 
ATOM      6  C   UNL d   1      53.522  34.220  54.560  0.00  0.00     0.019 A 
ATOM      7  C   UNL d   1      54.908  33.540  55.054  0.00  0.00     0.021 A 
ATOM      8  C   UNL d   1      54.073  34.652  54.950  0.00  0.00     0.002 A 
ATOM      9  C   UNL d   1      54.781  34.305  55.202  0.00  0.00     0.002 A 
ENDROOT
BRANCH   1  10
ATOM     10  C   UNL d   1      53.402  31.412  53.730  0.00  0.00     0.035 A 
ATOM     11  C   UNL d   1      53.423  31.291  52.916  0.00  0.00     0.005 A 
ATOM     12  C   UNL d   1      53.180  30.566  52.598  0.00  0.00     0.021 A 
ATOM     13  C   UNL d   1      52.918  29.963  53.094  0.00  0.00     0.103 A 
ATOM     14  C   UNL d   1      52.897  30.084  53.912  0.00  0.00     0.021 A 
ATOM     15  N   UNL d   1      52.676  29.239  52.777  0.00  0.00    -0.148 N 
ATOM     16  C   UNL d   1      53.139  30.809  54.230  0.00  0.00     0.005 A 
ENDBRANCH   1  10
BRANCH   3  17
ATOM     17  C   UNL d   1      52.504  32.810  53.673  0.00  0.00     0.082 C 
BRANCH  17  18
ATOM     18  C   UNL d   1      52.009  33.453  53.598  0.00  0.00     0.019 C 
ATOM     19  C   UNL d   1      51.259  33.406  53.270  0.00  0.00     0.002 C 
ENDBRANCH  17  18
ENDBRANCH   3  17
TORSDOF 3
ENDMDL
MODEL 6
REMARK VINA RESULT:      -7.8      0.970      3.487
REMARK  3 active torsions:
REMARK  status: ('A' for Active; 'I' for Inactive)
REMARK    1  A    between atoms: C_6  and  C_1 
REMARK    2  A    between atoms: C_7  and  N_3 
REMARK    3  A    between atoms: C_10  and  C_7 
ROOT
ATOM      1  C   UNL d   1      52.784  33.774  53.806  0.00  0.00     0.148 A 
ATOM      2  N   UNL d   1      52.290  34.441  53.737  0.00  0.00    -0.227 NA
ATOM      3  N   UNL d   1      52.402  33.171  53.395  0.00  0.00    -0.289 N 
ATOM      4  C   UNL d   1      51.710  33.443  53.087  0.00  0.00     0.083 A 
ATOM      5  C   UNL d   1      51.640  34.240  53.302  0.00  0.00     0.099 A 
ATOM      6  C   UNL d   1      51.118  33.088  52.636  0.00  0.00     0.019 A 
ATOM      7  C   UNL d   1      50.981  34.647  53.056  0.00  0.00     0.021 A 
ATOM      8  C   UNL d   1      50.480  33.517  52.409  0.00  0.00     0.002 A 
ATOM      9  C   UNL d   1      50.410  34.314  52.624  0.00  0.00     0.002 A 
ENDROOT
BRANCH   1  10
ATOM     10  C   UNL d   1      53.508  33.731  54.205  0.00  0.00     0.035 A 
ATOM     11  C   UNL d   1      54.213  33.846  53.795  0.00  0.00     0.005 A 
ATOM     12  C   UNL d   1      54.937  33.802  54.194  0.00  0.00     0.021 A 
ATOM     13  C   UNL d   1      54.955  33.643  55.002  0.00  0.00     0.103 A 
ATOM     14  C   UNL d   1      54.248  33.527  55.415  0.00  0.00     0.021 A 
ATOM     15  N   UNL d   1      55.679  33.599  55.401  0.00  0.00    -0.148 N 
ATOM     16  C   UNL d   1      53.524  33.571  55.015  0.00  0.00     0.005 A 
ENDBRANCH   1  10
BRANCH   3  17
ATOM     17  C   UNL d   1      52.803  32.460  53.396  0.00  0.00     0.082 C 
BRANCH  17  18
ATOM     18  C   UNL d   1      52.543  31.803  52.991  0.00  0.00     0.019 C 
ATOM     19  C   UNL d   1      52.923  31.077  53.023  0.00  0.00     0.002 C 
ENDBRANCH  17  18
ENDBRANCH   3  17
TORSDOF 3
ENDMDL
MODEL 7
REMARK VINA RESULT:      -7.5      1.598      2.809
REMARK  3 active torsions:
REMARK  status: ('A' for Active; 'I' for Inactive)
REMARK    1  A    between atoms: C_6  and  C_1 
REMARK    2  A    between atoms: C_7  and  N_3 
REMARK    3  A    between atoms: C_10  and  C_7 
ROOT
ATOM      1  C   UNL d   1      52.948  32.949  53.678  0.00  0.00     0.148 A 
ATOM      2  N   UNL d   1      52.301  32.442  53.549  0.00  0.00    -0.227 NA
ATOM      3  N   UNL d   1      53.620  32.493  53.539  0.00  0.00    -0.289 N 
ATOM      4  C   UNL d   1      53.407  31.745  53.334  0.00  0.00     0.083 A 
ATOM      5  C   UNL d   1      52.579  31.712  53.340  0.00  0.00     0.099 A 
ATOM      6  C   UNL d   1      53.841  31.071  53.139  0.00  0.00     0.019 A 
ATOM      7  C   UNL d   1      52.221  31.008  53.151  0.00  0.00     0.021 A 
ATOM      8  C   UNL d   1      53.457  30.391  52.957  0.00  0.00     0.002 A 
ATOM      9  C   UNL d   1      52.629  30.359  52.963  0.00  0.00     0.002 A 
ENDROOT
BRANCH   1  10
ATOM     10  C   UNL d   1      52.919  33.746  53.900  0.00  0.00     0.035 A 
ATOM     11  C   UNL d   1      53.059  33.962  54.682  0.00  0.00     0.005 A 
ATOM     12  C   UNL d   1      53.029  34.759  54.904  0.00  0.00     0.021 A 
ATOM     13  C   UNL d   1      52.860  35.339  54.345  0.00  0.00     0.103 A 
ATOM     14  C   UNL d   1      52.719  35.123  53.559  0.00  0.00     0.021 A 
ATOM     15  N   UNL d   1      52.831  36.135  54.567  0.00  0.00    -0.148 N 
ATOM     16  C   UNL d   1      52.749  34.326  53.337  0.00  0.00     0.005 A 
ENDBRANCH   1  10
BRANCH   3  17
ATOM     17  C   UNL d   1      54.323  32.896  53.638  0.00  0.00     0.082 C 
BRANCH  17  18
ATOM     18  C   UNL d   1      55.027  32.646  53.313  0.00  0.00     0.019 C 
ATOM     19  C   UNL d   1      55.715  33.093  53.334  0.00  0.00     0.002 C 
ENDBRANCH  17  18
ENDBRANCH   3  17
TORSDOF 3
ENDMDL
