MODEL 1
REMARK VINA RESULT:      78.7      0.000      0.000
REMARK  6 active torsions:
REMARK  status: ('A' for Active; 'I' for Inactive)
REMARK    1  A    between atoms: C_7  and  C_1 
REMARK    2  A    between atoms: C_9  and  N_10 
REMARK       I    between atoms: N_10  and  C_11 
REMARK    3  A    between atoms: C_11  and  C_19 
REMARK    4  A    between atoms: S_15  and  C_12 
REMARK    5  A    between atoms: O_24  and  C_13 
REMARK    6  A    between atoms: C_19  and  S_15 
ROOT
ATOM      1  S   UNL d   1      61.199  48.661  51.964  0.00  0.00    -0.061 SA
ENDROOT
BRANCH   1   2
ATOM      2  C   UNL d   1      61.236  48.023  51.418  0.00  0.00     0.133 A 
ATOM      3  C   UNL d   1      60.879  47.306  51.608  0.00  0.00     0.029 A 
ATOM      4  C   UNL d   1      60.913  46.678  51.076  0.00  0.00     0.024 A 
ATOM      5  C   UNL d   1      61.304  46.768  50.355  0.00  0.00     0.111 A 
ATOM      6  N   UNL d   1      61.661  47.485  50.166  0.00  0.00    -0.147 NA
ATOM      7  N   UNL d   1      61.627  48.113  50.698  0.00  0.00    -0.141 NA
BRANCH   5   8
ATOM      8  C   UNL d   1      61.338  46.140  49.824  0.00  0.00     0.068 A 
ATOM      9  C   UNL d   1      61.963  45.911  49.327  0.00  0.00     0.089 A 
ATOM     10  N   UNL d   1      61.724  45.245  48.900  0.00  0.00    -0.238 NA
ATOM     11  C   UNL d   1      62.699  46.284  49.268  0.00  0.00     0.021 C 
ATOM     12  C   UNL d   1      60.954  45.064  49.132  0.00  0.00     0.111 A 
ATOM     13  S   UNL d   1      60.713  45.613  49.701  0.00  0.00    -0.065 SA
ATOM     14  C   UNL d   1      60.487  44.430  48.843  0.00  0.00     0.028 C 
ENDBRANCH   5   8
ENDBRANCH   1   2
BRANCH   1  15
ATOM     15  C   UNL d   1      60.970  49.410  51.704  0.00  0.00     0.099 C 
BRANCH  15  16
ATOM     16  C   UNL d   1      60.299  49.487  51.232  0.00  0.00     0.286 C 
ATOM     17  N   UNL d   1      59.541  49.411  51.570  0.00  0.00    -0.206 NA
ATOM     18  O   UNL d   1      60.375  49.640  50.419  0.00  0.00    -0.265 OA
BRANCH  17  19
ATOM     19  C   UNL d   1      58.870  49.488  51.099  0.00  0.00     0.107 A 
ATOM     20  C   UNL d   1      58.130  49.631  51.449  0.00  0.00     0.112 A 
ATOM     21  C   UNL d   1      57.458  49.708  50.978  0.00  0.00     0.026 A 
ATOM     22  C   UNL d   1      57.518  49.643  50.154  0.00  0.00     0.002 A 
ATOM     23  C   UNL d   1      58.258  49.500  49.805  0.00  0.00     0.002 A 
ATOM     24  C   UNL d   1      58.930  49.423  50.275  0.00  0.00     0.021 A 
ATOM     25  C   UNL d   1      58.322  49.434  48.985  0.00  0.00     0.000 C 
BRANCH  20  26
ATOM     26  O   UNL d   1      58.070  49.696  52.269  0.00  0.00    -0.327 OA
ATOM     27  C   UNL d   1      57.336  49.622  52.636  0.00  0.00     0.181 C 
ENDBRANCH  20  26
ENDBRANCH  17  19
ENDBRANCH  15  16
ENDBRANCH   1  15
TORSDOF 6
ENDMDL
