MODEL 1
REMARK VINA RESULT:      87.2      0.000      0.000
REMARK  7 active torsions:
REMARK  status: ('A' for Active; 'I' for Inactive)
REMARK    1  A    between atoms: N_4  and  C_1 
REMARK    2  A    between atoms: N_8  and  C_1 
REMARK    3  A    between atoms: C_2  and  C_3 
REMARK    4  A    between atoms: C_5  and  C_2 
REMARK    5  A    between atoms: N_6  and  C_2 
REMARK    6  A    between atoms: C_3  and  N_4 
REMARK    7  A    between atoms: C_14  and  N_8 
ROOT
ATOM      1  C   UNL d   1     -56.781 -99.788 -43.736  0.00  0.00     0.100 C 
ATOM      2  C   UNL d   1     -56.722 -99.046 -43.393  0.00  0.00     0.022 C 
ENDROOT
BRANCH   1   3
ATOM      3  C   UNL d   1     -56.110-100.150 -44.051  0.00  0.00     0.088 C 
BRANCH   3   4
ATOM      4  C   UNL d   1     -55.874-100.892 -43.777  0.00  0.00     0.047 A 
ATOM      5  S   UNL d   1     -55.518-101.494 -44.223  0.00  0.00    -0.085 SA
ATOM      6  C   UNL d   1     -55.377-102.136 -43.726  0.00  0.00     0.035 A 
ATOM      7  C   UNL d   1     -55.642-101.945 -42.965  0.00  0.00     0.007 A 
ATOM      8  C   UNL d   1     -55.953-101.170 -42.992  0.00  0.00     0.009 A 
ENDBRANCH   3   4
BRANCH   3   9
ATOM      9  N   UNL d   1     -55.668 -99.772 -44.644  0.00  0.00    -0.299 N 
ATOM     10  C   UNL d   1     -55.735-100.015 -45.422  0.00  0.00     0.107 A 
ATOM     11  C   UNL d   1     -55.301 -99.646 -46.018  0.00  0.00     0.142 A 
ATOM     12  O   UNL d   1     -54.785 -99.017 -45.834  0.00  0.00    -0.300 OA
ATOM     13  C   UNL d   1     -54.720 -98.772 -45.040  0.00  0.00     0.142 A 
ATOM     14  C   UNL d   1     -55.160 -99.148 -44.449  0.00  0.00     0.107 A 
ENDBRANCH   3   9
ENDBRANCH   1   3
BRANCH   1  15
ATOM     15  N   UNL d   1     -57.506-100.177 -43.772  0.00  0.00    -0.216 NA
BRANCH  15  16
ATOM     16  C   UNL d   1     -58.192 -99.755 -43.975  0.00  0.00     0.221 C 
ATOM     17  S   UNL d   1     -58.133 -99.091 -44.459  0.00  0.00    -0.037 SA
BRANCH  16  18
ATOM     18  N   UNL d   1     -58.925-100.003 -43.692  0.00  0.00    -0.217 NA
BRANCH  18  19
ATOM     19  C   UNL d   1     -59.185 -99.774 -42.941  0.00  0.00     0.084 A 
ATOM     20  C   UNL d   1     -59.147 -98.974 -42.718  0.00  0.00     0.021 A 
ATOM     21  C   UNL d   1     -59.403 -98.756 -41.979  0.00  0.00     0.031 A 
ATOM     22  C   UNL d   1     -59.700 -99.318 -41.449  0.00  0.00     0.140 A 
ATOM     23  C   UNL d   1     -59.736-100.111 -41.674  0.00  0.00     0.031 A 
ATOM     24  F   UNL d   1     -59.960 -99.084 -40.695  0.00  0.00    -0.204 F 
ATOM     25  C   UNL d   1     -59.478-100.337 -42.419  0.00  0.00     0.021 A 
ENDBRANCH  18  19
ENDBRANCH  16  18
ENDBRANCH  15  16
ENDBRANCH   1  15
TORSDOF 7
ENDMDL
