MODEL 1
REMARK VINA RESULT:      18.1      0.000      0.000
REMARK  7 active torsions:
REMARK  status: ('A' for Active; 'I' for Inactive)
REMARK    1  A    between atoms: C_2  and  C_1 
REMARK       I    between atoms: N_8  and  C_1 
REMARK    2  A    between atoms: C_5  and  C_2 
REMARK    3  A    between atoms: C_6  and  C_2 
REMARK    4  A    between atoms: N_3  and  C_9 
REMARK    5  A    between atoms: C_13  and  N_8 
REMARK    6  A    between atoms: C_9  and  C_10 
REMARK    7  A    between atoms: C_10  and  C_13 
ROOT
ATOM      1  C   UNL d   1      46.268 -18.102  43.664  0.00  0.00     0.058 C 
ENDROOT
BRANCH   1   2
ATOM      2  C   UNL d   1      46.237 -17.409  44.137  0.00  0.00     0.279 C 
ATOM      3  O   UNL d   1      46.615 -17.422  44.892  0.00  0.00    -0.265 OA
ATOM      4  N   UNL d   1      45.843 -16.722  43.867  0.00  0.00    -0.206 NA
BRANCH   4   5
ATOM      5  C   UNL d   1      45.818 -16.048  44.337  0.00  0.00     0.104 C 
BRANCH   5   6
ATOM      6  C   UNL d   1      45.508 -15.346  44.050  0.00  0.00     0.040 C 
BRANCH   6   7
ATOM      7  C   UNL d   1      45.325 -14.740  44.563  0.00  0.00     0.082 C 
BRANCH   7   8
ATOM      8  N   UNL d   1      45.365 -13.974  44.298  0.00  0.00    -0.299 N 
ATOM      9  C   UNL d   1      45.917 -13.441  44.612  0.00  0.00     0.107 A 
ATOM     10  C   UNL d   1      45.952 -12.661  44.335  0.00  0.00     0.142 A 
ATOM     11  O   UNL d   1      45.422 -12.412  43.733  0.00  0.00    -0.300 OA
ATOM     12  C   UNL d   1      44.867 -12.940  43.415  0.00  0.00     0.142 A 
ATOM     13  C   UNL d   1      44.840 -13.716  43.697  0.00  0.00     0.107 A 
ENDBRANCH   7   8
ENDBRANCH   6   7
ENDBRANCH   5   6
ENDBRANCH   4   5
ENDBRANCH   1   2
BRANCH   1  14
ATOM     14  C   UNL d   1      46.174 -18.842  44.006  0.00  0.00     0.005 A 
ATOM     15  C   UNL d   1      46.645 -19.459  43.733  0.00  0.00     0.000 A 
ATOM     16  C   UNL d   1      46.567 -20.210  44.062  0.00  0.00     0.000 A 
ATOM     17  C   UNL d   1      45.981 -20.330  44.699  0.00  0.00     0.000 A 
ATOM     18  C   UNL d   1      45.522 -19.689  44.954  0.00  0.00     0.000 A 
ATOM     19  C   UNL d   1      45.611 -18.943  44.613  0.00  0.00     0.000 A 
ENDBRANCH   1  14
BRANCH   1  20
ATOM     20  C   UNL d   1      46.393 -18.012  42.853  0.00  0.00     0.005 A 
ATOM     21  C   UNL d   1      46.453 -17.267  42.525  0.00  0.00     0.000 A 
ATOM     22  C   UNL d   1      46.579 -17.177  41.709  0.00  0.00     0.000 A 
ATOM     23  C   UNL d   1      46.645 -17.860  41.225  0.00  0.00     0.000 A 
ATOM     24  C   UNL d   1      46.583 -18.604  41.570  0.00  0.00     0.000 A 
ATOM     25  C   UNL d   1      46.458 -18.680  42.379  0.00  0.00     0.000 A 
ENDBRANCH   1  20
TORSDOF 7
ENDMDL
