MODEL 1
REMARK VINA RESULT:      -5.9      0.000      0.000
REMARK  2 active torsions:
REMARK  status: ('A' for Active; 'I' for Inactive)
REMARK    1  A    between atoms: C_6  and  C_2 
REMARK    2  A    between atoms: C_7  and  C_6 
ROOT
ATOM      1  N   UNL d   1     -41.276-123.817 -53.192  0.00  0.00    -0.193 NA
ATOM      2  C   UNL d   1     -41.564-122.603 -53.661  0.00  0.00     0.153 A 
ATOM      3  N   UNL d   1     -41.449-122.539 -52.849  0.00  0.00    -0.306 N 
ATOM      4  C   UNL d   1     -41.270-123.290 -52.559  0.00  0.00     0.147 A 
ATOM      5  C   UNL d   1     -41.459-123.391 -53.880  0.00  0.00     0.276 A 
ATOM      6  C   UNL d   1     -41.482-121.894 -52.328  0.00  0.00     0.077 A 
ATOM      7  C   UNL d   1     -41.123-123.404 -51.746  0.00  0.00     0.037 A 
ATOM      8  O   UNL d   1     -41.523-123.701 -54.642  0.00  0.00    -0.268 OA
ATOM      9  C   UNL d   1     -41.338-122.003 -51.528  0.00  0.00     0.019 A 
ATOM     10  C   UNL d   1     -41.157-122.762 -51.235  0.00  0.00     0.005 A 
ATOM     11  C   UNL d   1     -41.687-121.797 -53.531  0.00  0.00     0.033 C 
ENDROOT
BRANCH   2  12
ATOM     12  C   UNL d   1     -41.676-122.693 -54.477  0.00  0.00     0.128 C 
BRANCH  12  13
ATOM     13  C   UNL d   1     -42.006-122.075 -54.913  0.00  0.00     0.188 C 
ATOM     14  O   UNL d   1     -42.820-121.962 -54.928  0.00  0.00    -0.647 OA
ATOM     15  O   UNL d   1     -41.510-121.565 -55.338  0.00  0.00    -0.647 OA
ENDBRANCH  12  13
ENDBRANCH   2  12
TORSDOF 2
ENDMDL
MODEL 2
REMARK VINA RESULT:      -5.0      1.939      3.147
REMARK  2 active torsions:
REMARK  status: ('A' for Active; 'I' for Inactive)
REMARK    1  A    between atoms: C_6  and  C_2 
REMARK    2  A    between atoms: C_7  and  C_6 
ROOT
ATOM      1  N   UNL d   1     -41.153-121.690 -52.852  0.00  0.00    -0.193 NA
ATOM      2  C   UNL d   1     -41.296-122.791 -52.114  0.00  0.00     0.153 A 
ATOM      3  N   UNL d   1     -41.300-123.016 -52.905  0.00  0.00    -0.306 N 
ATOM      4  C   UNL d   1     -41.212-122.336 -53.362  0.00  0.00     0.147 A 
ATOM      5  C   UNL d   1     -41.205-121.972 -52.074  0.00  0.00     0.276 A 
ATOM      6  C   UNL d   1     -41.372-123.754 -53.276  0.00  0.00     0.077 A 
ATOM      7  C   UNL d   1     -41.195-122.385 -54.195  0.00  0.00     0.037 A 
ATOM      8  O   UNL d   1     -41.172-121.516 -51.388  0.00  0.00    -0.268 OA
ATOM      9  C   UNL d   1     -41.357-123.807 -54.095  0.00  0.00     0.019 A 
ATOM     10  C   UNL d   1     -41.268-123.119 -54.557  0.00  0.00     0.005 A 
ATOM     11  C   UNL d   1     -41.388-123.609 -52.061  0.00  0.00     0.033 C 
ENDROOT
BRANCH   2  12
ATOM     12  C   UNL d   1     -41.288-122.539 -51.324  0.00  0.00     0.128 C 
BRANCH  12  13
ATOM     13  C   UNL d   1     -41.604-123.028 -50.739  0.00  0.00     0.188 C 
ATOM     14  O   UNL d   1     -41.126-123.559 -50.334  0.00  0.00    -0.647 OA
ATOM     15  O   UNL d   1     -42.413-122.980 -50.561  0.00  0.00    -0.647 OA
ENDBRANCH  12  13
ENDBRANCH   2  12
TORSDOF 2
ENDMDL
MODEL 3
REMARK VINA RESULT:      -4.9      0.817      1.545
REMARK  2 active torsions:
REMARK  status: ('A' for Active; 'I' for Inactive)
REMARK    1  A    between atoms: C_6  and  C_2 
REMARK    2  A    between atoms: C_7  and  C_6 
ROOT
ATOM      1  N   UNL d   1     -41.530-121.681 -52.528  0.00  0.00    -0.193 NA
ATOM      2  C   UNL d   1     -41.459-122.853 -53.160  0.00  0.00     0.153 A 
ATOM      3  N   UNL d   1     -41.349-122.992 -52.357  0.00  0.00    -0.306 N 
ATOM      4  C   UNL d   1     -41.392-122.267 -51.966  0.00  0.00     0.147 A 
ATOM      5  C   UNL d   1     -41.572-122.043 -53.273  0.00  0.00     0.276 A 
ATOM      6  C   UNL d   1     -41.213-123.686 -51.923  0.00  0.00     0.077 A 
ATOM      7  C   UNL d   1     -41.301-122.228 -51.138  0.00  0.00     0.037 A 
ATOM      8  O   UNL d   1     -41.702-121.663 -53.994  0.00  0.00    -0.268 OA
ATOM      9  C   UNL d   1     -41.123-123.651 -51.108  0.00  0.00     0.019 A 
ATOM     10  C   UNL d   1     -41.167-122.918 -50.713  0.00  0.00     0.005 A 
ATOM     11  C   UNL d   1     -41.356-123.671 -53.138  0.00  0.00     0.033 C 
ENDROOT
BRANCH   2  12
ATOM     12  C   UNL d   1     -41.573-122.687 -53.964  0.00  0.00     0.128 C 
BRANCH  12  13
ATOM     13  C   UNL d   1     -41.726-123.305 -54.488  0.00  0.00     0.188 C 
ATOM     14  O   UNL d   1     -42.468-123.655 -54.518  0.00  0.00    -0.647 OA
ATOM     15  O   UNL d   1     -41.123-123.573 -54.990  0.00  0.00    -0.647 OA
ENDBRANCH  12  13
ENDBRANCH   2  12
TORSDOF 2
ENDMDL
MODEL 4
REMARK VINA RESULT:      -4.5      2.920      3.873
REMARK  2 active torsions:
REMARK  status: ('A' for Active; 'I' for Inactive)
REMARK    1  A    between atoms: C_6  and  C_2 
REMARK    2  A    between atoms: C_7  and  C_6 
ROOT
ATOM      1  N   UNL d   1     -43.087-122.654 -49.276  0.00  0.00    -0.193 NA
ATOM      2  C   UNL d   1     -41.980-122.695 -50.018  0.00  0.00     0.153 A 
ATOM      3  N   UNL d   1     -41.812-123.049 -49.295  0.00  0.00    -0.306 N 
ATOM      4  C   UNL d   1     -42.496-123.024 -48.836  0.00  0.00     0.147 A 
ATOM      5  C   UNL d   1     -42.768-122.448 -50.013  0.00  0.00     0.276 A 
ATOM      6  C   UNL d   1     -41.123-123.395 -48.989  0.00  0.00     0.077 A 
ATOM      7  C   UNL d   1     -42.499-123.344 -48.065  0.00  0.00     0.037 A 
ATOM      8  O   UNL d   1     -43.165-122.066 -50.626  0.00  0.00    -0.268 OA
ATOM      9  C   UNL d   1     -41.123-123.711 -48.231  0.00  0.00     0.019 A 
ATOM     10  C   UNL d   1     -41.814-123.686 -47.767  0.00  0.00     0.005 A 
ATOM     11  C   UNL d   1     -41.188-122.907 -50.110  0.00  0.00     0.033 C 
ENDROOT
BRANCH   2  12
ATOM     12  C   UNL d   1     -42.175-122.333 -50.738  0.00  0.00     0.128 C 
BRANCH  12  13
ATOM     13  C   UNL d   1     -41.616-122.309 -51.344  0.00  0.00     0.188 C 
ATOM     14  O   UNL d   1     -41.543-122.935 -51.872  0.00  0.00    -0.647 OA
ATOM     15  O   UNL d   1     -41.123-121.646 -51.420  0.00  0.00    -0.647 OA
ENDBRANCH  12  13
ENDBRANCH   2  12
TORSDOF 2
ENDMDL
MODEL 5
REMARK VINA RESULT:      -2.9      1.782      2.640
REMARK  2 active torsions:
REMARK  status: ('A' for Active; 'I' for Inactive)
REMARK    1  A    between atoms: C_6  and  C_2 
REMARK    2  A    between atoms: C_7  and  C_6 
ROOT
ATOM      1  N   UNL d   1     -41.799-121.587 -50.692  0.00  0.00    -0.193 NA
ATOM      2  C   UNL d   1     -41.571-122.619 -51.504  0.00  0.00     0.153 A 
ATOM      3  N   UNL d   1     -41.892-122.914 -50.807  0.00  0.00    -0.306 N 
ATOM      4  C   UNL d   1     -42.033-122.276 -50.304  0.00  0.00     0.147 A 
ATOM      5  C   UNL d   1     -41.510-121.798 -51.440  0.00  0.00     0.276 A 
ATOM      6  C   UNL d   1     -42.077-123.683 -50.558  0.00  0.00     0.077 A 
ATOM      7  C   UNL d   1     -42.361-122.400 -49.547  0.00  0.00     0.037 A 
ATOM      8  O   UNL d   1     -41.217-121.282 -52.013  0.00  0.00    -0.268 OA
ATOM      9  C   UNL d   1     -42.400-123.808 -49.814  0.00  0.00     0.019 A 
ATOM     10  C   UNL d   1     -42.542-123.164 -49.306  0.00  0.00     0.005 A 
ATOM     11  C   UNL d   1     -41.594-123.430 -51.654  0.00  0.00     0.033 C 
ENDROOT
BRANCH   2  12
ATOM     12  C   UNL d   1     -41.248-122.297 -52.197  0.00  0.00     0.128 C 
BRANCH  12  13
ATOM     13  C   UNL d   1     -41.383-122.672 -52.920  0.00  0.00     0.188 C 
ATOM     14  O   UNL d   1     -41.771-122.281 -53.529  0.00  0.00    -0.647 OA
ATOM     15  O   UNL d   1     -41.123-123.452 -53.029  0.00  0.00    -0.647 OA
ENDBRANCH  12  13
ENDBRANCH   2  12
TORSDOF 2
ENDMDL
