MODEL 1
REMARK VINA RESULT:      28.6      0.000      0.000
REMARK  4 active torsions:
REMARK  status: ('A' for Active; 'I' for Inactive)
REMARK    1  A    between atoms: S_3  and  N_1 
REMARK    2  A    between atoms: C_7  and  C_4 
REMARK    3  A    between atoms: C_11  and  C_5 
REMARK    4  A    between atoms: O_21  and  C_18 
ROOT
ATOM      1  N   UNL d   1     -54.867-101.604 -36.887  0.00  0.00    -0.155 N 
ATOM      2  N   UNL d   1     -54.881-102.081 -37.554  0.00  0.00    -0.156 NA
ATOM      3  C   UNL d   1     -54.811-100.818 -37.129  0.00  0.00     0.102 A 
ATOM      4  C   UNL d   1     -54.834-101.610 -38.229  0.00  0.00     0.104 A 
ATOM      5  C   UNL d   1     -54.790-100.813 -37.946  0.00  0.00     0.041 A 
ENDROOT
BRANCH   4   6
ATOM      6  C   UNL d   1     -54.831-101.851 -38.989  0.00  0.00     0.020 A 
ATOM      7  C   UNL d   1     -54.774-101.270 -39.617  0.00  0.00     0.004 A 
ATOM      8  C   UNL d   1     -54.770-101.498 -40.391  0.00  0.00     0.024 A 
ATOM      9  C   UNL d   1     -54.819-102.306 -40.617  0.00  0.00     0.094 A 
ATOM     10  C   UNL d   1     -54.873-102.869 -40.008  0.00  0.00     0.024 A 
ATOM     11  C   UNL d   1     -54.880-102.665 -39.208  0.00  0.00     0.004 A 
BRANCH   9  12
ATOM     12  O   UNL d   1     -54.813-102.536 -41.429  0.00  0.00    -0.328 OA
ATOM     13  C   UNL d   1     -54.737-101.949 -42.006  0.00  0.00     0.181 C 
ENDBRANCH   9  12
ENDBRANCH   4   6
BRANCH   1  14
ATOM     14  S   UNL d   1     -54.905-101.890 -36.090  0.00  0.00     0.266 S 
ATOM     15  O   UNL d   1     -54.764-101.138 -35.796  0.00  0.00    -0.203 OA
ATOM     16  O   UNL d   1     -54.944-102.181 -35.322  0.00  0.00    -0.203 OA
ATOM     17  C   UNL d   1     -55.051-102.673 -36.409  0.00  0.00     0.165 C 
ENDBRANCH   1  14
BRANCH   3  18
ATOM     18  C   UNL d   1     -54.781-100.154 -36.625  0.00  0.00     0.048 A 
ATOM     19  S   UNL d   1     -54.759 -99.381 -36.845  0.00  0.00    -0.085 SA
ATOM     20  C   UNL d   1     -54.733 -98.903 -36.176  0.00  0.00     0.035 A 
ATOM     21  C   UNL d   1     -54.739 -99.384 -35.536  0.00  0.00     0.007 A 
ATOM     22  C   UNL d   1     -54.769-100.155 -35.803  0.00  0.00     0.009 A 
ENDBRANCH   3  18
TORSDOF 4
ENDMDL
