MODEL 1
REMARK VINA RESULT:      -1.9      0.000      0.000
REMARK  5 active torsions:
REMARK  status: ('A' for Active; 'I' for Inactive)
REMARK    1  A    between atoms: C_3  and  C_1 
REMARK    2  A    between atoms: S_2  and  C_3 
REMARK    3  A    between atoms: C_8  and  S_2 
REMARK    4  A    between atoms: C_9  and  C_3 
REMARK    5  A    between atoms: N_7  and  C_4 
ROOT
ATOM      1  C   UNL d   1      59.472  -1.158  29.382  0.00  0.00     0.128 A 
ATOM      2  C   UNL d   1      60.234  -1.198  29.695  0.00  0.00     0.166 A 
ATOM      3  N   UNL d   1      59.137  -1.819  29.028  0.00  0.00    -0.240 NA
ATOM      4  N   UNL d   1      60.662  -1.908  29.651  0.00  0.00    -0.225 NA
ATOM      5  C   UNL d   1      59.562  -2.518  28.986  0.00  0.00     0.099 A 
ATOM      6  C   UNL d   1      60.322  -2.562  29.297  0.00  0.00     0.101 A 
ATOM      7  C   UNL d   1      60.746  -3.272  29.251  0.00  0.00     0.021 A 
ATOM      8  C   UNL d   1      59.224  -3.180  28.630  0.00  0.00     0.021 A 
ATOM      9  C   UNL d   1      60.405  -3.927  28.896  0.00  0.00     0.002 A 
ATOM     10  C   UNL d   1      59.646  -3.881  28.587  0.00  0.00     0.002 A 
ENDROOT
BRANCH   1  11
ATOM     11  C   UNL d   1      59.046  -0.456  29.424  0.00  0.00     0.129 C 
BRANCH  11  12
ATOM     12  S   UNL d   1      58.199  -0.502  29.702  0.00  0.00     0.213 S 
ATOM     13  O   UNL d   1      57.591  -0.781  29.113  0.00  0.00    -0.217 OA
ATOM     14  O   UNL d   1      58.194  -0.751  28.910  0.00  0.00    -0.217 OA
BRANCH  12  15
ATOM     15  C   UNL d   1      57.825  -0.332  30.425  0.00  0.00     0.088 A 
ATOM     16  C   UNL d   1      57.437  -0.931  30.839  0.00  0.00     0.011 A 
ATOM     17  C   UNL d   1      57.064  -0.766  31.561  0.00  0.00     0.001 A 
ATOM     18  C   UNL d   1      56.681  -1.359  31.968  0.00  0.00     0.000 C 
ATOM     19  C   UNL d   1      57.084   0.006  31.862  0.00  0.00     0.000 A 
ATOM     20  C   UNL d   1      57.478   0.609  31.440  0.00  0.00     0.001 A 
ATOM     21  C   UNL d   1      57.845   0.436  30.725  0.00  0.00     0.011 A 
ENDBRANCH  12  15
ENDBRANCH  11  12
BRANCH  11  22
ATOM     22  C   UNL d   1      59.285   0.351  29.238  0.00  0.00     0.135 C 
ATOM     23  N   UNL d   1      59.541   0.680  28.455  0.00  0.00    -0.146 N 
ENDBRANCH  11  22
ENDBRANCH   1  11
BRANCH   2  24
ATOM     24  N   UNL d   1      60.566  -0.524  30.052  0.00  0.00    -0.288 N 
ATOM     25  C   UNL d   1      60.664  -0.414  30.875  0.00  0.00     0.082 A 
ATOM     26  C   UNL d   1      61.018   0.337  30.989  0.00  0.00     0.021 A 
ATOM     27  C   UNL d   1      61.133   0.682  30.238  0.00  0.00     0.021 A 
ATOM     28  C   UNL d   1      60.852   0.145  29.659  0.00  0.00     0.082 A 
ENDBRANCH   2  24
TORSDOF 5
ENDMDL
