MODEL 1
REMARK VINA RESULT:       1.7      0.000      0.000
REMARK  6 active torsions:
REMARK  status: ('A' for Active; 'I' for Inactive)
REMARK    1  A    between atoms: C_4  and  C_1 
REMARK    2  A    between atoms: N_7  and  C_2 
REMARK    3  A    between atoms: C_6  and  C_4 
REMARK    4  A    between atoms: C_8  and  C_4 
REMARK    5  A    between atoms: O_13  and  C_6 
REMARK    6  A    between atoms: C_19  and  O_13 
ROOT
ATOM      1  C   UNL d   1      58.617  -2.026  29.264  0.00  0.00     0.122 A 
ATOM      2  C   UNL d   1      59.442  -2.037  29.276  0.00  0.00     0.166 A 
ATOM      3  N   UNL d   1      59.845  -2.734  29.078  0.00  0.00    -0.225 NA
ATOM      4  N   UNL d   1      58.189  -2.704  29.057  0.00  0.00    -0.241 NA
ATOM      5  C   UNL d   1      59.421  -3.412  28.871  0.00  0.00     0.101 A 
ATOM      6  C   UNL d   1      58.590  -3.394  28.861  0.00  0.00     0.099 A 
ATOM      7  C   UNL d   1      59.823  -4.105  28.674  0.00  0.00     0.021 A 
ATOM      8  C   UNL d   1      58.171  -4.072  28.654  0.00  0.00     0.021 A 
ATOM      9  C   UNL d   1      58.573  -4.765  28.457  0.00  0.00     0.002 A 
ATOM     10  C   UNL d   1      59.395  -4.784  28.466  0.00  0.00     0.002 A 
ENDROOT
BRANCH   1  11
ATOM     11  C   UNL d   1      58.203  -1.329  29.462  0.00  0.00     0.105 C 
BRANCH  11  12
ATOM     12  C   UNL d   1      57.563  -1.351  29.980  0.00  0.00     0.303 C 
ATOM     13  O   UNL d   1      56.939  -1.873  29.838  0.00  0.00    -0.259 OA
BRANCH  12  14
ATOM     14  O   UNL d   1      57.545  -0.855  30.638  0.00  0.00    -0.273 OA
BRANCH  14  15
ATOM     15  C   UNL d   1      57.259  -0.685  31.391  0.00  0.00     0.103 A 
ATOM     16  C   UNL d   1      57.256   0.093  31.655  0.00  0.00     0.025 A 
ATOM     17  C   UNL d   1      56.972   0.262  32.404  0.00  0.00     0.002 A 
ATOM     18  C   UNL d   1      56.689  -0.334  32.896  0.00  0.00     0.000 A 
ATOM     19  C   UNL d   1      56.697  -1.114  32.619  0.00  0.00     0.002 A 
ATOM     20  C   UNL d   1      56.981  -1.288  31.869  0.00  0.00     0.025 A 
ENDBRANCH  14  15
ENDBRANCH  12  14
ENDBRANCH  11  12
BRANCH  11  21
ATOM     21  C   UNL d   1      58.438  -0.596  29.132  0.00  0.00     0.129 C 
ATOM     22  N   UNL d   1      57.825  -0.003  28.704  0.00  0.00    -0.146 N 
ENDBRANCH  11  21
ENDBRANCH   1  11
BRANCH   2  23
ATOM     23  N   UNL d   1      59.862  -1.359  29.484  0.00  0.00    -0.285 N 
ATOM     24  C   UNL d   1      60.104  -1.251  30.272  0.00  0.00     0.101 A 
ATOM     25  C   UNL d   1      60.523  -0.578  30.489  0.00  0.00     0.100 A 
ATOM     26  N   UNL d   1      60.704  -0.006  29.917  0.00  0.00    -0.299 N 
ATOM     27  C   UNL d   1      60.462  -0.114  29.129  0.00  0.00     0.100 A 
ATOM     28  C   UNL d   1      61.130   0.681  30.130  0.00  0.00     0.100 C 
ATOM     29  C   UNL d   1      60.040  -0.794  28.914  0.00  0.00     0.101 A 
ENDBRANCH   2  23
TORSDOF 6
ENDMDL
