MODEL 1
REMARK VINA RESULT:      53.5      0.000      0.000
REMARK  3 active torsions:
REMARK  status: ('A' for Active; 'I' for Inactive)
REMARK    1  A    between atoms: S_12  and  C_6 
REMARK    2  A    between atoms: C_10  and  C_14 
REMARK       I    between atoms: N_11  and  C_10 
REMARK    3  A    between atoms: C_14  and  S_12 
ROOT
ATOM      1  C   UNL d   1     -51.422  24.381  33.329  0.00  0.00     0.155 A 
ATOM      2  C   UNL d   1     -52.024  24.949  33.319  0.00  0.00     0.107 A 
ATOM      3  N   UNL d   1     -50.443  25.423  33.326  0.00  0.00    -0.250 N 
ATOM      4  C   UNL d   1     -50.636  24.615  33.332  0.00  0.00     0.285 A 
ATOM      5  N   UNL d   1     -51.832  25.756  33.312  0.00  0.00    -0.220 NA
ATOM      6  C   UNL d   1     -51.041  25.982  33.316  0.00  0.00     0.182 A 
ATOM      7  N   UNL d   1     -51.772  23.635  33.334  0.00  0.00    -0.239 NA
ATOM      8  C   UNL d   1     -52.748  24.560  33.317  0.00  0.00     0.037 A 
ATOM      9  C   UNL d   1     -52.595  23.740  33.326  0.00  0.00     0.083 A 
ATOM     10  O   UNL d   1     -50.026  24.052  33.343  0.00  0.00    -0.265 OA
ATOM     11  C   UNL d   1     -49.650  25.662  33.329  0.00  0.00     0.104 C 
ATOM     12  C   UNL d   1     -53.525  24.830  33.308  0.00  0.00     0.003 A 
ATOM     13  C   UNL d   1     -53.222  23.200  33.327  0.00  0.00     0.019 A 
ATOM     14  C   UNL d   1     -54.152  24.290  33.309  0.00  0.00     0.000 A 
ATOM     15  C   UNL d   1     -53.999  23.481  33.318  0.00  0.00     0.002 A 
ENDROOT
BRANCH   6  16
ATOM     16  S   UNL d   1     -50.847  26.786  33.309  0.00  0.00    -0.044 SA
BRANCH  16  17
ATOM     17  C   UNL d   1     -50.372  27.104  33.903  0.00  0.00     0.099 C 
BRANCH  17  18
ATOM     18  C   UNL d   1     -50.126  27.888  33.859  0.00  0.00     0.271 C 
ATOM     19  N   UNL d   1     -49.532  28.152  34.357  0.00  0.00    -0.272 N 
ATOM     20  C   UNL d   1     -49.278  28.934  34.322  0.00  0.00     0.083 A 
ATOM     21  C   UNL d   1     -49.185  27.633  34.897  0.00  0.00     0.083 A 
ATOM     22  C   UNL d   1     -48.687  29.195  34.819  0.00  0.00     0.019 A 
ATOM     23  C   UNL d   1     -48.336  28.689  35.358  0.00  0.00     0.003 A 
ATOM     24  C   UNL d   1     -48.584  27.903  35.400  0.00  0.00     0.019 A 
ATOM     25  O   UNL d   1     -50.466  28.408  33.325  0.00  0.00    -0.266 OA
ENDBRANCH  17  18
ENDBRANCH  16  17
ENDBRANCH   6  16
TORSDOF 3
ENDMDL
MODEL 2
REMARK VINA RESULT:      54.8      1.319      2.025
REMARK  3 active torsions:
REMARK  status: ('A' for Active; 'I' for Inactive)
REMARK    1  A    between atoms: S_12  and  C_6 
REMARK    2  A    between atoms: C_10  and  C_14 
REMARK       I    between atoms: N_11  and  C_10 
REMARK    3  A    between atoms: C_14  and  S_12 
ROOT
ATOM      1  C   UNL d   1     -51.658  25.919  33.322  0.00  0.00     0.155 A 
ATOM      2  C   UNL d   1     -50.933  25.518  33.339  0.00  0.00     0.107 A 
ATOM      3  N   UNL d   1     -50.964  27.168  33.340  0.00  0.00    -0.250 N 
ATOM      4  C   UNL d   1     -51.674  26.738  33.323  0.00  0.00     0.285 A 
ATOM      5  N   UNL d   1     -50.223  25.947  33.356  0.00  0.00    -0.220 NA
ATOM      6  C   UNL d   1     -50.249  26.769  33.357  0.00  0.00     0.182 A 
ATOM      7  N   UNL d   1     -52.261  25.357  33.307  0.00  0.00    -0.239 NA
ATOM      8  C   UNL d   1     -51.082  24.710  33.335  0.00  0.00     0.037 A 
ATOM      9  C   UNL d   1     -51.910  24.605  33.315  0.00  0.00     0.083 A 
ATOM     10  O   UNL d   1     -52.396  27.147  33.306  0.00  0.00    -0.265 OA
ATOM     11  C   UNL d   1     -50.979  27.997  33.340  0.00  0.00     0.104 C 
ATOM     12  C   UNL d   1     -50.587  24.053  33.346  0.00  0.00     0.003 A 
ATOM     13  C   UNL d   1     -52.232  23.843  33.307  0.00  0.00     0.019 A 
ATOM     14  C   UNL d   1     -50.910  23.291  33.338  0.00  0.00     0.000 A 
ATOM     15  C   UNL d   1     -51.728  23.190  33.318  0.00  0.00     0.002 A 
ENDROOT
BRANCH   6  16
ATOM     16  S   UNL d   1     -49.543  27.199  33.374  0.00  0.00    -0.044 SA
BRANCH  16  17
ATOM     17  C   UNL d   1     -49.370  27.690  34.014  0.00  0.00     0.099 C 
BRANCH  17  18
ATOM     18  C   UNL d   1     -48.646  27.626  34.398  0.00  0.00     0.271 C 
ATOM     19  N   UNL d   1     -48.337  28.279  34.784  0.00  0.00    -0.272 N 
ATOM     20  C   UNL d   1     -47.612  28.227  35.173  0.00  0.00     0.083 A 
ATOM     21  C   UNL d   1     -48.750  28.993  34.786  0.00  0.00     0.083 A 
ATOM     22  C   UNL d   1     -47.307  28.878  35.556  0.00  0.00     0.019 A 
ATOM     23  C   UNL d   1     -47.708  29.590  35.564  0.00  0.00     0.003 A 
ATOM     24  C   UNL d   1     -48.435  29.652  35.177  0.00  0.00     0.019 A 
ATOM     25  O   UNL d   1     -48.229  26.920  34.401  0.00  0.00    -0.266 OA
ENDBRANCH  17  18
ENDBRANCH  16  17
ENDBRANCH   6  16
TORSDOF 3
ENDMDL
