MODEL 1
REMARK VINA RESULT:      -3.3      0.000      0.000
REMARK  2 active torsions:
REMARK  status: ('A' for Active; 'I' for Inactive)
REMARK    1  A    between atoms: C_5  and  N_1 
REMARK    2  A    between atoms: C_7  and  C_5 
ROOT
ATOM      1  N   UNL d   1      30.129  17.134 -24.474  0.00  0.00    -0.288 N 
ATOM      2  C   UNL d   1      29.493  17.538 -24.798  0.00  0.00     0.183 A 
ATOM      3  N   UNL d   1      28.785  17.187 -24.490  0.00  0.00    -0.224 NA
ATOM      4  C   UNL d   1      29.858  16.555 -23.985  0.00  0.00     0.083 A 
ATOM      5  C   UNL d   1      29.004  16.588 -23.994  0.00  0.00     0.099 A 
ATOM      6  C   UNL d   1      30.243  15.991 -23.522  0.00  0.00     0.019 A 
ATOM      7  C   UNL d   1      28.594  16.033 -23.522  0.00  0.00     0.021 A 
ATOM      8  C   UNL d   1      29.804  15.459 -23.069  0.00  0.00     0.002 A 
ATOM      9  C   UNL d   1      28.980  15.491 -23.078  0.00  0.00     0.002 A 
ENDROOT
BRANCH   1  10
ATOM     10  C   UNL d   1      30.796  16.792 -24.203  0.00  0.00     0.066 C 
ATOM     11  C   UNL d   1      30.774  16.064 -23.814  0.00  0.00     0.019 C 
BRANCH  10  12
ATOM     12  C   UNL d   1      31.516  17.176 -24.316  0.00  0.00     0.016 A 
ATOM     13  C   UNL d   1      31.972  17.011 -24.983  0.00  0.00     0.001 A 
ATOM     14  C   UNL d   1      32.693  17.396 -25.097  0.00  0.00     0.000 A 
ATOM     15  C   UNL d   1      32.961  17.950 -24.541  0.00  0.00     0.000 A 
ATOM     16  C   UNL d   1      32.506  18.115 -23.873  0.00  0.00     0.000 A 
ATOM     17  C   UNL d   1      31.782  17.727 -23.761  0.00  0.00     0.001 A 
ENDBRANCH  10  12
ENDBRANCH   1  10
TORSDOF 2
ENDMDL
MODEL 2
REMARK VINA RESULT:      -3.1      1.129      3.348
REMARK  2 active torsions:
REMARK  status: ('A' for Active; 'I' for Inactive)
REMARK    1  A    between atoms: C_5  and  N_1 
REMARK    2  A    between atoms: C_7  and  C_5 
ROOT
ATOM      1  N   UNL d   1      31.291  15.961 -23.699  0.00  0.00    -0.288 N 
ATOM      2  C   UNL d   1      31.855  15.453 -23.387  0.00  0.00     0.183 A 
ATOM      3  N   UNL d   1      32.570  15.899 -23.287  0.00  0.00    -0.224 NA
ATOM      4  C   UNL d   1      31.614  16.692 -23.798  0.00  0.00     0.083 A 
ATOM      5  C   UNL d   1      32.426  16.653 -23.536  0.00  0.00     0.099 A 
ATOM      6  C   UNL d   1      31.307  17.401 -24.085  0.00  0.00     0.019 A 
ATOM      7  C   UNL d   1      32.879  17.355 -23.586  0.00  0.00     0.021 A 
ATOM      8  C   UNL d   1      31.785  18.074 -24.120  0.00  0.00     0.002 A 
ATOM      9  C   UNL d   1      32.569  18.036 -23.867  0.00  0.00     0.002 A 
ENDROOT
BRANCH   1  10
ATOM     10  C   UNL d   1      30.691  16.390 -24.001  0.00  0.00     0.066 C 
ATOM     11  C   UNL d   1      30.826  17.127 -24.348  0.00  0.00     0.019 C 
BRANCH  10  12
ATOM     12  C   UNL d   1      29.925  16.088 -23.963  0.00  0.00     0.016 A 
ATOM     13  C   UNL d   1      29.579  15.756 -24.634  0.00  0.00     0.001 A 
ATOM     14  C   UNL d   1      28.812  15.453 -24.595  0.00  0.00     0.000 A 
ATOM     15  C   UNL d   1      28.388  15.481 -23.883  0.00  0.00     0.000 A 
ATOM     16  C   UNL d   1      28.735  15.813 -23.212  0.00  0.00     0.000 A 
ATOM     17  C   UNL d   1      29.505  16.117 -23.253  0.00  0.00     0.001 A 
ENDBRANCH  10  12
ENDBRANCH   1  10
TORSDOF 2
ENDMDL
MODEL 3
REMARK VINA RESULT:      -2.9      1.724      3.642
REMARK  2 active torsions:
REMARK  status: ('A' for Active; 'I' for Inactive)
REMARK    1  A    between atoms: C_5  and  N_1 
REMARK    2  A    between atoms: C_7  and  C_5 
ROOT
ATOM      1  N   UNL d   1      32.618  18.039 -24.278  0.00  0.00    -0.288 N 
ATOM      2  C   UNL d   1      32.647  18.430 -24.999  0.00  0.00     0.183 A 
ATOM      3  N   UNL d   1      32.873  19.233 -24.842  0.00  0.00    -0.224 NA
ATOM      4  C   UNL d   1      32.811  18.551 -23.687  0.00  0.00     0.083 A 
ATOM      5  C   UNL d   1      32.973  19.309 -24.044  0.00  0.00     0.099 A 
ATOM      6  C   UNL d   1      32.869  18.460 -22.869  0.00  0.00     0.019 A 
ATOM      7  C   UNL d   1      33.187  19.935 -23.533  0.00  0.00     0.021 A 
ATOM      8  C   UNL d   1      33.084  19.101 -22.397  0.00  0.00     0.002 A 
ATOM      9  C   UNL d   1      33.240  19.833 -22.742  0.00  0.00     0.002 A 
ENDROOT
BRANCH   1  10
ATOM     10  C   UNL d   1      32.567  17.591 -23.620  0.00  0.00     0.066 C 
ATOM     11  C   UNL d   1      32.931  17.824 -22.917  0.00  0.00     0.019 C 
BRANCH  10  12
ATOM     12  C   UNL d   1      32.142  16.885 -23.650  0.00  0.00     0.016 A 
ATOM     13  C   UNL d   1      32.541  16.163 -23.649  0.00  0.00     0.001 A 
ATOM     14  C   UNL d   1      32.116  15.456 -23.679  0.00  0.00     0.000 A 
ATOM     15  C   UNL d   1      31.287  15.470 -23.710  0.00  0.00     0.000 A 
ATOM     16  C   UNL d   1      30.888  16.192 -23.711  0.00  0.00     0.000 A 
ATOM     17  C   UNL d   1      31.317  16.900 -23.681  0.00  0.00     0.001 A 
ENDBRANCH  10  12
ENDBRANCH   1  10
TORSDOF 2
ENDMDL
MODEL 4
REMARK VINA RESULT:      -2.5      1.821      2.797
REMARK  2 active torsions:
REMARK  status: ('A' for Active; 'I' for Inactive)
REMARK    1  A    between atoms: C_5  and  N_1 
REMARK    2  A    between atoms: C_7  and  C_5 
ROOT
ATOM      1  N   UNL d   1      31.960  17.856 -23.587  0.00  0.00    -0.288 N 
ATOM      2  C   UNL d   1      31.203  17.788 -23.898  0.00  0.00     0.183 A 
ATOM      3  N   UNL d   1      31.053  16.962 -24.020  0.00  0.00    -0.224 NA
ATOM      4  C   UNL d   1      32.286  17.124 -23.511  0.00  0.00     0.083 A 
ATOM      5  C   UNL d   1      31.710  16.556 -23.786  0.00  0.00     0.099 A 
ATOM      6  C   UNL d   1      33.019  16.867 -23.235  0.00  0.00     0.019 A 
ATOM      7  C   UNL d   1      31.926  15.748 -23.759  0.00  0.00     0.021 A 
ATOM      8  C   UNL d   1      33.197  16.061 -23.223  0.00  0.00     0.002 A 
ATOM      9  C   UNL d   1      32.641  15.513 -23.489  0.00  0.00     0.002 A 
ENDROOT
BRANCH   1  10
ATOM     10  C   UNL d   1      32.683  18.004 -23.285  0.00  0.00     0.066 C 
ATOM     11  C   UNL d   1      33.241  17.403 -23.201  0.00  0.00     0.019 C 
BRANCH  10  12
ATOM     12  C   UNL d   1      32.868  18.774 -23.054  0.00  0.00     0.016 A 
ATOM     13  C   UNL d   1      33.053  19.342 -23.622  0.00  0.00     0.001 A 
ATOM     14  C   UNL d   1      33.239  20.112 -23.391  0.00  0.00     0.000 A 
ATOM     15  C   UNL d   1      33.240  20.317 -22.587  0.00  0.00     0.000 A 
ATOM     16  C   UNL d   1      33.055  19.748 -22.019  0.00  0.00     0.000 A 
ATOM     17  C   UNL d   1      32.869  18.976 -22.253  0.00  0.00     0.001 A 
ENDBRANCH  10  12
ENDBRANCH   1  10
TORSDOF 2
ENDMDL
MODEL 5
REMARK VINA RESULT:      -1.2      0.757      1.324
REMARK  2 active torsions:
REMARK  status: ('A' for Active; 'I' for Inactive)
REMARK    1  A    between atoms: C_5  and  N_1 
REMARK    2  A    between atoms: C_7  and  C_5 
ROOT
ATOM      1  N   UNL d   1      30.764  16.321 -23.883  0.00  0.00    -0.288 N 
ATOM      2  C   UNL d   1      30.772  15.633 -23.436  0.00  0.00     0.183 A 
ATOM      3  N   UNL d   1      29.968  15.452 -23.233  0.00  0.00    -0.224 NA
ATOM      4  C   UNL d   1      30.005  16.576 -23.969  0.00  0.00     0.083 A 
ATOM      5  C   UNL d   1      29.499  16.025 -23.557  0.00  0.00     0.099 A 
ATOM      6  C   UNL d   1      29.677  17.225 -24.357  0.00  0.00     0.019 A 
ATOM      7  C   UNL d   1      28.677  16.177 -23.569  0.00  0.00     0.021 A 
ATOM      8  C   UNL d   1      28.860  17.343 -24.347  0.00  0.00     0.002 A 
ATOM      9  C   UNL d   1      28.372  16.810 -23.949  0.00  0.00     0.002 A 
ENDROOT
BRANCH   1  10
ATOM     10  C   UNL d   1      30.838  16.983 -24.321  0.00  0.00     0.066 C 
ATOM     11  C   UNL d   1      30.193  17.301 -24.725  0.00  0.00     0.019 C 
BRANCH  10  12
ATOM     12  C   UNL d   1      31.575  17.349 -24.368  0.00  0.00     0.016 A 
ATOM     13  C   UNL d   1      32.033  17.270 -25.049  0.00  0.00     0.001 A 
ATOM     14  C   UNL d   1      32.771  17.637 -25.097  0.00  0.00     0.000 A 
ATOM     15  C   UNL d   1      33.053  18.086 -24.460  0.00  0.00     0.000 A 
ATOM     16  C   UNL d   1      32.595  18.166 -23.778  0.00  0.00     0.000 A 
ATOM     17  C   UNL d   1      31.855  17.797 -23.734  0.00  0.00     0.001 A 
ENDBRANCH  10  12
ENDBRANCH   1  10
TORSDOF 2
ENDMDL
