MODEL 1
REMARK VINA RESULT:      -6.5      0.000      0.000
REMARK  3 active torsions:
REMARK  status: ('A' for Active; 'I' for Inactive)
REMARK    1  A    between atoms: N_4  and  C_2 
REMARK    2  A    between atoms: C_10  and  C_3 
REMARK       I    between atoms: C_7  and  N_4 
REMARK    3  A    between atoms: C_8  and  C_7 
ROOT
ATOM      1  N   UNL d   1     -46.945  12.837  22.623  0.00  0.00    -0.051 NA
ATOM      2  C   UNL d   1     -46.194  12.903  22.949  0.00  0.00     0.760 A 
ATOM      3  C   UNL d   1     -47.338  13.557  22.758  0.00  0.00     0.147 A 
ATOM      4  N   UNL d   1     -46.115  13.662  23.287  0.00  0.00    -0.019 NA
ATOM      5  S   UNL d   1     -46.824  14.054  23.163  0.00  0.00     0.052 SA
ENDROOT
BRANCH   2   6
ATOM      6  N   UNL d   1     -45.557  12.369  22.988  0.00  0.00    -0.018 NA
ATOM      7  C   UNL d   1     -45.650  11.628  23.338  0.00  0.00     0.301 C 
ATOM      8  O   UNL d   1     -46.387  11.413  23.655  0.00  0.00    -0.264 OA
BRANCH   7   9
ATOM      9  C   UNL d   1     -45.016  11.103  23.373  0.00  0.00     0.088 A 
ATOM     10  S   UNL d   1     -45.039  10.335  23.698  0.00  0.00    -0.082 SA
ATOM     11  C   UNL d   1     -44.280  10.002  23.617  0.00  0.00     0.036 A 
ATOM     12  C   UNL d   1     -43.797  10.559  23.248  0.00  0.00     0.008 A 
ATOM     13  C   UNL d   1     -44.251  11.234  23.099  0.00  0.00     0.012 A 
ENDBRANCH   7   9
ENDBRANCH   2   6
BRANCH   3  14
ATOM     14  C   UNL d   1     -48.107  13.727  22.520  0.00  0.00     0.026 A 
ATOM     15  C   UNL d   1     -48.642  14.055  23.069  0.00  0.00     0.002 A 
ATOM     16  C   UNL d   1     -49.419  14.228  22.832  0.00  0.00     0.000 A 
ATOM     17  C   UNL d   1     -49.657  14.075  22.059  0.00  0.00     0.000 A 
ATOM     18  C   UNL d   1     -49.133  13.751  21.511  0.00  0.00     0.000 A 
ATOM     19  C   UNL d   1     -48.359  13.576  21.739  0.00  0.00     0.002 A 
ENDBRANCH   3  14
TORSDOF 3
ENDMDL
MODEL 2
REMARK VINA RESULT:      -6.4      1.635      4.789
REMARK  3 active torsions:
REMARK  status: ('A' for Active; 'I' for Inactive)
REMARK    1  A    between atoms: N_4  and  C_2 
REMARK    2  A    between atoms: C_10  and  C_3 
REMARK       I    between atoms: C_7  and  N_4 
REMARK    3  A    between atoms: C_8  and  C_7 
ROOT
ATOM      1  N   UNL d   1     -47.597  13.186  23.313  0.00  0.00    -0.051 NA
ATOM      2  C   UNL d   1     -47.768  13.967  23.126  0.00  0.00     0.760 A 
ATOM      3  C   UNL d   1     -46.798  13.057  23.127  0.00  0.00     0.147 A 
ATOM      4  N   UNL d   1     -47.080  14.327  22.825  0.00  0.00    -0.019 NA
ATOM      5  S   UNL d   1     -46.490  13.759  22.830  0.00  0.00     0.052 SA
ENDROOT
BRANCH   2   6
ATOM      6  N   UNL d   1     -48.470  14.411  23.190  0.00  0.00    -0.018 NA
ATOM      7  C   UNL d   1     -49.125  14.230  22.724  0.00  0.00     0.301 C 
ATOM      8  O   UNL d   1     -49.086  13.599  22.185  0.00  0.00    -0.264 OA
BRANCH   7   9
ATOM      9  C   UNL d   1     -49.818  14.673  22.790  0.00  0.00     0.088 A 
ATOM     10  S   UNL d   1     -50.498  14.586  22.317  0.00  0.00    -0.082 SA
ATOM     11  C   UNL d   1     -51.061  15.142  22.574  0.00  0.00     0.036 A 
ATOM     12  C   UNL d   1     -50.729  15.567  23.199  0.00  0.00     0.008 A 
ATOM     13  C   UNL d   1     -49.966  15.277  23.330  0.00  0.00     0.012 A 
ENDBRANCH   7   9
ENDBRANCH   2   6
BRANCH   3  14
ATOM     14  C   UNL d   1     -46.398  12.344  23.228  0.00  0.00     0.026 A 
ATOM     15  C   UNL d   1     -45.614  12.273  22.953  0.00  0.00     0.002 A 
ATOM     16  C   UNL d   1     -45.208  11.555  23.054  0.00  0.00     0.000 A 
ATOM     17  C   UNL d   1     -45.579  10.920  23.423  0.00  0.00     0.000 A 
ATOM     18  C   UNL d   1     -46.354  10.985  23.698  0.00  0.00     0.000 A 
ATOM     19  C   UNL d   1     -46.764  11.695  23.601  0.00  0.00     0.002 A 
ENDBRANCH   3  14
TORSDOF 3
ENDMDL
MODEL 3
REMARK VINA RESULT:      -6.3      1.480      2.166
REMARK  3 active torsions:
REMARK  status: ('A' for Active; 'I' for Inactive)
REMARK    1  A    between atoms: N_4  and  C_2 
REMARK    2  A    between atoms: C_10  and  C_3 
REMARK       I    between atoms: C_7  and  N_4 
REMARK    3  A    between atoms: C_8  and  C_7 
ROOT
ATOM      1  N   UNL d   1     -48.410  14.120  23.230  0.00  0.00    -0.051 NA
ATOM      2  C   UNL d   1     -47.631  14.070  22.976  0.00  0.00     0.760 A 
ATOM      3  C   UNL d   1     -48.732  14.813  22.904  0.00  0.00     0.147 A 
ATOM      4  N   UNL d   1     -47.464  14.728  22.493  0.00  0.00    -0.019 NA
ATOM      5  S   UNL d   1     -48.148  15.178  22.455  0.00  0.00     0.052 SA
ENDROOT
BRANCH   2   6
ATOM      6  N   UNL d   1     -47.036  13.505  23.120  0.00  0.00    -0.018 NA
ATOM      7  C   UNL d   1     -47.212  12.700  23.117  0.00  0.00     0.301 C 
ATOM      8  O   UNL d   1     -47.990  12.449  22.968  0.00  0.00    -0.264 OA
BRANCH   7   9
ATOM      9  C   UNL d   1     -46.620  12.144  23.260  0.00  0.00     0.088 A 
ATOM     10  S   UNL d   1     -45.826  12.206  23.014  0.00  0.00    -0.082 SA
ATOM     11  C   UNL d   1     -45.425  11.525  23.276  0.00  0.00     0.036 A 
ATOM     12  C   UNL d   1     -45.966  11.051  23.677  0.00  0.00     0.008 A 
ATOM     13  C   UNL d   1     -46.700  11.433  23.667  0.00  0.00     0.012 A 
ENDBRANCH   7   9
ENDBRANCH   2   6
BRANCH   3  14
ATOM     14  C   UNL d   1     -49.504  15.075  23.019  0.00  0.00     0.026 A 
ATOM     15  C   UNL d   1     -50.121  14.743  22.566  0.00  0.00     0.002 A 
ATOM     16  C   UNL d   1     -50.901  15.005  22.680  0.00  0.00     0.000 A 
ATOM     17  C   UNL d   1     -51.061  15.590  23.238  0.00  0.00     0.000 A 
ATOM     18  C   UNL d   1     -50.456  15.922  23.689  0.00  0.00     0.000 A 
ATOM     19  C   UNL d   1     -49.678  15.666  23.581  0.00  0.00     0.002 A 
ENDBRANCH   3  14
TORSDOF 3
ENDMDL
MODEL 4
REMARK VINA RESULT:      -6.1      1.659      4.549
REMARK  3 active torsions:
REMARK  status: ('A' for Active; 'I' for Inactive)
REMARK    1  A    between atoms: N_4  and  C_2 
REMARK    2  A    between atoms: C_10  and  C_3 
REMARK       I    between atoms: C_7  and  N_4 
REMARK    3  A    between atoms: C_8  and  C_7 
ROOT
ATOM      1  N   UNL d   1     -47.140  12.947  22.526  0.00  0.00    -0.051 NA
ATOM      2  C   UNL d   1     -47.715  13.497  22.728  0.00  0.00     0.760 A 
ATOM      3  C   UNL d   1     -46.400  13.304  22.654  0.00  0.00     0.147 A 
ATOM      4  N   UNL d   1     -47.339  14.197  22.982  0.00  0.00    -0.019 NA
ATOM      5  S   UNL d   1     -46.532  14.066  22.933  0.00  0.00     0.052 SA
ENDROOT
BRANCH   2   6
ATOM      6  N   UNL d   1     -48.547  13.459  22.717  0.00  0.00    -0.018 NA
ATOM      7  C   UNL d   1     -48.949  13.272  22.022  0.00  0.00     0.301 C 
ATOM      8  O   UNL d   1     -48.521  13.118  21.327  0.00  0.00    -0.264 OA
BRANCH   7   9
ATOM      9  C   UNL d   1     -49.772  13.236  22.015  0.00  0.00     0.088 A 
ATOM     10  S   UNL d   1     -50.281  13.802  21.676  0.00  0.00    -0.082 SA
ATOM     11  C   UNL d   1     -51.064  13.546  21.796  0.00  0.00     0.036 A 
ATOM     12  C   UNL d   1     -51.036  12.830  22.204  0.00  0.00     0.008 A 
ATOM     13  C   UNL d   1     -50.242  12.641  22.338  0.00  0.00     0.012 A 
ENDBRANCH   7   9
ENDBRANCH   2   6
BRANCH   3  14
ATOM     14  C   UNL d   1     -45.672  12.943  22.521  0.00  0.00     0.026 A 
ATOM     15  C   UNL d   1     -45.121  13.311  22.014  0.00  0.00     0.002 A 
ATOM     16  C   UNL d   1     -44.385  12.950  21.878  0.00  0.00     0.000 A 
ATOM     17  C   UNL d   1     -44.205  12.234  22.241  0.00  0.00     0.000 A 
ATOM     18  C   UNL d   1     -44.745  11.865  22.742  0.00  0.00     0.000 A 
ATOM     19  C   UNL d   1     -45.479  12.218  22.883  0.00  0.00     0.002 A 
ENDBRANCH   3  14
TORSDOF 3
ENDMDL
MODEL 5
REMARK VINA RESULT:      -5.8      1.299      4.618
REMARK  3 active torsions:
REMARK  status: ('A' for Active; 'I' for Inactive)
REMARK    1  A    between atoms: N_4  and  C_2 
REMARK    2  A    between atoms: C_10  and  C_3 
REMARK       I    between atoms: C_7  and  N_4 
REMARK    3  A    between atoms: C_8  and  C_7 
ROOT
ATOM      1  N   UNL d   1     -46.483  12.404  23.239  0.00  0.00    -0.051 NA
ATOM      2  C   UNL d   1     -47.283  12.542  23.357  0.00  0.00     0.760 A 
ATOM      3  C   UNL d   1     -46.336  11.612  23.445  0.00  0.00     0.147 A 
ATOM      4  N   UNL d   1     -47.638  11.841  23.636  0.00  0.00    -0.019 NA
ATOM      5  S   UNL d   1     -47.047  11.277  23.686  0.00  0.00     0.052 SA
ENDROOT
BRANCH   2   6
ATOM      6  N   UNL d   1     -47.750  13.223  23.247  0.00  0.00    -0.018 NA
ATOM      7  C   UNL d   1     -47.960  13.471  22.490  0.00  0.00     0.301 C 
ATOM      8  O   UNL d   1     -47.703  13.038  21.829  0.00  0.00    -0.264 OA
BRANCH   7   9
ATOM      9  C   UNL d   1     -48.422  14.145  22.386  0.00  0.00     0.088 A 
ATOM     10  S   UNL d   1     -49.248  14.156  22.269  0.00  0.00    -0.082 SA
ATOM     11  C   UNL d   1     -49.484  14.950  22.190  0.00  0.00     0.036 A 
ATOM     12  C   UNL d   1     -48.811  15.422  22.259  0.00  0.00     0.008 A 
ATOM     13  C   UNL d   1     -48.160  14.926  22.379  0.00  0.00     0.012 A 
ENDBRANCH   7   9
ENDBRANCH   2   6
BRANCH   3  14
ATOM     14  C   UNL d   1     -45.601  11.243  23.409  0.00  0.00     0.026 A 
ATOM     15  C   UNL d   1     -44.954  11.652  23.077  0.00  0.00     0.002 A 
ATOM     16  C   UNL d   1     -44.211  11.282  23.039  0.00  0.00     0.000 A 
ATOM     17  C   UNL d   1     -44.117  10.517  23.327  0.00  0.00     0.000 A 
ATOM     18  C   UNL d   1     -44.752  10.107  23.656  0.00  0.00     0.000 A 
ATOM     19  C   UNL d   1     -45.494  10.468  23.697  0.00  0.00     0.002 A 
ENDBRANCH   3  14
TORSDOF 3
ENDMDL
MODEL 6
REMARK VINA RESULT:      -5.8      1.686      2.119
REMARK  3 active torsions:
REMARK  status: ('A' for Active; 'I' for Inactive)
REMARK    1  A    between atoms: N_4  and  C_2 
REMARK    2  A    between atoms: C_10  and  C_3 
REMARK       I    between atoms: C_7  and  N_4 
REMARK    3  A    between atoms: C_8  and  C_7 
ROOT
ATOM      1  N   UNL d   1     -48.714  12.565  22.941  0.00  0.00    -0.051 NA
ATOM      2  C   UNL d   1     -48.440  11.857  23.253  0.00  0.00     0.760 A 
ATOM      3  C   UNL d   1     -49.517  12.630  23.145  0.00  0.00     0.147 A 
ATOM      4  N   UNL d   1     -49.068  11.478  23.651  0.00  0.00    -0.019 NA
ATOM      5  S   UNL d   1     -49.724  11.963  23.578  0.00  0.00     0.052 SA
ENDROOT
BRANCH   2   6
ATOM      6  N   UNL d   1     -47.691  11.494  23.231  0.00  0.00    -0.018 NA
ATOM      7  C   UNL d   1     -47.015  11.912  23.452  0.00  0.00     0.301 C 
ATOM      8  O   UNL d   1     -47.082  12.703  23.698  0.00  0.00    -0.264 OA
BRANCH   7   9
ATOM      9  C   UNL d   1     -46.276  11.549  23.428  0.00  0.00     0.088 A 
ATOM     10  S   UNL d   1     -46.103  10.779  23.697  0.00  0.00    -0.082 SA
ATOM     11  C   UNL d   1     -45.292  10.640  23.568  0.00  0.00     0.036 A 
ATOM     12  C   UNL d   1     -44.971  11.316  23.224  0.00  0.00     0.008 A 
ATOM     13  C   UNL d   1     -45.576  11.874  23.139  0.00  0.00     0.012 A 
ENDBRANCH   7   9
ENDBRANCH   2   6
BRANCH   3  14
ATOM     14  C   UNL d   1     -50.007  13.260  22.941  0.00  0.00     0.026 A 
ATOM     15  C   UNL d   1     -50.494  13.197  22.267  0.00  0.00     0.002 A 
ATOM     16  C   UNL d   1     -50.989  13.830  22.058  0.00  0.00     0.000 A 
ATOM     17  C   UNL d   1     -50.996  14.515  22.515  0.00  0.00     0.000 A 
ATOM     18  C   UNL d   1     -50.517  14.584  23.182  0.00  0.00     0.000 A 
ATOM     19  C   UNL d   1     -50.022  13.958  23.396  0.00  0.00     0.002 A 
ENDBRANCH   3  14
TORSDOF 3
ENDMDL
MODEL 7
REMARK VINA RESULT:      -5.7      1.665      2.175
REMARK  3 active torsions:
REMARK  status: ('A' for Active; 'I' for Inactive)
REMARK    1  A    between atoms: N_4  and  C_2 
REMARK    2  A    between atoms: C_10  and  C_3 
REMARK       I    between atoms: C_7  and  N_4 
REMARK    3  A    between atoms: C_8  and  C_7 
ROOT
ATOM      1  N   UNL d   1     -48.240  12.846  22.683  0.00  0.00    -0.051 NA
ATOM      2  C   UNL d   1     -47.637  13.384  22.535  0.00  0.00     0.760 A 
ATOM      3  C   UNL d   1     -48.892  13.277  22.964  0.00  0.00     0.147 A 
ATOM      4  N   UNL d   1     -47.909  14.150  22.724  0.00  0.00    -0.019 NA
ATOM      5  S   UNL d   1     -48.681  14.071  22.986  0.00  0.00     0.052 SA
ENDROOT
BRANCH   2   6
ATOM      6  N   UNL d   1     -46.861  13.283  22.250  0.00  0.00    -0.018 NA
ATOM      7  C   UNL d   1     -46.268  12.989  22.741  0.00  0.00     0.301 C 
ATOM      8  O   UNL d   1     -46.446  12.792  23.529  0.00  0.00    -0.264 OA
BRANCH   7   9
ATOM      9  C   UNL d   1     -45.502  12.891  22.455  0.00  0.00     0.088 A 
ATOM     10  S   UNL d   1     -45.005  12.238  22.606  0.00  0.00    -0.082 SA
ATOM     11  C   UNL d   1     -44.285  12.369  22.209  0.00  0.00     0.036 A 
ATOM     12  C   UNL d   1     -44.338  13.093  21.819  0.00  0.00     0.008 A 
ATOM     13  C   UNL d   1     -45.086  13.413  21.971  0.00  0.00     0.012 A 
ENDBRANCH   7   9
ENDBRANCH   2   6
BRANCH   3  14
ATOM     14  C   UNL d   1     -49.616  12.951  23.180  0.00  0.00     0.026 A 
ATOM     15  C   UNL d   1     -49.641  12.172  23.480  0.00  0.00     0.002 A 
ATOM     16  C   UNL d   1     -50.370  11.840  23.698  0.00  0.00     0.000 A 
ATOM     17  C   UNL d   1     -51.063  12.278  23.618  0.00  0.00     0.000 A 
ATOM     18  C   UNL d   1     -51.045  13.048  23.323  0.00  0.00     0.000 A 
ATOM     19  C   UNL d   1     -50.324  13.385  23.104  0.00  0.00     0.002 A 
ENDBRANCH   3  14
TORSDOF 3
ENDMDL
MODEL 8
REMARK VINA RESULT:      -5.6      7.542      8.839
REMARK  3 active torsions:
REMARK  status: ('A' for Active; 'I' for Inactive)
REMARK    1  A    between atoms: N_4  and  C_2 
REMARK    2  A    between atoms: C_10  and  C_3 
REMARK       I    between atoms: C_7  and  N_4 
REMARK    3  A    between atoms: C_8  and  C_7 
ROOT
ATOM      1  N   UNL d   1     -39.492  14.612  20.097  0.00  0.00    -0.051 NA
ATOM      2  C   UNL d   1     -40.171  14.951  19.785  0.00  0.00     0.760 A 
ATOM      3  C   UNL d   1     -39.686  14.319  20.851  0.00  0.00     0.147 A 
ATOM      4  N   UNL d   1     -40.789  14.873  20.339  0.00  0.00    -0.019 NA
ATOM      5  S   UNL d   1     -40.480  14.484  20.989  0.00  0.00     0.052 SA
ENDROOT
BRANCH   2   6
ATOM      6  N   UNL d   1     -40.317  15.330  19.057  0.00  0.00    -0.018 NA
ATOM      7  C   UNL d   1     -40.499  14.889  18.384  0.00  0.00     0.301 C 
ATOM      8  O   UNL d   1     -40.537  14.061  18.432  0.00  0.00    -0.264 OA
BRANCH   7   9
ATOM      9  C   UNL d   1     -40.643  15.268  17.666  0.00  0.00     0.088 A 
ATOM     10  S   UNL d   1     -40.076  15.421  17.075  0.00  0.00    -0.082 SA
ATOM     11  C   UNL d   1     -40.461  15.812  16.448  0.00  0.00     0.036 A 
ATOM     12  C   UNL d   1     -41.255  15.897  16.653  0.00  0.00     0.008 A 
ATOM     13  C   UNL d   1     -41.365  15.563  17.401  0.00  0.00     0.012 A 
ENDBRANCH   7   9
ENDBRANCH   2   6
BRANCH   3  14
ATOM     14  C   UNL d   1     -39.164  13.935  21.358  0.00  0.00     0.026 A 
ATOM     15  C   UNL d   1     -39.340  13.894  22.172  0.00  0.00     0.002 A 
ATOM     16  C   UNL d   1     -38.815  13.507  22.686  0.00  0.00     0.000 A 
ATOM     17  C   UNL d   1     -38.126  13.167  22.391  0.00  0.00     0.000 A 
ATOM     18  C   UNL d   1     -37.946  13.203  21.587  0.00  0.00     0.000 A 
ATOM     19  C   UNL d   1     -38.463  13.587  21.070  0.00  0.00     0.002 A 
ENDBRANCH   3  14
TORSDOF 3
ENDMDL
MODEL 9
REMARK VINA RESULT:      -5.4      8.296      9.325
REMARK  3 active torsions:
REMARK  status: ('A' for Active; 'I' for Inactive)
REMARK    1  A    between atoms: N_4  and  C_2 
REMARK    2  A    between atoms: C_10  and  C_3 
REMARK       I    between atoms: C_7  and  N_4 
REMARK    3  A    between atoms: C_8  and  C_7 
ROOT
ATOM      1  N   UNL d   1     -39.673  15.007  18.528  0.00  0.00    -0.051 NA
ATOM      2  C   UNL d   1     -39.886  14.566  17.868  0.00  0.00     0.760 A 
ATOM      3  C   UNL d   1     -40.229  14.843  19.124  0.00  0.00     0.147 A 
ATOM      4  N   UNL d   1     -40.572  14.128  18.048  0.00  0.00    -0.019 NA
ATOM      5  S   UNL d   1     -40.773  14.306  18.822  0.00  0.00     0.052 SA
ENDROOT
BRANCH   2   6
ATOM      6  N   UNL d   1     -39.544  14.501  17.111  0.00  0.00    -0.018 NA
ATOM      7  C   UNL d   1     -38.800  14.158  17.015  0.00  0.00     0.301 C 
ATOM      8  O   UNL d   1     -38.387  13.876  17.678  0.00  0.00    -0.264 OA
BRANCH   7   9
ATOM      9  C   UNL d   1     -38.466  14.095  16.264  0.00  0.00     0.088 A 
ATOM     10  S   UNL d   1     -38.283  14.732  15.758  0.00  0.00    -0.082 SA
ATOM     11  C   UNL d   1     -37.956  14.417  15.060  0.00  0.00     0.036 A 
ATOM     12  C   UNL d   1     -37.940  13.597  15.136  0.00  0.00     0.008 A 
ATOM     13  C   UNL d   1     -38.253  13.400  15.876  0.00  0.00     0.012 A 
ENDBRANCH   7   9
ENDBRANCH   2   6
BRANCH   3  14
ATOM     14  C   UNL d   1     -40.221  15.170  19.879  0.00  0.00     0.026 A 
ATOM     15  C   UNL d   1     -40.890  15.589  20.150  0.00  0.00     0.002 A 
ATOM     16  C   UNL d   1     -40.885  15.920  20.911  0.00  0.00     0.000 A 
ATOM     17  C   UNL d   1     -40.224  15.834  21.394  0.00  0.00     0.000 A 
ATOM     18  C   UNL d   1     -39.560  15.421  21.132  0.00  0.00     0.000 A 
ATOM     19  C   UNL d   1     -39.557  15.089  20.376  0.00  0.00     0.002 A 
ENDBRANCH   3  14
TORSDOF 3
ENDMDL
