MODEL 1
REMARK VINA RESULT:      76.4      0.000      0.000
REMARK  3 active torsions:
REMARK  status: ('A' for Active; 'I' for Inactive)
REMARK    1  A    between atoms: C_4  and  C_1 
REMARK       I    between atoms: N_6  and  C_4 
REMARK    2  A    between atoms: C_8  and  C_5 
REMARK    3  A    between atoms: C_7  and  N_6 
ROOT
ATOM      1  C   UNL d   1     -49.168  28.056  34.059  0.00  0.00     0.192 A 
ATOM      2  C   UNL d   1     -48.360  27.963  35.248  0.00  0.00     0.296 A 
ATOM      3  O   UNL d   1     -48.824  27.595  34.665  0.00  0.00    -0.290 OA
ATOM      4  C   UNL d   1     -48.236  28.781  35.234  0.00  0.00     0.063 A 
ATOM      5  C   UNL d   1     -48.584  29.235  34.625  0.00  0.00     0.004 A 
ATOM      6  C   UNL d   1     -49.047  28.877  34.041  0.00  0.00     0.010 A 
ATOM      7  O   UNL d   1     -48.021  27.509  35.843  0.00  0.00    -0.259 OA
ATOM      8  C   UNL d   1     -49.504  28.516  33.467  0.00  0.00     0.045 C 
ATOM      9  C   UNL d   1     -48.460  30.054  34.611  0.00  0.00    -0.000 A 
ATOM     10  C   UNL d   1     -47.779  29.142  35.808  0.00  0.00     0.005 A 
ATOM     11  C   UNL d   1     -47.998  30.407  35.195  0.00  0.00    -0.000 A 
ATOM     12  C   UNL d   1     -47.659  29.953  35.791  0.00  0.00     0.000 A 
ENDROOT
BRANCH   1  13
ATOM     13  C   UNL d   1     -49.402  27.289  33.901  0.00  0.00     0.285 C 
ATOM     14  N   UNL d   1     -50.201  27.118  33.791  0.00  0.00    -0.209 NA
ATOM     15  O   UNL d   1     -48.837  26.689  33.853  0.00  0.00    -0.267 OA
BRANCH  14  16
ATOM     16  C   UNL d   1     -50.432  26.343  33.632  0.00  0.00     0.090 A 
ATOM     17  C   UNL d   1     -51.217  26.178  33.479  0.00  0.00     0.082 A 
ATOM     18  C   UNL d   1     -51.451  25.403  33.319  0.00  0.00     0.008 A 
ATOM     19  C   UNL d   1     -50.892  24.797  33.315  0.00  0.00     0.000 A 
ATOM     20  C   UNL d   1     -50.099  24.969  33.471  0.00  0.00     0.002 A 
ATOM     21  C   UNL d   1     -49.876  25.744  33.628  0.00  0.00     0.019 A 
BRANCH  17  22
ATOM     22  C   UNL d   1     -51.776  26.789  33.484  0.00  0.00     0.212 C 
ATOM     23  O   UNL d   1     -51.539  27.561  33.307  0.00  0.00    -0.644 OA
ATOM     24  O   UNL d   1     -52.556  26.626  33.663  0.00  0.00    -0.644 OA
ENDBRANCH  17  22
ENDBRANCH  14  16
ENDBRANCH   1  13
TORSDOF 3
ENDMDL
