MODEL 1
REMARK VINA RESULT:      36.3      0.000      0.000
REMARK  5 active torsions:
REMARK  status: ('A' for Active; 'I' for Inactive)
REMARK    1  A    between atoms: N_5  and  C_3 
REMARK    2  A    between atoms: O_13  and  C_4 
REMARK       I    between atoms: C_6  and  N_5 
REMARK    3  A    between atoms: C_9  and  C_6 
REMARK    4  A    between atoms: O_14  and  C_7 
REMARK    5  A    between atoms: O_18  and  C_15 
ROOT
ATOM      1  N   UNL d   1      58.542  49.608  51.015  0.00  0.00    -0.189 NA
ATOM      2  C   UNL d   1      58.937  49.632  51.749  0.00  0.00     0.281 C 
ATOM      3  O   UNL d   1      58.494  49.655  52.465  0.00  0.00    -0.265 OA
ENDROOT
BRANCH   1   4
ATOM      4  C   UNL d   1      57.716  49.606  50.995  0.00  0.00     0.173 A 
ATOM      5  N   UNL d   1      57.278  49.655  51.701  0.00  0.00    -0.186 NA
ATOM      6  C   UNL d   1      56.457  49.653  51.673  0.00  0.00     0.273 A 
ATOM      7  N   UNL d   1      56.078  49.601  50.930  0.00  0.00    -0.181 NA
ATOM      8  C   UNL d   1      56.496  49.553  50.257  0.00  0.00     0.185 A 
ATOM      9  C   UNL d   1      57.328  49.554  50.267  0.00  0.00     0.083 A 
BRANCH   6  10
ATOM     10  O   UNL d   1      56.035  49.701  52.355  0.00  0.00    -0.297 OA
ATOM     11  C   UNL d   1      56.163  49.177  52.962  0.00  0.00     0.185 C 
ENDBRANCH   6  10
BRANCH   8  12
ATOM     12  O   UNL d   1      56.088  49.502  49.531  0.00  0.00    -0.312 OA
ATOM     13  C   UNL d   1      56.529  49.337  48.841  0.00  0.00     0.183 C 
ENDBRANCH   8  12
ENDBRANCH   1   4
BRANCH   2  14
ATOM     14  C   UNL d   1      59.761  49.633  51.755  0.00  0.00     0.058 A 
ATOM     15  C   UNL d   1      60.193  49.693  51.052  0.00  0.00     0.007 A 
ATOM     16  C   UNL d   1      60.986  49.694  51.057  0.00  0.00     0.024 A 
ATOM     17  C   UNL d   1      61.416  49.636  51.775  0.00  0.00     0.094 A 
ATOM     18  C   UNL d   1      60.994  49.576  52.481  0.00  0.00     0.024 A 
ATOM     19  C   UNL d   1      60.172  49.577  52.452  0.00  0.00     0.007 A 
BRANCH  17  20
ATOM     20  O   UNL d   1      62.230  49.636  51.789  0.00  0.00    -0.328 OA
ATOM     21  C   UNL d   1      62.625  49.560  52.490  0.00  0.00     0.181 C 
ENDBRANCH  17  20
ENDBRANCH   2  14
TORSDOF 5
ENDMDL
