MODEL 1
REMARK VINA RESULT:      65.9      0.000      0.000
REMARK  9 active torsions:
REMARK  status: ('A' for Active; 'I' for Inactive)
REMARK    1  A    between atoms: C_10  and  N_1 
REMARK    2  A    between atoms: S_13  and  C_2 
REMARK    3  A    between atoms: C_6  and  N_11 
REMARK    4  A    between atoms: C_24  and  C_10 
REMARK       I    between atoms: N_11  and  C_15 
REMARK    5  A    between atoms: C_21  and  S_13 
REMARK    6  A    between atoms: C_15  and  C_21 
REMARK    7  A    between atoms: O_27  and  C_17 
REMARK    8  A    between atoms: O_28  and  C_18 
REMARK    9  A    between atoms: C_23  and  C_24 
ROOT
ATOM      1  N   UNL d   1      13.426  13.691  -3.653  0.00  0.00    -0.253 N 
ATOM      2  C   UNL d   1      13.144  12.984  -3.357  0.00  0.00     0.182 A 
ATOM      3  C   UNL d   1      13.575  13.778  -4.466  0.00  0.00     0.268 A 
ATOM      4  N   UNL d   1      13.004  12.346  -3.867  0.00  0.00    -0.222 NA
ATOM      5  C   UNL d   1      13.434  13.135  -4.971  0.00  0.00     0.074 A 
ATOM      6  C   UNL d   1      13.152  12.429  -4.676  0.00  0.00     0.088 A 
ATOM      7  O   UNL d   1      13.856  14.482  -4.761  0.00  0.00    -0.267 OA
ATOM      8  C   UNL d   1      13.583  13.221  -5.789  0.00  0.00     0.006 A 
ATOM      9  C   UNL d   1      13.013  11.789  -5.189  0.00  0.00     0.019 A 
ATOM     10  C   UNL d   1      13.442  12.581  -6.288  0.00  0.00     0.000 A 
ATOM     11  C   UNL d   1      13.160  11.874  -5.993  0.00  0.00     0.002 A 
ENDROOT
BRANCH   1  12
ATOM     12  C   UNL d   1      13.567  14.337  -3.139  0.00  0.00     0.085 C 
BRANCH  12  13
ATOM     13  C   UNL d   1      13.943  15.017  -3.420  0.00  0.00     0.019 C 
BRANCH  13  14
ATOM     14  C   UNL d   1      14.339  15.516  -2.895  0.00  0.00     0.004 A 
ATOM     15  C   UNL d   1      14.732  16.185  -3.178  0.00  0.00     0.026 A 
ATOM     16  C   UNL d   1      15.125  16.682  -2.662  0.00  0.00     0.116 A 
ATOM     17  C   UNL d   1      15.132  16.513  -1.847  0.00  0.00     0.116 A 
ATOM     18  C   UNL d   1      14.734  15.837  -1.570  0.00  0.00     0.026 A 
ATOM     19  C   UNL d   1      14.341  15.343  -2.096  0.00  0.00     0.002 A 
BRANCH  16  20
ATOM     20  O   UNL d   1      15.516  17.348  -2.944  0.00  0.00    -0.326 OA
ATOM     21  C   UNL d   1      15.321  17.661  -3.672  0.00  0.00     0.181 C 
ENDBRANCH  16  20
BRANCH  17  22
ATOM     22  O   UNL d   1      15.521  17.002  -1.328  0.00  0.00    -0.326 OA
ATOM     23  C   UNL d   1      15.749  16.734  -0.581  0.00  0.00     0.181 C 
ENDBRANCH  17  22
ENDBRANCH  13  14
ENDBRANCH  12  13
ENDBRANCH   1  12
BRANCH   2  24
ATOM     24  S   UNL d   1      12.993  12.897  -2.537  0.00  0.00    -0.044 SA
BRANCH  24  25
ATOM     25  C   UNL d   1      13.223  12.207  -2.138  0.00  0.00     0.101 C 
BRANCH  25  26
ATOM     26  C   UNL d   1      13.783  12.252  -1.537  0.00  0.00     0.287 C 
ATOM     27  N   UNL d   1      14.576  12.291  -1.716  0.00  0.00    -0.186 NA
ATOM     28  O   UNL d   1      13.536  12.257  -0.749  0.00  0.00    -0.265 OA
BRANCH  27  29
ATOM     29  C   UNL d   1      15.135  12.335  -1.115  0.00  0.00     0.194 A 
ATOM     30  N   UNL d   1      15.254  11.783  -0.508  0.00  0.00    -0.107 NA
ATOM     31  O   UNL d   1      15.868  12.046  -0.031  0.00  0.00    -0.210 OA
ATOM     32  C   UNL d   1      16.141  12.765  -0.331  0.00  0.00     0.128 A 
ATOM     33  C   UNL d   1      15.689  12.942  -0.998  0.00  0.00     0.068 A 
ATOM     34  C   UNL d   1      16.748  13.216  -0.020  0.00  0.00     0.029 C 
ENDBRANCH  27  29
ENDBRANCH  25  26
ENDBRANCH  24  25
ENDBRANCH   2  24
TORSDOF 9
ENDMDL
