MODEL 1
REMARK VINA RESULT:      -6.4      0.000      0.000
REMARK  2 active torsions:
REMARK  status: ('A' for Active; 'I' for Inactive)
REMARK    1  A    between atoms: C_4  and  N_1 
REMARK    2  A    between atoms: C_7  and  C_9 
ROOT
ATOM      1  C   UNL d   1     -41.487-122.664 -52.958  0.00  0.00     0.070 A 
ATOM      2  C   UNL d   1     -41.857-122.161 -53.503  0.00  0.00     0.024 A 
ATOM      3  C   UNL d   1     -41.878-122.360 -54.296  0.00  0.00     0.066 A 
ATOM      4  C   UNL d   1     -41.139-123.366 -53.206  0.00  0.00     0.018 A 
ATOM      5  C   UNL d   1     -41.528-123.069 -54.550  0.00  0.00     0.006 A 
ATOM      6  C   UNL d   1     -41.157-123.572 -54.005  0.00  0.00     0.002 A 
ENDROOT
BRANCH   1   7
ATOM      7  N   UNL d   1     -41.463-122.466 -52.158  0.00  0.00    -0.242 N 
ATOM      8  C   UNL d   1     -41.603-122.990 -51.524  0.00  0.00     0.267 A 
ATOM      9  C   UNL d   1     -41.525-122.570 -50.819  0.00  0.00     0.066 A 
ATOM     10  O   UNL d   1     -41.790-123.795 -51.554  0.00  0.00    -0.267 OA
ATOM     11  C   UNL d   1     -41.337-121.786 -51.010  0.00  0.00     0.066 A 
ATOM     12  C   UNL d   1     -41.300-121.724 -51.827  0.00  0.00     0.267 A 
ATOM     13  O   UNL d   1     -41.123-121.008 -52.213  0.00  0.00    -0.267 OA
ENDBRANCH   1   7
BRANCH   3  14
ATOM     14  C   UNL d   1     -42.241-121.871 -54.846  0.00  0.00     0.211 C 
ATOM     15  O   UNL d   1     -43.045-121.717 -54.804  0.00  0.00    -0.644 OA
ATOM     16  O   UNL d   1     -41.783-121.532 -55.449  0.00  0.00    -0.644 OA
ENDBRANCH   3  14
TORSDOF 2
ENDMDL
MODEL 2
REMARK VINA RESULT:      -5.6      1.544      2.631
REMARK  2 active torsions:
REMARK  status: ('A' for Active; 'I' for Inactive)
REMARK    1  A    between atoms: C_4  and  N_1 
REMARK    2  A    between atoms: C_7  and  C_9 
ROOT
ATOM      1  C   UNL d   1     -41.843-122.543 -50.890  0.00  0.00     0.070 A 
ATOM      2  C   UNL d   1     -41.839-122.953 -51.610  0.00  0.00     0.024 A 
ATOM      3  C   UNL d   1     -41.482-122.623 -52.267  0.00  0.00     0.066 A 
ATOM      4  C   UNL d   1     -41.488-121.804 -50.827  0.00  0.00     0.018 A 
ATOM      5  C   UNL d   1     -41.123-121.877 -52.207  0.00  0.00     0.006 A 
ATOM      6  C   UNL d   1     -41.125-121.467 -51.487  0.00  0.00     0.002 A 
ENDROOT
BRANCH   1   7
ATOM      7  N   UNL d   1     -42.202-122.872 -50.225  0.00  0.00    -0.242 N 
ATOM      8  C   UNL d   1     -42.976-122.707 -49.959  0.00  0.00     0.267 A 
ATOM      9  C   UNL d   1     -43.117-123.151 -49.279  0.00  0.00     0.066 A 
ATOM     10  O   UNL d   1     -43.534-122.195 -50.290  0.00  0.00    -0.267 OA
ATOM     11  C   UNL d   1     -42.435-123.593 -49.119  0.00  0.00     0.066 A 
ATOM     12  C   UNL d   1     -41.878-123.422 -49.696  0.00  0.00     0.267 A 
ATOM     13  O   UNL d   1     -41.123-123.771 -49.706  0.00  0.00    -0.267 OA
ENDBRANCH   1   7
BRANCH   3  14
ATOM     14  C   UNL d   1     -41.472-123.018 -52.986  0.00  0.00     0.211 C 
ATOM     15  O   UNL d   1     -41.159-123.774 -53.046  0.00  0.00    -0.644 OA
ATOM     16  O   UNL d   1     -41.783-122.643 -53.657  0.00  0.00    -0.644 OA
ENDBRANCH   3  14
TORSDOF 2
ENDMDL
MODEL 3
REMARK VINA RESULT:      -5.6      2.037      2.982
REMARK  2 active torsions:
REMARK  status: ('A' for Active; 'I' for Inactive)
REMARK    1  A    between atoms: C_4  and  N_1 
REMARK    2  A    between atoms: C_7  and  C_9 
ROOT
ATOM      1  C   UNL d   1     -41.863-123.143 -50.359  0.00  0.00     0.070 A 
ATOM      2  C   UNL d   1     -41.791-122.400 -50.719  0.00  0.00     0.024 A 
ATOM      3  C   UNL d   1     -41.430-122.332 -51.449  0.00  0.00     0.066 A 
ATOM      4  C   UNL d   1     -41.573-123.817 -50.729  0.00  0.00     0.018 A 
ATOM      5  C   UNL d   1     -41.136-123.011 -51.826  0.00  0.00     0.006 A 
ATOM      6  C   UNL d   1     -41.207-123.754 -51.466  0.00  0.00     0.002 A 
ENDROOT
BRANCH   1   7
ATOM      7  N   UNL d   1     -42.227-123.216 -49.622  0.00  0.00    -0.242 N 
ATOM      8  C   UNL d   1     -43.012-123.466 -49.491  0.00  0.00     0.267 A 
ATOM      9  C   UNL d   1     -43.154-123.461 -48.679  0.00  0.00     0.066 A 
ATOM     10  O   UNL d   1     -43.581-123.688 -50.049  0.00  0.00    -0.267 OA
ATOM     11  C   UNL d   1     -42.460-123.209 -48.302  0.00  0.00     0.066 A 
ATOM     12  C   UNL d   1     -41.896-123.060 -48.879  0.00  0.00     0.267 A 
ATOM     13  O   UNL d   1     -41.128-122.796 -48.695  0.00  0.00    -0.267 OA
ENDBRANCH   1   7
BRANCH   3  14
ATOM     14  C   UNL d   1     -41.353-121.602 -51.816  0.00  0.00     0.211 C 
ATOM     15  O   UNL d   1     -41.129-120.939 -51.389  0.00  0.00    -0.644 OA
ATOM     16  O   UNL d   1     -41.504-121.542 -52.630  0.00  0.00    -0.644 OA
ENDBRANCH   3  14
TORSDOF 2
ENDMDL
MODEL 4
REMARK VINA RESULT:      -5.0      1.526      3.616
REMARK  2 active torsions:
REMARK  status: ('A' for Active; 'I' for Inactive)
REMARK    1  A    between atoms: C_4  and  N_1 
REMARK    2  A    between atoms: C_7  and  C_9 
ROOT
ATOM      1  C   UNL d   1     -41.667-122.942 -51.120  0.00  0.00     0.070 A 
ATOM      2  C   UNL d   1     -42.374-122.745 -50.736  0.00  0.00     0.024 A 
ATOM      3  C   UNL d   1     -42.538-123.053 -49.996  0.00  0.00     0.066 A 
ATOM      4  C   UNL d   1     -41.123-123.446 -50.764  0.00  0.00     0.018 A 
ATOM      5  C   UNL d   1     -41.991-123.562 -49.634  0.00  0.00     0.006 A 
ATOM      6  C   UNL d   1     -41.284-123.759 -50.018  0.00  0.00     0.002 A 
ENDROOT
BRANCH   1   7
ATOM      7  N   UNL d   1     -41.498-122.634 -51.866  0.00  0.00    -0.242 N 
ATOM      8  C   UNL d   1     -41.250-121.853 -52.025  0.00  0.00     0.267 A 
ATOM      9  C   UNL d   1     -41.143-121.775 -52.838  0.00  0.00     0.066 A 
ATOM     10  O   UNL d   1     -41.123-121.235 -51.489  0.00  0.00    -0.267 OA
ATOM     11  C   UNL d   1     -41.323-122.504 -53.189  0.00  0.00     0.066 A 
ATOM     12  C   UNL d   1     -41.539-123.027 -52.594  0.00  0.00     0.267 A 
ATOM     13  O   UNL d   1     -41.756-123.815 -52.750  0.00  0.00    -0.267 OA
ENDBRANCH   1   7
BRANCH   3  14
ATOM     14  C   UNL d   1     -43.234-122.866 -49.605  0.00  0.00     0.211 C 
ATOM     15  O   UNL d   1     -43.940-123.230 -49.808  0.00  0.00    -0.644 OA
ATOM     16  O   UNL d   1     -43.217-122.300 -48.998  0.00  0.00    -0.644 OA
ENDBRANCH   3  14
TORSDOF 2
ENDMDL
MODEL 5
REMARK VINA RESULT:      -4.9      1.015      3.352
REMARK  2 active torsions:
REMARK  status: ('A' for Active; 'I' for Inactive)
REMARK    1  A    between atoms: C_4  and  N_1 
REMARK    2  A    between atoms: C_7  and  C_9 
ROOT
ATOM      1  C   UNL d   1     -41.631-122.342 -52.875  0.00  0.00     0.070 A 
ATOM      2  C   UNL d   1     -41.812-122.924 -52.314  0.00  0.00     0.024 A 
ATOM      3  C   UNL d   1     -41.651-122.796 -51.523  0.00  0.00     0.066 A 
ATOM      4  C   UNL d   1     -41.288-121.631 -52.644  0.00  0.00     0.018 A 
ATOM      5  C   UNL d   1     -41.304-122.080 -51.287  0.00  0.00     0.006 A 
ATOM      6  C   UNL d   1     -41.123-121.496 -51.847  0.00  0.00     0.002 A 
ENDROOT
BRANCH   1   7
ATOM      7  N   UNL d   1     -41.793-122.467 -53.673  0.00  0.00    -0.242 N 
ATOM      8  C   UNL d   1     -42.225-121.953 -54.169  0.00  0.00     0.267 A 
ATOM      9  C   UNL d   1     -42.258-122.285 -54.922  0.00  0.00     0.066 A 
ATOM     10  O   UNL d   1     -42.576-121.229 -53.976  0.00  0.00    -0.267 OA
ATOM     11  C   UNL d   1     -41.847-123.005 -54.900  0.00  0.00     0.066 A 
ATOM     12  C   UNL d   1     -41.564-123.114 -54.138  0.00  0.00     0.267 A 
ATOM     13  O   UNL d   1     -41.123-123.785 -53.918  0.00  0.00    -0.267 OA
ENDBRANCH   1   7
BRANCH   3  14
ATOM     14  C   UNL d   1     -41.826-123.364 -50.958  0.00  0.00     0.211 C 
ATOM     15  O   UNL d   1     -41.230-123.806 -50.608  0.00  0.00    -0.644 OA
ATOM     16  O   UNL d   1     -42.617-123.489 -50.742  0.00  0.00    -0.644 OA
ENDBRANCH   3  14
TORSDOF 2
ENDMDL
MODEL 6
REMARK VINA RESULT:      -4.5      1.149      3.185
REMARK  2 active torsions:
REMARK  status: ('A' for Active; 'I' for Inactive)
REMARK    1  A    between atoms: C_4  and  N_1 
REMARK    2  A    between atoms: C_7  and  C_9 
ROOT
ATOM      1  C   UNL d   1     -41.658-122.838 -53.216  0.00  0.00     0.070 A 
ATOM      2  C   UNL d   1     -41.851-122.329 -52.591  0.00  0.00     0.024 A 
ATOM      3  C   UNL d   1     -41.682-122.544 -51.821  0.00  0.00     0.066 A 
ATOM      4  C   UNL d   1     -41.296-123.561 -53.071  0.00  0.00     0.018 A 
ATOM      5  C   UNL d   1     -41.316-123.274 -51.670  0.00  0.00     0.006 A 
ATOM      6  C   UNL d   1     -41.123-123.783 -52.294  0.00  0.00     0.002 A 
ENDROOT
BRANCH   1   7
ATOM      7  N   UNL d   1     -41.827-122.625 -53.994  0.00  0.00    -0.242 N 
ATOM      8  C   UNL d   1     -41.585-121.919 -54.369  0.00  0.00     0.267 A 
ATOM      9  C   UNL d   1     -41.870-121.924 -55.142  0.00  0.00     0.066 A 
ATOM     10  O   UNL d   1     -41.138-121.298 -54.054  0.00  0.00    -0.267 OA
ATOM     11  C   UNL d   1     -42.289-122.631 -55.253  0.00  0.00     0.066 A 
ATOM     12  C   UNL d   1     -42.262-123.056 -54.552  0.00  0.00     0.267 A 
ATOM     13  O   UNL d   1     -42.628-123.799 -54.466  0.00  0.00    -0.267 OA
ENDBRANCH   1   7
BRANCH   3  14
ATOM     14  C   UNL d   1     -41.868-122.050 -51.193  0.00  0.00     0.211 C 
ATOM     15  O   UNL d   1     -41.314-121.527 -50.892  0.00  0.00    -0.644 OA
ATOM     16  O   UNL d   1     -42.629-122.085 -50.864  0.00  0.00    -0.644 OA
ENDBRANCH   3  14
TORSDOF 2
ENDMDL
MODEL 7
REMARK VINA RESULT:      -3.9      0.822      1.718
REMARK  2 active torsions:
REMARK  status: ('A' for Active; 'I' for Inactive)
REMARK    1  A    between atoms: C_4  and  N_1 
REMARK    2  A    between atoms: C_7  and  C_9 
ROOT
ATOM      1  C   UNL d   1     -41.915-122.185 -53.121  0.00  0.00     0.070 A 
ATOM      2  C   UNL d   1     -41.484-122.468 -53.769  0.00  0.00     0.024 A 
ATOM      3  C   UNL d   1     -41.760-122.347 -54.529  0.00  0.00     0.066 A 
ATOM      4  C   UNL d   1     -42.622-121.780 -53.232  0.00  0.00     0.018 A 
ATOM      5  C   UNL d   1     -42.474-121.939 -54.646  0.00  0.00     0.006 A 
ATOM      6  C   UNL d   1     -42.905-121.655 -53.997  0.00  0.00     0.002 A 
ENDROOT
BRANCH   1   7
ATOM      7  N   UNL d   1     -41.639-122.305 -52.353  0.00  0.00    -0.242 N 
ATOM      8  C   UNL d   1     -41.335-121.714 -51.848  0.00  0.00     0.267 A 
ATOM      9  C   UNL d   1     -41.123-122.067 -51.134  0.00  0.00     0.066 A 
ATOM     10  O   UNL d   1     -41.244-120.906 -51.999  0.00  0.00    -0.267 OA
ATOM     11  C   UNL d   1     -41.294-122.876 -51.191  0.00  0.00     0.066 A 
ATOM     12  C   UNL d   1     -41.608-123.019 -51.935  0.00  0.00     0.267 A 
ATOM     13  O   UNL d   1     -41.844-123.778 -52.181  0.00  0.00    -0.267 OA
ENDBRANCH   1   7
BRANCH   3  14
ATOM     14  C   UNL d   1     -41.343-122.623 -55.180  0.00  0.00     0.211 C 
ATOM     15  O   UNL d   1     -41.123-122.114 -55.783  0.00  0.00    -0.644 OA
ATOM     16  O   UNL d   1     -41.146-123.428 -55.221  0.00  0.00    -0.644 OA
ENDBRANCH   3  14
TORSDOF 2
ENDMDL
