MODEL 1
REMARK VINA RESULT:      -1.7      0.000      0.000
REMARK  5 active torsions:
REMARK  status: ('A' for Active; 'I' for Inactive)
REMARK    1  A    between atoms: C_2  and  S_1 
REMARK    2  A    between atoms: N_4  and  S_1 
REMARK    3  A    between atoms: C_15  and  N_4 
REMARK    4  A    between atoms: N_7  and  C_6 
REMARK    5  A    between atoms: C_12  and  C_13 
ROOT
ATOM      1  C   UNL d   1     -41.538-121.988 -51.865  0.00  0.00     0.021 A 
ATOM      2  C   UNL d   1     -41.402-122.724 -50.648  0.00  0.00     0.094 A 
ATOM      3  C   UNL d   1     -41.542-122.707 -51.461  0.00  0.00     0.021 A 
ATOM      4  C   UNL d   1     -41.393-121.285 -51.456  0.00  0.00     0.002 A 
ATOM      5  C   UNL d   1     -41.253-121.305 -50.646  0.00  0.00     0.002 A 
ATOM      6  C   UNL d   1     -41.258-122.024 -50.242  0.00  0.00     0.020 A 
ENDROOT
BRANCH   1   7
ATOM      7  C   UNL d   1     -41.678-121.970 -52.678  0.00  0.00     0.103 A 
ATOM      8  N   UNL d   1     -42.273-121.487 -52.984  0.00  0.00    -0.147 NA
ATOM      9  N   UNL d   1     -42.414-121.469 -53.797  0.00  0.00    -0.130 NA
ATOM     10  C   UNL d   1     -41.959-121.934 -54.305  0.00  0.00     0.170 A 
ATOM     11  C   UNL d   1     -41.364-122.417 -53.998  0.00  0.00     0.041 A 
ATOM     12  C   UNL d   1     -41.223-122.436 -53.186  0.00  0.00     0.024 A 
BRANCH  10  13
ATOM     13  N   UNL d   1     -42.095-121.919 -55.111  0.00  0.00    -0.284 N 
ATOM     14  C   UNL d   1     -42.787-122.243 -55.421  0.00  0.00     0.108 A 
ATOM     15  C   UNL d   1     -42.924-122.229 -56.228  0.00  0.00     0.142 A 
ATOM     16  O   UNL d   1     -42.366-121.887 -56.731  0.00  0.00    -0.300 OA
ATOM     17  C   UNL d   1     -41.674-121.563 -56.420  0.00  0.00     0.142 A 
ATOM     18  C   UNL d   1     -41.540-121.581 -55.606  0.00  0.00     0.108 A 
ENDBRANCH  10  13
ENDBRANCH   1   7
BRANCH   2  19
ATOM     19  N   UNL d   1     -41.406-123.443 -50.244  0.00  0.00    -0.158 NA
BRANCH  19  20
ATOM     20  S   UNL d   1     -41.805-123.512 -49.528  0.00  0.00     0.285 S 
ATOM     21  O   UNL d   1     -42.467-123.811 -49.924  0.00  0.00    -0.198 OA
ATOM     22  O   UNL d   1     -41.136-123.211 -49.131  0.00  0.00    -0.198 OA
BRANCH  20  23
ATOM     23  C   UNL d   1     -42.212-123.585 -48.812  0.00  0.00     0.106 A 
ATOM     24  C   UNL d   1     -41.807-123.657 -48.106  0.00  0.00     0.025 A 
ATOM     25  C   UNL d   1     -42.211-123.730 -47.393  0.00  0.00     0.069 A 
ATOM     26 CL   UNL d   1     -41.802-123.803 -46.679  0.00  0.00    -0.082 Cl
ATOM     27  C   UNL d   1     -43.036-123.729 -47.393  0.00  0.00     0.068 A 
ATOM     28  C   UNL d   1     -43.448-123.655 -48.104  0.00  0.00     0.013 A 
ATOM     29 CL   UNL d   1     -43.461-123.801 -46.677  0.00  0.00    -0.082 Cl
ATOM     30  C   UNL d   1     -43.037-123.584 -48.811  0.00  0.00     0.014 A 
ENDBRANCH  20  23
ENDBRANCH  19  20
ENDBRANCH   2  19
TORSDOF 5
ENDMDL
MODEL 2
REMARK VINA RESULT:      -0.2      3.020      6.286
REMARK  5 active torsions:
REMARK  status: ('A' for Active; 'I' for Inactive)
REMARK    1  A    between atoms: C_2  and  S_1 
REMARK    2  A    between atoms: N_4  and  S_1 
REMARK    3  A    between atoms: C_15  and  N_4 
REMARK    4  A    between atoms: N_7  and  C_6 
REMARK    5  A    between atoms: C_12  and  C_13 
ROOT
ATOM      1  C   UNL d   1     -41.551-122.122 -51.138  0.00  0.00     0.021 A 
ATOM      2  C   UNL d   1     -41.277-122.360 -52.520  0.00  0.00     0.094 A 
ATOM      3  C   UNL d   1     -41.488-122.643 -51.774  0.00  0.00     0.021 A 
ATOM      4  C   UNL d   1     -41.402-121.317 -51.248  0.00  0.00     0.002 A 
ATOM      5  C   UNL d   1     -41.192-121.038 -51.992  0.00  0.00     0.002 A 
ATOM      6  C   UNL d   1     -41.129-121.559 -52.628  0.00  0.00     0.020 A 
ENDROOT
BRANCH   1   7
ATOM      7  C   UNL d   1     -41.762-122.404 -50.392  0.00  0.00     0.103 A 
ATOM      8  N   UNL d   1     -41.462-122.041 -49.713  0.00  0.00    -0.147 NA
ATOM      9  N   UNL d   1     -41.674-122.323 -48.967  0.00  0.00    -0.130 NA
ATOM     10  C   UNL d   1     -42.184-122.968 -48.899  0.00  0.00     0.170 A 
ATOM     11  C   UNL d   1     -42.483-123.330 -49.577  0.00  0.00     0.041 A 
ATOM     12  C   UNL d   1     -42.272-123.049 -50.324  0.00  0.00     0.024 A 
BRANCH  10  13
ATOM     13  N   UNL d   1     -42.395-123.250 -48.161  0.00  0.00    -0.284 N 
ATOM     14  C   UNL d   1     -41.816-123.503 -47.631  0.00  0.00     0.108 A 
ATOM     15  C   UNL d   1     -42.026-123.785 -46.893  0.00  0.00     0.142 A 
ATOM     16  O   UNL d   1     -42.823-123.817 -46.679  0.00  0.00    -0.300 OA
ATOM     17  C   UNL d   1     -43.403-123.564 -47.209  0.00  0.00     0.142 A 
ATOM     18  C   UNL d   1     -43.185-123.280 -47.953  0.00  0.00     0.108 A 
ENDBRANCH  10  13
ENDBRANCH   1   7
BRANCH   2  19
ATOM     19  N   UNL d   1     -41.214-122.882 -53.156  0.00  0.00    -0.158 NA
BRANCH  19  20
ATOM     20  S   UNL d   1     -41.586-122.711 -53.869  0.00  0.00     0.285 S 
ATOM     21  O   UNL d   1     -41.149-122.010 -53.930  0.00  0.00    -0.198 OA
ATOM     22  O   UNL d   1     -42.024-123.417 -53.806  0.00  0.00    -0.198 OA
BRANCH  20  23
ATOM     23  C   UNL d   1     -41.955-122.531 -54.587  0.00  0.00     0.106 A 
ATOM     24  C   UNL d   1     -41.693-121.910 -55.048  0.00  0.00     0.025 A 
ATOM     25  C   UNL d   1     -42.059-121.730 -55.762  0.00  0.00     0.069 A 
ATOM     26 CL   UNL d   1     -41.794-121.102 -56.229  0.00  0.00    -0.082 Cl
ATOM     27  C   UNL d   1     -42.700-122.184 -56.015  0.00  0.00     0.068 A 
ATOM     28  C   UNL d   1     -42.968-122.813 -55.551  0.00  0.00     0.013 A 
ATOM     29 CL   UNL d   1     -43.083-122.014 -56.738  0.00  0.00    -0.082 Cl
ATOM     30  C   UNL d   1     -42.596-122.985 -54.840  0.00  0.00     0.014 A 
ENDBRANCH  20  23
ENDBRANCH  19  20
ENDBRANCH   2  19
TORSDOF 5
ENDMDL
