MODEL 1
REMARK VINA RESULT:      -2.7      0.000      0.000
REMARK  5 active torsions:
REMARK  status: ('A' for Active; 'I' for Inactive)
REMARK    1  A    between atoms: C_6  and  C_1 
REMARK    2  A    between atoms: C_8  and  N_3 
REMARK    3  A    between atoms: C_7  and  C_8 
REMARK    4  A    between atoms: C_9  and  C_7 
REMARK    5  A    between atoms: C_10  and  C_9 
ROOT
ATOM      1  C   UNL d   1      31.966  16.120 -23.978  0.00  0.00     0.187 A 
ATOM      2  N   UNL d   1      31.225  15.745 -24.088  0.00  0.00    -0.224 NA
ATOM      3  N   UNL d   1      31.862  16.939 -24.086  0.00  0.00    -0.287 N 
ATOM      4  C   UNL d   1      31.066  17.078 -24.262  0.00  0.00     0.083 A 
ATOM      5  C   UNL d   1      30.671  16.346 -24.265  0.00  0.00     0.099 A 
ATOM      6  C   UNL d   1      30.633  17.776 -24.425  0.00  0.00     0.019 A 
ATOM      7  C   UNL d   1      29.853  16.303 -24.426  0.00  0.00     0.021 A 
ATOM      8  C   UNL d   1      29.824  17.736 -24.585  0.00  0.00     0.002 A 
ATOM      9  C   UNL d   1      29.435  17.001 -24.585  0.00  0.00     0.002 A 
ENDROOT
BRANCH   3  10
ATOM     10  C   UNL d   1      32.552  17.381 -23.993  0.00  0.00     0.082 C 
BRANCH  10  11
ATOM     11  C   UNL d   1      32.533  18.097 -23.595  0.00  0.00     0.019 C 
BRANCH  11  12
ATOM     12  C   UNL d   1      33.240  18.496 -23.435  0.00  0.00     0.002 C 
BRANCH  12  13
ATOM     13  C   UNL d   1      33.225  19.202 -23.012  0.00  0.00     0.000 A 
ATOM     14  C   UNL d   1      33.230  19.922 -23.414  0.00  0.00     0.000 A 
ATOM     15  C   UNL d   1      33.215  20.622 -22.988  0.00  0.00     0.000 A 
ATOM     16  C   UNL d   1      33.195  20.610 -22.163  0.00  0.00     0.000 A 
ATOM     17  C   UNL d   1      33.190  19.886 -21.763  0.00  0.00     0.000 A 
ATOM     18  C   UNL d   1      33.205  19.189 -22.187  0.00  0.00     0.000 A 
ENDBRANCH  12  13
ENDBRANCH  11  12
ENDBRANCH  10  11
ENDBRANCH   3  10
BRANCH   1  19
ATOM     19  C   UNL d   1      32.539  15.701 -23.817  0.00  0.00     0.230 C 
ATOM     20  O   UNL d   1      33.112  15.454 -24.356  0.00  0.00    -0.283 OA
ATOM     21  C   UNL d   1      32.623  15.453 -23.036  0.00  0.00     0.049 C 
ENDBRANCH   1  19
TORSDOF 5
ENDMDL
MODEL 2
REMARK VINA RESULT:      -2.6      2.855      5.335
REMARK  5 active torsions:
REMARK  status: ('A' for Active; 'I' for Inactive)
REMARK    1  A    between atoms: C_6  and  C_1 
REMARK    2  A    between atoms: C_8  and  N_3 
REMARK    3  A    between atoms: C_7  and  C_8 
REMARK    4  A    between atoms: C_9  and  C_7 
REMARK    5  A    between atoms: C_10  and  C_9 
ROOT
ATOM      1  C   UNL d   1      32.599  21.787 -21.226  0.00  0.00     0.187 A 
ATOM      2  N   UNL d   1      32.389  22.595 -21.287  0.00  0.00    -0.224 NA
ATOM      3  N   UNL d   1      32.951  21.555 -21.945  0.00  0.00    -0.287 N 
ATOM      4  C   UNL d   1      32.961  22.208 -22.451  0.00  0.00     0.083 A 
ATOM      5  C   UNL d   1      32.617  22.850 -22.050  0.00  0.00     0.099 A 
ATOM      6  C   UNL d   1      33.239  22.317 -23.233  0.00  0.00     0.019 A 
ATOM      7  C   UNL d   1      32.547  23.596 -22.419  0.00  0.00     0.021 A 
ATOM      8  C   UNL d   1      33.170  23.053 -23.600  0.00  0.00     0.002 A 
ATOM      9  C   UNL d   1      32.825  23.691 -23.194  0.00  0.00     0.002 A 
ENDROOT
BRANCH   3  10
ATOM     10  C   UNL d   1      33.187  20.764 -21.963  0.00  0.00     0.082 C 
BRANCH  10  11
ATOM     11  C   UNL d   1      33.068  20.314 -22.638  0.00  0.00     0.019 C 
BRANCH  11  12
ATOM     12  C   UNL d   1      33.241  19.505 -22.627  0.00  0.00     0.002 C 
BRANCH  12  13
ATOM     13  C   UNL d   1      32.949  19.015 -23.220  0.00  0.00     0.000 A 
ATOM     14  C   UNL d   1      32.421  18.410 -23.031  0.00  0.00     0.000 A 
ATOM     15  C   UNL d   1      32.134  17.926 -23.627  0.00  0.00     0.000 A 
ATOM     16  C   UNL d   1      32.369  18.039 -24.409  0.00  0.00     0.000 A 
ATOM     17  C   UNL d   1      32.899  18.647 -24.595  0.00  0.00     0.000 A 
ATOM     18  C   UNL d   1      33.185  19.129 -24.003  0.00  0.00     0.000 A 
ENDBRANCH  12  13
ENDBRANCH  11  12
ENDBRANCH  10  11
ENDBRANCH   3  10
BRANCH   1  19
ATOM     19  C   UNL d   1      32.452  21.443 -20.602  0.00  0.00     0.230 C 
ATOM     20  O   UNL d   1      31.719  21.131 -20.394  0.00  0.00    -0.283 OA
ATOM     21  C   UNL d   1      33.066  21.358 -20.059  0.00  0.00     0.049 C 
ENDBRANCH   1  19
TORSDOF 5
ENDMDL
MODEL 3
REMARK VINA RESULT:      -1.2      4.225      6.305
REMARK  5 active torsions:
REMARK  status: ('A' for Active; 'I' for Inactive)
REMARK    1  A    between atoms: C_6  and  C_1 
REMARK    2  A    between atoms: C_8  and  N_3 
REMARK    3  A    between atoms: C_7  and  C_8 
REMARK    4  A    between atoms: C_9  and  C_7 
REMARK    5  A    between atoms: C_10  and  C_9 
ROOT
ATOM      1  C   UNL d   1      32.655  22.321 -21.769  0.00  0.00     0.187 A 
ATOM      2  N   UNL d   1      32.648  21.635 -22.249  0.00  0.00    -0.224 NA
ATOM      3  N   UNL d   1      32.849  22.092 -20.992  0.00  0.00    -0.287 N 
ATOM      4  C   UNL d   1      32.962  21.273 -20.984  0.00  0.00     0.083 A 
ATOM      5  C   UNL d   1      32.839  20.988 -21.755  0.00  0.00     0.099 A 
ATOM      6  C   UNL d   1      33.162  20.732 -20.376  0.00  0.00     0.019 A 
ATOM      7  C   UNL d   1      32.914  20.174 -21.927  0.00  0.00     0.021 A 
ATOM      8  C   UNL d   1      33.237  19.927 -20.544  0.00  0.00     0.002 A 
ATOM      9  C   UNL d   1      33.113  19.649 -21.317  0.00  0.00     0.002 A 
ENDROOT
BRANCH   3  10
ATOM     10  C   UNL d   1      32.876  22.717 -20.454  0.00  0.00     0.082 C 
BRANCH  10  11
ATOM     11  C   UNL d   1      32.912  22.567 -19.649  0.00  0.00     0.019 C 
BRANCH  11  12
ATOM     12  C   UNL d   1      32.835  23.191 -19.112  0.00  0.00     0.002 C 
BRANCH  12  13
ATOM     13  C   UNL d   1      32.971  23.062 -18.310  0.00  0.00     0.000 A 
ATOM     14  C   UNL d   1      33.077  22.293 -18.031  0.00  0.00     0.000 A 
ATOM     15  C   UNL d   1      33.212  22.171 -17.232  0.00  0.00     0.000 A 
ATOM     16  C   UNL d   1      33.240  22.808 -16.709  0.00  0.00     0.000 A 
ATOM     17  C   UNL d   1      33.133  23.577 -16.993  0.00  0.00     0.000 A 
ATOM     18  C   UNL d   1      32.999  23.700 -17.788  0.00  0.00     0.000 A 
ENDBRANCH  12  13
ENDBRANCH  11  12
ENDBRANCH  10  11
ENDBRANCH   3  10
BRANCH   1  19
ATOM     19  C   UNL d   1      32.502  22.958 -22.083  0.00  0.00     0.230 C 
ATOM     20  O   UNL d   1      31.781  23.353 -22.030  0.00  0.00    -0.283 OA
ATOM     21  C   UNL d   1      33.095  23.316 -22.529  0.00  0.00     0.049 C 
ENDBRANCH   1  19
TORSDOF 5
ENDMDL
MODEL 4
REMARK VINA RESULT:      -0.6      2.118      4.586
REMARK  5 active torsions:
REMARK  status: ('A' for Active; 'I' for Inactive)
REMARK    1  A    between atoms: C_6  and  C_1 
REMARK    2  A    between atoms: C_8  and  N_3 
REMARK    3  A    between atoms: C_7  and  C_8 
REMARK    4  A    between atoms: C_9  and  C_7 
REMARK    5  A    between atoms: C_10  and  C_9 
ROOT
ATOM      1  C   UNL d   1      33.120  20.783 -22.259  0.00  0.00     0.187 A 
ATOM      2  N   UNL d   1      33.098  21.571 -22.542  0.00  0.00    -0.224 NA
ATOM      3  N   UNL d   1      33.176  20.272 -22.914  0.00  0.00    -0.287 N 
ATOM      4  C   UNL d   1      33.190  20.733 -23.601  0.00  0.00     0.083 A 
ATOM      5  C   UNL d   1      33.141  21.532 -23.376  0.00  0.00     0.099 A 
ATOM      6  C   UNL d   1      33.239  20.540 -24.414  0.00  0.00     0.019 A 
ATOM      7  C   UNL d   1      33.142  22.137 -23.951  0.00  0.00     0.021 A 
ATOM      8  C   UNL d   1      33.240  21.137 -24.984  0.00  0.00     0.002 A 
ATOM      9  C   UNL d   1      33.192  21.934 -24.753  0.00  0.00     0.002 A 
ENDROOT
BRANCH   3  10
ATOM     10  C   UNL d   1      33.203  19.472 -22.716  0.00  0.00     0.082 C 
BRANCH  10  11
ATOM     11  C   UNL d   1      32.815  18.919 -23.180  0.00  0.00     0.019 C 
BRANCH  11  12
ATOM     12  C   UNL d   1      32.691  18.154 -22.889  0.00  0.00     0.002 C 
BRANCH  12  13
ATOM     13  C   UNL d   1      32.557  17.533 -23.413  0.00  0.00     0.000 A 
ATOM     14  C   UNL d   1      33.189  17.070 -23.670  0.00  0.00     0.000 A 
ATOM     15  C   UNL d   1      33.050  16.453 -24.191  0.00  0.00     0.000 A 
ATOM     16  C   UNL d   1      32.285  16.294 -24.458  0.00  0.00     0.000 A 
ATOM     17  C   UNL d   1      31.654  16.761 -24.197  0.00  0.00     0.000 A 
ATOM     18  C   UNL d   1      31.792  17.375 -23.679  0.00  0.00     0.000 A 
ENDBRANCH  12  13
ENDBRANCH  11  12
ENDBRANCH  10  11
ENDBRANCH   3  10
BRANCH   1  19
ATOM     19  C   UNL d   1      33.089  20.679 -21.540  0.00  0.00     0.230 C 
ATOM     20  O   UNL d   1      33.125  19.946 -21.165  0.00  0.00    -0.283 OA
ATOM     21  C   UNL d   1      33.010  21.344 -21.060  0.00  0.00     0.049 C 
ENDBRANCH   1  19
TORSDOF 5
ENDMDL
MODEL 5
REMARK VINA RESULT:       0.2      4.517      6.124
REMARK  5 active torsions:
REMARK  status: ('A' for Active; 'I' for Inactive)
REMARK    1  A    between atoms: C_6  and  C_1 
REMARK    2  A    between atoms: C_8  and  N_3 
REMARK    3  A    between atoms: C_7  and  C_8 
REMARK    4  A    between atoms: C_9  and  C_7 
REMARK    5  A    between atoms: C_10  and  C_9 
ROOT
ATOM      1  C   UNL d   1      32.293  21.461 -21.505  0.00  0.00     0.187 A 
ATOM      2  N   UNL d   1      32.575  21.277 -22.272  0.00  0.00    -0.224 NA
ATOM      3  N   UNL d   1      32.320  22.288 -21.410  0.00  0.00    -0.287 N 
ATOM      4  C   UNL d   1      32.615  22.620 -22.108  0.00  0.00     0.083 A 
ATOM      5  C   UNL d   1      32.773  22.001 -22.640  0.00  0.00     0.099 A 
ATOM      6  C   UNL d   1      32.767  23.409 -22.342  0.00  0.00     0.019 A 
ATOM      7  C   UNL d   1      33.079  22.161 -23.401  0.00  0.00     0.021 A 
ATOM      8  C   UNL d   1      33.069  23.569 -23.093  0.00  0.00     0.002 A 
ATOM      9  C   UNL d   1      33.225  22.946 -23.621  0.00  0.00     0.002 A 
ENDROOT
BRANCH   3  10
ATOM     10  C   UNL d   1      32.056  22.551 -20.673  0.00  0.00     0.082 C 
BRANCH  10  11
ATOM     11  C   UNL d   1      32.584  22.633 -20.052  0.00  0.00     0.019 C 
BRANCH  11  12
ATOM     12  C   UNL d   1      32.593  23.333 -19.612  0.00  0.00     0.002 C 
BRANCH  12  13
ATOM     13  C   UNL d   1      32.619  23.301 -18.790  0.00  0.00     0.000 A 
ATOM     14  C   UNL d   1      32.051  23.702 -18.345  0.00  0.00     0.000 A 
ATOM     15  C   UNL d   1      32.082  23.667 -17.527  0.00  0.00     0.000 A 
ATOM     16  C   UNL d   1      32.674  23.234 -17.148  0.00  0.00     0.000 A 
ATOM     17  C   UNL d   1      33.241  22.834 -17.597  0.00  0.00     0.000 A 
ATOM     18  C   UNL d   1      33.211  22.869 -18.412  0.00  0.00     0.000 A 
ENDBRANCH  12  13
ENDBRANCH  11  12
ENDBRANCH  10  11
ENDBRANCH   3  10
BRANCH   1  19
ATOM     19  C   UNL d   1      32.085  20.911 -21.078  0.00  0.00     0.230 C 
ATOM     20  O   UNL d   1      31.328  20.810 -20.768  0.00  0.00    -0.283 OA
ATOM     21  C   UNL d   1      32.649  20.342 -20.886  0.00  0.00     0.049 C 
ENDBRANCH   1  19
TORSDOF 5
ENDMDL
