MODEL 1
REMARK VINA RESULT:      55.5      0.000      0.000
REMARK  6 active torsions:
REMARK  status: ('A' for Active; 'I' for Inactive)
REMARK    1  A    between atoms: C_7  and  C_1 
REMARK    2  A    between atoms: O_11  and  C_2 
REMARK    3  A    between atoms: O_13  and  C_10 
REMARK    4  A    between atoms: C_20  and  O_11 
REMARK    5  A    between atoms: C_21  and  C_12 
REMARK    6  A    between atoms: C_14  and  O_13 
ROOT
ATOM      1  C   UNL d   1     -50.478  24.571  33.458  0.00  0.00     0.197 A 
ATOM      2  C   UNL d   1     -51.320  24.503  33.403  0.00  0.00     0.165 A 
ATOM      3  O   UNL d   1     -50.129  25.321  33.487  0.00  0.00    -0.301 OA
ATOM      4  C   UNL d   1     -51.770  25.195  33.380  0.00  0.00     0.222 A 
ATOM      5  C   UNL d   1     -51.423  25.944  33.409  0.00  0.00     0.064 A 
ATOM      6  C   UNL d   1     -50.584  25.995  33.463  0.00  0.00     0.105 A 
ATOM      7  C   UNL d   1     -51.879  26.615  33.385  0.00  0.00     0.007 A 
ATOM      8  C   UNL d   1     -50.233  26.744  33.492  0.00  0.00     0.050 A 
ATOM      9  C   UNL d   1     -50.696  27.418  33.468  0.00  0.00     0.105 A 
ATOM     10  C   UNL d   1     -51.529  27.359  33.414  0.00  0.00     0.023 A 
ATOM     11  O   UNL d   1     -52.616  25.119  33.325  0.00  0.00    -0.284 OA
ENDROOT
BRANCH   2  12
ATOM     12  O   UNL d   1     -51.685  23.763  33.373  0.00  0.00    -0.302 OA
BRANCH  12  13
ATOM     13  C   UNL d   1     -52.310  23.601  33.874  0.00  0.00     0.100 A 
ATOM     14  C   UNL d   1     -53.097  23.666  33.618  0.00  0.00     0.025 A 
ATOM     15  C   UNL d   1     -53.696  23.502  34.130  0.00  0.00     0.002 A 
ATOM     16  C   UNL d   1     -53.545  23.268  34.909  0.00  0.00     0.000 A 
ATOM     17  C   UNL d   1     -52.780  23.207  35.149  0.00  0.00     0.002 A 
ATOM     18  C   UNL d   1     -52.159  23.367  34.652  0.00  0.00     0.025 A 
ENDBRANCH  12  13
ENDBRANCH   2  12
BRANCH   1  19
ATOM     19  C   UNL d   1     -49.993  23.904  33.483  0.00  0.00     0.442 C 
ATOM     20  F   UNL d   1     -49.494  23.229  33.508  0.00  0.00    -0.164 F 
ATOM     21  F   UNL d   1     -50.665  23.410  33.572  0.00  0.00    -0.164 F 
ATOM     22  F   UNL d   1     -49.319  24.402  33.393  0.00  0.00    -0.164 F 
ENDBRANCH   1  19
BRANCH  10  23
ATOM     23  C   UNL d   1     -52.014  28.027  33.389  0.00  0.00     0.002 C 
ATOM     24  C   UNL d   1     -51.889  28.564  33.811  0.00  0.00     0.000 C 
ENDBRANCH  10  23
BRANCH   9  25
ATOM     25  O   UNL d   1     -50.333  28.155  33.498  0.00  0.00    -0.273 OA
BRANCH  25  26
ATOM     26  C   UNL d   1     -49.817  28.348  34.109  0.00  0.00     0.300 C 
ATOM     27  O   UNL d   1     -49.970  28.094  34.887  0.00  0.00    -0.259 OA
ATOM     28  C   UNL d   1     -49.150  28.787  33.969  0.00  0.00     0.074 C 
ENDBRANCH  25  26
ENDBRANCH   9  25
TORSDOF 6
ENDMDL
