MODEL 1
REMARK VINA RESULT:      68.0      0.000      0.000
REMARK  5 active torsions:
REMARK  status: ('A' for Active; 'I' for Inactive)
REMARK    1  A    between atoms: C_10  and  N_1 
REMARK    2  A    between atoms: N_2  and  C_8 
REMARK    3  A    between atoms: C_5  and  C_12 
REMARK       I    between atoms: N_6  and  C_5 
REMARK    4  A    between atoms: C_7  and  N_6 
REMARK    5  A    between atoms: O_26  and  C_14 
ROOT
ATOM      1  C   UNL d   1     -49.106  29.470  34.372  0.00  0.00     0.279 C 
ATOM      2  N   UNL d   1     -48.308  29.504  34.542  0.00  0.00    -0.206 NA
ATOM      3  O   UNL d   1     -49.569  30.146  34.389  0.00  0.00    -0.265 OA
ENDROOT
BRANCH   1   4
ATOM      4  C   UNL d   1     -49.460  28.729  34.177  0.00  0.00     0.058 A 
ATOM      5  C   UNL d   1     -49.322  28.080  34.650  0.00  0.00     0.006 A 
ATOM      6  C   UNL d   1     -49.674  27.343  34.456  0.00  0.00     0.018 A 
ATOM      7  C   UNL d   1     -50.150  27.286  33.796  0.00  0.00     0.070 A 
ATOM      8  C   UNL d   1     -50.289  27.937  33.319  0.00  0.00     0.018 A 
ATOM      9  C   UNL d   1     -49.938  28.674  33.513  0.00  0.00     0.006 A 
BRANCH   7  10
ATOM     10  N   UNL d   1     -50.505  26.541  33.599  0.00  0.00    -0.242 N 
ATOM     11  C   UNL d   1     -51.300  26.317  33.490  0.00  0.00     0.267 A 
ATOM     12  C   UNL d   1     -51.313  25.516  33.306  0.00  0.00     0.066 A 
ATOM     13  O   UNL d   1     -51.992  26.834  33.559  0.00  0.00    -0.267 OA
ATOM     14  C   UNL d   1     -50.524  25.265  33.306  0.00  0.00     0.066 A 
ATOM     15  C   UNL d   1     -50.026  25.888  33.484  0.00  0.00     0.267 A 
ATOM     16  O   UNL d   1     -49.189  25.834  33.533  0.00  0.00    -0.267 OA
ENDBRANCH   7  10
ENDBRANCH   1   4
BRANCH   2  17
ATOM     17  C   UNL d   1     -47.953  30.248  34.738  0.00  0.00     0.108 A 
ATOM     18  C   UNL d   1     -48.102  30.918  34.271  0.00  0.00     0.045 A 
ATOM     19  C   UNL d   1     -47.756  31.642  34.462  0.00  0.00     0.128 A 
ATOM     20  C   UNL d   1     -47.253  31.712  35.124  0.00  0.00     0.026 A 
ATOM     21  C   UNL d   1     -47.112  31.038  35.582  0.00  0.00     0.027 A 
ATOM     22  C   UNL d   1     -47.458  30.314  35.391  0.00  0.00     0.112 A 
BRANCH  19  23
ATOM     23  N   UNL d   1     -47.909  32.292  33.997  0.00  0.00    -0.114 N 
ATOM     24  O   UNL d   1     -47.410  32.584  33.393  0.00  0.00    -0.532 OA
ATOM     25  O   UNL d   1     -48.639  32.735  34.117  0.00  0.00    -0.532 OA
ENDBRANCH  19  23
BRANCH  22  26
ATOM     26  O   UNL d   1     -47.302  29.663  35.860  0.00  0.00    -0.327 OA
ATOM     27  C   UNL d   1     -47.324  29.733  36.684  0.00  0.00     0.181 C 
ENDBRANCH  22  26
ENDBRANCH   2  17
TORSDOF 5
ENDMDL
MODEL 2
REMARK VINA RESULT:      70.9      1.006      5.510
REMARK  5 active torsions:
REMARK  status: ('A' for Active; 'I' for Inactive)
REMARK    1  A    between atoms: C_10  and  N_1 
REMARK    2  A    between atoms: N_2  and  C_8 
REMARK    3  A    between atoms: C_5  and  C_12 
REMARK       I    between atoms: N_6  and  C_5 
REMARK    4  A    between atoms: C_7  and  N_6 
REMARK    5  A    between atoms: O_26  and  C_14 
ROOT
ATOM      1  C   UNL d   1     -49.664  27.762  34.276  0.00  0.00     0.279 C 
ATOM      2  N   UNL d   1     -50.079  27.626  33.587  0.00  0.00    -0.206 NA
ATOM      3  O   UNL d   1     -49.661  27.209  34.882  0.00  0.00    -0.265 OA
ENDROOT
BRANCH   1   4
ATOM      4  C   UNL d   1     -49.230  28.480  34.368  0.00  0.00     0.058 A 
ATOM      5  C   UNL d   1     -48.527  28.476  34.780  0.00  0.00     0.006 A 
ATOM      6  C   UNL d   1     -48.096  29.190  34.871  0.00  0.00     0.018 A 
ATOM      7  C   UNL d   1     -48.386  29.880  34.547  0.00  0.00     0.070 A 
ATOM      8  C   UNL d   1     -49.093  29.886  34.132  0.00  0.00     0.018 A 
ATOM      9  C   UNL d   1     -49.524  29.172  34.041  0.00  0.00     0.006 A 
BRANCH   7  10
ATOM     10  N   UNL d   1     -47.951  30.602  34.639  0.00  0.00    -0.242 N 
ATOM     11  C   UNL d   1     -48.044  31.356  34.296  0.00  0.00     0.267 A 
ATOM     12  C   UNL d   1     -47.455  31.844  34.595  0.00  0.00     0.066 A 
ATOM     13  O   UNL d   1     -48.654  31.585  33.724  0.00  0.00    -0.267 OA
ATOM     14  C   UNL d   1     -47.011  31.380  35.116  0.00  0.00     0.066 A 
ATOM     15  C   UNL d   1     -47.310  30.619  35.147  0.00  0.00     0.267 A 
ATOM     16  O   UNL d   1     -46.996  30.000  35.620  0.00  0.00    -0.267 OA
ENDBRANCH   7  10
ENDBRANCH   1   4
BRANCH   2  17
ATOM     17  C   UNL d   1     -50.514  26.905  33.495  0.00  0.00     0.108 A 
ATOM     18  C   UNL d   1     -50.115  26.176  33.479  0.00  0.00     0.045 A 
ATOM     19  C   UNL d   1     -50.539  25.474  33.389  0.00  0.00     0.128 A 
ATOM     20  C   UNL d   1     -51.370  25.485  33.313  0.00  0.00     0.026 A 
ATOM     21  C   UNL d   1     -51.757  26.216  33.330  0.00  0.00     0.027 A 
ATOM     22  C   UNL d   1     -51.333  26.918  33.420  0.00  0.00     0.112 A 
BRANCH  19  23
ATOM     23  N   UNL d   1     -50.139  24.766  33.375  0.00  0.00    -0.114 N 
ATOM     24  O   UNL d   1     -49.309  24.678  33.423  0.00  0.00    -0.532 OA
ATOM     25  O   UNL d   1     -50.583  24.031  33.306  0.00  0.00    -0.532 OA
ENDBRANCH  19  23
BRANCH  22  26
ATOM     26  O   UNL d   1     -51.738  27.628  33.434  0.00  0.00    -0.327 OA
ATOM     27  C   UNL d   1     -52.562  27.631  33.503  0.00  0.00     0.181 C 
ENDBRANCH  22  26
ENDBRANCH   2  17
TORSDOF 5
ENDMDL
