MODEL 1
REMARK VINA RESULT:      75.6      0.000      0.000
REMARK  6 active torsions:
REMARK  status: ('A' for Active; 'I' for Inactive)
REMARK    1  A    between atoms: C_3  and  N_4 
REMARK       I    between atoms: N_4  and  C_6 
REMARK    2  A    between atoms: C_9  and  C_5 
REMARK    3  A    between atoms: C_6  and  C_16 
REMARK    4  A    between atoms: S_12  and  C_7 
REMARK    5  A    between atoms: O_20  and  C_8 
REMARK    6  A    between atoms: C_16  and  S_12 
ROOT
ATOM      1  S   UNL d   1      61.071  48.467  51.053  0.00  0.00    -0.061 SA
ENDROOT
BRANCH   1   2
ATOM      2  C   UNL d   1      61.207  47.701  50.771  0.00  0.00     0.133 A 
ATOM      3  N   UNL d   1      61.624  47.581  50.069  0.00  0.00    -0.141 NA
ATOM      4  N   UNL d   1      61.760  46.815  49.788  0.00  0.00    -0.146 NA
ATOM      5  C   UNL d   1      61.475  46.159  50.216  0.00  0.00     0.121 A 
ATOM      6  C   UNL d   1      61.058  46.279  50.919  0.00  0.00     0.025 A 
ATOM      7  C   UNL d   1      60.922  47.040  51.201  0.00  0.00     0.029 A 
BRANCH   5   8
ATOM      8  C   UNL d   1      61.616  45.393  49.929  0.00  0.00     0.101 A 
ATOM      9  N   UNL d   1      61.482  45.219  49.133  0.00  0.00    -0.242 NA
ATOM     10  C   UNL d   1      61.622  44.468  48.863  0.00  0.00     0.099 A 
ATOM     11  C   UNL d   1      61.898  43.873  49.378  0.00  0.00     0.021 A 
ATOM     12  C   UNL d   1      62.029  44.050  50.169  0.00  0.00     0.003 A 
ATOM     13  C   UNL d   1      61.890  44.812  50.454  0.00  0.00     0.021 A 
ENDBRANCH   5   8
ENDBRANCH   1   2
BRANCH   1  14
ATOM     14  C   UNL d   1      60.594  48.984  50.634  0.00  0.00     0.099 C 
BRANCH  14  15
ATOM     15  C   UNL d   1      59.841  49.157  50.912  0.00  0.00     0.286 C 
ATOM     16  N   UNL d   1      59.204  49.184  50.400  0.00  0.00    -0.206 NA
ATOM     17  O   UNL d   1      59.717  49.307  51.715  0.00  0.00    -0.265 OA
BRANCH  16  18
ATOM     18  C   UNL d   1      58.440  49.359  50.682  0.00  0.00     0.107 A 
ATOM     19  C   UNL d   1      57.815  49.446  50.154  0.00  0.00     0.112 A 
ATOM     20  C   UNL d   1      57.066  49.617  50.430  0.00  0.00     0.026 A 
ATOM     21  C   UNL d   1      56.928  49.706  51.245  0.00  0.00     0.002 A 
ATOM     22  C   UNL d   1      57.556  49.620  51.781  0.00  0.00     0.002 A 
ATOM     23  C   UNL d   1      58.310  49.446  51.495  0.00  0.00     0.021 A 
ATOM     24  C   UNL d   1      57.422  49.707  52.582  0.00  0.00     0.000 C 
BRANCH  19  25
ATOM     25  O   UNL d   1      57.864  49.378  49.381  0.00  0.00    -0.327 OA
ATOM     26  C   UNL d   1      57.303  49.676  48.871  0.00  0.00     0.181 C 
ENDBRANCH  19  25
ENDBRANCH  16  18
ENDBRANCH  14  15
ENDBRANCH   1  14
TORSDOF 6
ENDMDL
