MODEL 1
REMARK VINA RESULT:     -10.6      0.000      0.000
REMARK  3 active torsions:
REMARK  status: ('A' for Active; 'I' for Inactive)
REMARK    1  A    between atoms: C_15  and  N_1 
REMARK       I    between atoms: C_6  and  N_7 
REMARK    2  A    between atoms: C_11  and  C_6 
REMARK    3  A    between atoms: N_7  and  C_8 
ROOT
ATOM      1  N   UNL d   1      52.508  34.170  53.265  0.00  0.00    -0.273 N 
ATOM      2  C   UNL d   1      53.108  34.608  54.035  0.00  0.00     0.265 A 
ATOM      3  C   UNL d   1      52.684  33.369  53.329  0.00  0.00     0.067 A 
ATOM      4  C   UNL d   1      53.228  33.292  53.944  0.00  0.00     0.022 A 
ATOM      5  C   UNL d   1      53.476  33.947  54.344  0.00  0.00     0.058 A 
ATOM      6  C   UNL d   1      53.254  31.887  53.729  0.00  0.00     0.084 A 
ATOM      7  C   UNL d   1      53.513  32.551  54.144  0.00  0.00     0.019 A 
ATOM      8  C   UNL d   1      52.424  32.705  52.914  0.00  0.00     0.019 A 
ATOM      9  O   UNL d   1      53.261  35.358  54.342  0.00  0.00    -0.267 OA
ATOM     10  C   UNL d   1      52.709  31.964  53.114  0.00  0.00     0.021 A 
ATOM     11  C   UNL d   1      54.020  33.870  54.959  0.00  0.00     0.005 A 
ATOM     12  C   UNL d   1      54.045  32.466  54.744  0.00  0.00     0.002 A 
ATOM     13  C   UNL d   1      54.305  33.129  55.159  0.00  0.00     0.000 A 
ENDROOT
BRANCH   6  14
ATOM     14  N   UNL d   1      53.539  31.147  53.929  0.00  0.00    -0.212 NA
ATOM     15  C   UNL d   1      53.114  30.473  53.715  0.00  0.00     0.255 C 
ATOM     16  O   UNL d   1      52.420  30.550  53.310  0.00  0.00    -0.270 OA
BRANCH  15  17
ATOM     17  C   UNL d   1      53.398  29.732  53.915  0.00  0.00     0.073 C 
ATOM     18  C   UNL d   1      54.021  29.403  53.486  0.00  0.00     0.009 C 
ATOM     19  C   UNL d   1      53.061  29.320  54.544  0.00  0.00     0.009 C 
ATOM     20  C   UNL d   1      53.719  28.882  54.151  0.00  0.00     0.009 C 
ENDBRANCH  15  17
ENDBRANCH   6  14
BRANCH   1  21
ATOM     21  C   UNL d   1      51.962  34.409  52.677  0.00  0.00     0.083 C 
ATOM     22  C   UNL d   1      51.291  34.789  52.895  0.00  0.00     0.021 C 
ENDBRANCH   1  21
TORSDOF 3
ENDMDL
MODEL 2
REMARK VINA RESULT:      -9.3      1.536      4.009
REMARK  3 active torsions:
REMARK  status: ('A' for Active; 'I' for Inactive)
REMARK    1  A    between atoms: C_15  and  N_1 
REMARK       I    between atoms: C_6  and  N_7 
REMARK    2  A    between atoms: C_11  and  C_6 
REMARK    3  A    between atoms: N_7  and  C_8 
ROOT
ATOM      1  N   UNL d   1      53.987  33.352  54.356  0.00  0.00    -0.273 N 
ATOM      2  C   UNL d   1      54.074  32.331  54.048  0.00  0.00     0.265 A 
ATOM      3  C   UNL d   1      53.277  33.587  54.013  0.00  0.00     0.067 A 
ATOM      4  C   UNL d   1      52.981  32.934  53.605  0.00  0.00     0.022 A 
ATOM      5  C   UNL d   1      53.392  32.240  53.607  0.00  0.00     0.058 A 
ATOM      6  C   UNL d   1      51.859  33.709  53.204  0.00  0.00     0.084 A 
ATOM      7  C   UNL d   1      52.272  32.995  53.200  0.00  0.00     0.019 A 
ATOM      8  C   UNL d   1      52.864  34.301  54.017  0.00  0.00     0.019 A 
ATOM      9  O   UNL d   1      54.601  31.704  54.143  0.00  0.00    -0.267 OA
ATOM     10  C   UNL d   1      52.155  34.363  53.613  0.00  0.00     0.021 A 
ATOM     11  C   UNL d   1      53.096  31.588  53.198  0.00  0.00     0.005 A 
ATOM     12  C   UNL d   1      51.974  32.363  52.798  0.00  0.00     0.002 A 
ATOM     13  C   UNL d   1      52.387  31.649  52.794  0.00  0.00     0.000 A 
ENDROOT
BRANCH   6  14
ATOM     14  N   UNL d   1      51.150  33.770  52.800  0.00  0.00    -0.212 NA
ATOM     15  C   UNL d   1      50.721  34.474  52.830  0.00  0.00     0.255 C 
ATOM     16  O   UNL d   1      51.003  35.096  53.259  0.00  0.00    -0.270 OA
BRANCH  15  17
ATOM     17  C   UNL d   1      50.012  34.535  52.426  0.00  0.00     0.073 C 
ATOM     18  C   UNL d   1      49.976  34.328  51.628  0.00  0.00     0.009 C 
ATOM     19  C   UNL d   1      49.338  34.804  52.819  0.00  0.00     0.009 C 
ATOM     20  C   UNL d   1      49.195  34.609  51.970  0.00  0.00     0.009 C 
ENDBRANCH  15  17
ENDBRANCH   6  14
BRANCH   1  21
ATOM     21  C   UNL d   1      54.411  33.913  54.810  0.00  0.00     0.083 C 
ATOM     22  C   UNL d   1      55.076  33.684  55.194  0.00  0.00     0.021 C 
ENDBRANCH   1  21
TORSDOF 3
ENDMDL
MODEL 3
REMARK VINA RESULT:      -9.1      1.006      1.933
REMARK  3 active torsions:
REMARK  status: ('A' for Active; 'I' for Inactive)
REMARK    1  A    between atoms: C_15  and  N_1 
REMARK       I    between atoms: C_6  and  N_7 
REMARK    2  A    between atoms: C_11  and  C_6 
REMARK    3  A    between atoms: N_7  and  C_8 
ROOT
ATOM      1  N   UNL d   1      52.804  34.724  53.903  0.00  0.00    -0.273 N 
ATOM      2  C   UNL d   1      51.791  34.837  53.578  0.00  0.00     0.265 A 
ATOM      3  C   UNL d   1      52.948  33.924  53.777  0.00  0.00     0.067 A 
ATOM      4  C   UNL d   1      52.256  33.602  53.466  0.00  0.00     0.022 A 
ATOM      5  C   UNL d   1      51.613  34.074  53.348  0.00  0.00     0.058 A 
ATOM      6  C   UNL d   1      52.889  32.331  53.404  0.00  0.00     0.084 A 
ATOM      7  C   UNL d   1      52.226  32.805  53.280  0.00  0.00     0.019 A 
ATOM      8  C   UNL d   1      53.612  33.450  53.902  0.00  0.00     0.019 A 
ATOM      9  O   UNL d   1      51.230  35.438  53.516  0.00  0.00    -0.267 OA
ATOM     10  C   UNL d   1      53.583  32.653  53.715  0.00  0.00     0.021 A 
ATOM     11  C   UNL d   1      50.920  33.752  53.037  0.00  0.00     0.005 A 
ATOM     12  C   UNL d   1      51.553  32.481  52.975  0.00  0.00     0.002 A 
ATOM     13  C   UNL d   1      50.890  32.955  52.851  0.00  0.00     0.000 A 
ENDROOT
BRANCH   6  14
ATOM     14  N   UNL d   1      52.860  31.535  53.218  0.00  0.00    -0.212 NA
ATOM     15  C   UNL d   1      53.298  30.994  53.661  0.00  0.00     0.255 C 
ATOM     16  O   UNL d   1      53.752  31.255  54.275  0.00  0.00    -0.270 OA
BRANCH  15  17
ATOM     17  C   UNL d   1      53.268  30.198  53.475  0.00  0.00     0.073 C 
ATOM     18  C   UNL d   1      53.172  29.964  52.690  0.00  0.00     0.009 C 
ATOM     19  C   UNL d   1      53.335  29.634  54.074  0.00  0.00     0.009 C 
ATOM     20  C   UNL d   1      53.235  29.282  53.270  0.00  0.00     0.009 C 
ENDBRANCH  15  17
ENDBRANCH   6  14
BRANCH   1  21
ATOM     21  C   UNL d   1      53.422  35.192  54.220  0.00  0.00     0.083 C 
ATOM     22  C   UNL d   1      53.250  35.914  54.524  0.00  0.00     0.021 C 
ENDBRANCH   1  21
TORSDOF 3
ENDMDL
MODEL 4
REMARK VINA RESULT:      -9.0      1.435      3.896
REMARK  3 active torsions:
REMARK  status: ('A' for Active; 'I' for Inactive)
REMARK    1  A    between atoms: C_15  and  N_1 
REMARK       I    between atoms: C_6  and  N_7 
REMARK    2  A    between atoms: C_11  and  C_6 
REMARK    3  A    between atoms: N_7  and  C_8 
ROOT
ATOM      1  N   UNL d   1      53.619  32.327  53.719  0.00  0.00    -0.273 N 
ATOM      2  C   UNL d   1      54.130  33.064  54.302  0.00  0.00     0.265 A 
ATOM      3  C   UNL d   1      52.954  32.732  53.455  0.00  0.00     0.067 A 
ATOM      4  C   UNL d   1      53.001  33.496  53.761  0.00  0.00     0.022 A 
ATOM      5  C   UNL d   1      53.628  33.704  54.224  0.00  0.00     0.058 A 
ATOM      6  C   UNL d   1      51.774  33.817  53.119  0.00  0.00     0.084 A 
ATOM      7  C   UNL d   1      52.411  34.039  53.593  0.00  0.00     0.019 A 
ATOM      8  C   UNL d   1      52.316  32.509  52.980  0.00  0.00     0.019 A 
ATOM      9  O   UNL d   1      54.820  33.123  54.750  0.00  0.00    -0.267 OA
ATOM     10  C   UNL d   1      51.726  33.052  52.812  0.00  0.00     0.021 A 
ATOM     11  C   UNL d   1      53.675  34.468  54.530  0.00  0.00     0.005 A 
ATOM     12  C   UNL d   1      52.448  34.788  53.888  0.00  0.00     0.002 A 
ATOM     13  C   UNL d   1      53.085  35.011  54.362  0.00  0.00     0.000 A 
ENDROOT
BRANCH   6  14
ATOM     14  N   UNL d   1      51.185  34.358  52.951  0.00  0.00    -0.212 NA
ATOM     15  C   UNL d   1      50.406  34.102  52.860  0.00  0.00     0.255 C 
ATOM     16  O   UNL d   1      50.232  33.318  52.938  0.00  0.00    -0.270 OA
BRANCH  15  17
ATOM     17  C   UNL d   1      49.816  34.644  52.693  0.00  0.00     0.073 C 
ATOM     18  C   UNL d   1      49.493  35.099  53.300  0.00  0.00     0.009 C 
ATOM     19  C   UNL d   1      49.548  34.731  51.917  0.00  0.00     0.009 C 
ATOM     20  C   UNL d   1      49.140  35.263  52.491  0.00  0.00     0.009 C 
ENDBRANCH  15  17
ENDBRANCH   6  14
BRANCH   1  21
ATOM     21  C   UNL d   1      53.714  31.528  53.488  0.00  0.00     0.083 C 
ATOM     22  C   UNL d   1      53.996  30.997  54.017  0.00  0.00     0.021 C 
ENDBRANCH   1  21
TORSDOF 3
ENDMDL
