MODEL 1
REMARK VINA RESULT:       2.3      0.000      0.000
REMARK  3 active torsions:
REMARK  status: ('A' for Active; 'I' for Inactive)
REMARK    1  A    between atoms: C_5  and  C_1 
REMARK    2  A    between atoms: N_8  and  C_5 
REMARK    3  A    between atoms: C_10  and  C_5 
ROOT
ATOM      1  C   UNL d   1     -41.670-122.108 -51.787  0.00  0.00     0.067 C 
ENDROOT
BRANCH   1   2
ATOM      2  C   UNL d   1     -41.933-122.493 -51.103  0.00  0.00     0.057 A 
ATOM      3  C   UNL d   1     -42.738-122.505 -50.932  0.00  0.00     0.214 A 
ATOM      4  C   UNL d   1     -42.998-122.890 -50.250  0.00  0.00     0.121 A 
ATOM      5  O   UNL d   1     -43.284-122.143 -51.426  0.00  0.00    -0.285 OA
ATOM      6  N   UNL d   1     -43.806-122.903 -50.076  0.00  0.00    -0.241 NA
ATOM      7  C   UNL d   1     -42.453-123.261 -49.741  0.00  0.00     0.032 A 
ATOM      8  C   UNL d   1     -44.060-123.285 -49.399  0.00  0.00     0.099 A 
ATOM      9  C   UNL d   1     -43.515-123.656 -48.890  0.00  0.00     0.021 A 
ATOM     10  C   UNL d   1     -42.725-123.638 -49.069  0.00  0.00     0.004 A 
ATOM     11  C   UNL d   1     -41.649-123.246 -49.916  0.00  0.00     0.059 A 
ATOM     12  C   UNL d   1     -41.388-122.864 -50.594  0.00  0.00     0.016 A 
ATOM     13 CL   UNL d   1     -41.123-123.613 -49.410  0.00  0.00    -0.082 Cl
ENDBRANCH   1   2
BRANCH   1  14
ATOM     14  N   UNL d   1     -41.463-121.314 -51.761  0.00  0.00    -0.304 N 
ATOM     15  C   UNL d   1     -41.386-120.884 -52.459  0.00  0.00     0.080 A 
ATOM     16  C   UNL d   1     -41.181-120.094 -52.445  0.00  0.00     0.021 A 
ATOM     17  C   UNL d   1     -41.123-120.144 -51.006  0.00  0.00     0.021 A 
ATOM     18  C   UNL d   1     -41.331-120.942 -51.032  0.00  0.00     0.080 A 
ENDBRANCH   1  14
BRANCH   1  19
ATOM     19  C   UNL d   1     -41.614-122.529 -52.507  0.00  0.00     0.016 A 
ATOM     20  C   UNL d   1     -41.978-122.247 -53.180  0.00  0.00     0.002 A 
ATOM     21  C   UNL d   1     -41.926-122.656 -53.888  0.00  0.00     0.011 A 
ATOM     22  C   UNL d   1     -41.497-123.369 -53.920  0.00  0.00     0.058 A 
ATOM     23  C   UNL d   1     -41.125-123.658 -53.235  0.00  0.00     0.011 A 
ATOM     24 CL   UNL d   1     -41.439-123.785 -54.619  0.00  0.00    -0.082 Cl
ATOM     25  C   UNL d   1     -41.188-123.231 -52.527  0.00  0.00     0.002 A 
ENDBRANCH   1  19
TORSDOF 3
ENDMDL
