MODEL 1
REMARK VINA RESULT:      -4.3      0.000      0.000
REMARK  10 active torsions:
REMARK  status: ('A' for Active; 'I' for Inactive)
REMARK    1  A    between atoms: C_11  and  C_1 
REMARK    2  A    between atoms: C_21  and  N_5 
REMARK    3  A    between atoms: N_20  and  C_8 
REMARK    4  A    between atoms: C_9  and  C_11 
REMARK    5  A    between atoms: C_25  and  N_20 
REMARK    6  A    between atoms: C_28  and  C_21 
REMARK    7  A    between atoms: C_22  and  C_25 
REMARK    8  A    between atoms: C_26  and  C_22 
REMARK    9  A    between atoms: O_24  and  C_26 
REMARK   10  A    between atoms: C_27  and  O_24 
ROOT
ATOM      1  C   UNL d   1     -40.119  14.924  20.474  0.00  0.00     0.093 A 
ATOM      2  N   UNL d   1     -39.051  15.046  21.427  0.00  0.00    -0.258 N 
ATOM      3  N   UNL d   1     -40.066  14.045  21.619  0.00  0.00    -0.209 NA
ATOM      4  C   UNL d   1     -39.373  14.416  21.876  0.00  0.00     0.152 A 
ATOM      5  C   UNL d   1     -39.415  15.305  20.729  0.00  0.00     0.269 A 
ATOM      6  C   UNL d   1     -40.445  14.293  20.919  0.00  0.00     0.169 A 
ATOM      7  C   UNL d   1     -39.003  14.169  22.566  0.00  0.00     0.035 A 
ATOM      8  C   UNL d   1     -38.358  15.417  21.684  0.00  0.00     0.084 A 
ATOM      9  O   UNL d   1     -39.098  15.919  20.295  0.00  0.00    -0.266 OA
ATOM     10  C   UNL d   1     -37.993  15.160  22.380  0.00  0.00     0.019 A 
ATOM     11  C   UNL d   1     -38.314  14.540  22.819  0.00  0.00     0.005 A 
ATOM     12  C   UNL d   1     -39.324  13.548  23.004  0.00  0.00     0.003 C 
ENDROOT
BRANCH   1  13
ATOM     13  C   UNL d   1     -40.492  15.167  19.786  0.00  0.00     0.019 C 
BRANCH  13  14
ATOM     14  C   UNL d   1     -40.200  14.918  19.055  0.00  0.00     0.088 A 
ATOM     15  C   UNL d   1     -40.368  15.265  18.324  0.00  0.00     0.272 A 
ATOM     16  N   UNL d   1     -39.964  14.843  17.740  0.00  0.00    -0.259 N 
ATOM     17  O   UNL d   1     -40.858  15.922  18.197  0.00  0.00    -0.266 OA
ATOM     18  C   UNL d   1     -39.543  14.231  18.116  0.00  0.00     0.153 A 
ATOM     19  S   UNL d   1     -39.695  14.285  18.927  0.00  0.00    -0.053 SA
ATOM     20  S   UNL d   1     -39.066  13.679  17.747  0.00  0.00    -0.052 SA
BRANCH  16  21
ATOM     21  C   UNL d   1     -39.970  14.995  16.932  0.00  0.00     0.084 C 
BRANCH  21  22
ATOM     22  C   UNL d   1     -39.621  15.689  16.642  0.00  0.00     0.019 C 
ATOM     23  C   UNL d   1     -39.410  15.746  15.845  0.00  0.00     0.002 C 
ENDBRANCH  21  22
ENDBRANCH  16  21
ENDBRANCH  13  14
ENDBRANCH   1  13
BRANCH   6  24
ATOM     24  N   UNL d   1     -41.135  13.922  20.665  0.00  0.00    -0.225 NA
BRANCH  24  25
ATOM     25  C   UNL d   1     -41.706  13.694  21.205  0.00  0.00     0.103 C 
BRANCH  25  26
ATOM     26  C   UNL d   1     -42.382  13.296  20.954  0.00  0.00     0.047 C 
BRANCH  26  27
ATOM     27  C   UNL d   1     -42.889  12.958  21.504  0.00  0.00     0.124 C 
BRANCH  27  28
ATOM     28  O   UNL d   1     -43.702  12.956  21.369  0.00  0.00    -0.303 OA
BRANCH  28  29
ATOM     29  C   UNL d   1     -44.219  12.667  21.950  0.00  0.00     0.123 C 
ATOM     30  C   UNL d   1     -45.029  12.815  21.890  0.00  0.00     0.029 C 
ENDBRANCH  28  29
ENDBRANCH  27  28
ENDBRANCH  26  27
ENDBRANCH  25  26
ENDBRANCH  24  25
ENDBRANCH   6  24
TORSDOF 10
ENDMDL
