MODEL 1
REMARK VINA RESULT:      82.8      0.000      0.000
REMARK  5 active torsions:
REMARK  status: ('A' for Active; 'I' for Inactive)
REMARK    1  A    between atoms: C_10  and  N_2 
REMARK    2  A    between atoms: C_11  and  N_4 
REMARK    3  A    between atoms: C_12  and  C_11 
REMARK       I    between atoms: N_16  and  C_12 
REMARK       I    between atoms: C_15  and  N_17 
REMARK    4  A    between atoms: C_22  and  N_16 
REMARK    5  A    between atoms: N_17  and  C_23 
ROOT
ATOM      1  C   UNL d   1      13.900  13.677  -2.905  0.00  0.00     0.172 A 
ATOM      2  N   UNL d   1      14.383  15.003  -2.625  0.00  0.00    -0.226 N 
ATOM      3  C   UNL d   1      14.164  15.229  -3.409  0.00  0.00     0.342 A 
ATOM      4  N   UNL d   1      13.825  14.684  -3.913  0.00  0.00    -0.252 N 
ATOM      5  C   UNL d   1      13.692  13.914  -3.667  0.00  0.00     0.098 A 
ATOM      6  C   UNL d   1      14.246  14.227  -2.385  0.00  0.00     0.292 A 
ATOM      7  O   UNL d   1      13.708  12.887  -2.807  0.00  0.00    -0.301 OA
ATOM      8  C   UNL d   1      13.372  13.249  -4.024  0.00  0.00     0.041 A 
ATOM      9  C   UNL d   1      13.388  12.632  -3.488  0.00  0.00     0.102 A 
ATOM     10  O   UNL d   1      14.296  16.017  -3.672  0.00  0.00    -0.245 OA
ATOM     11  O   UNL d   1      14.457  13.990  -1.611  0.00  0.00    -0.264 OA
ATOM     12  C   UNL d   1      13.062  13.133  -4.788  0.00  0.00     0.004 A 
ATOM     13  C   UNL d   1      13.095  11.886  -3.704  0.00  0.00     0.025 A 
ATOM     14  C   UNL d   1      12.769  12.387  -5.004  0.00  0.00     0.000 A 
ATOM     15  C   UNL d   1      12.792  11.780  -4.457  0.00  0.00     0.002 A 
ENDROOT
BRANCH   4  16
ATOM     16  C   UNL d   1      13.607  14.911  -4.697  0.00  0.00     0.147 C 
BRANCH  16  17
ATOM     17  C   UNL d   1      13.605  15.734  -4.903  0.00  0.00     0.297 C 
ATOM     18  N   UNL d   1      13.953  15.976  -5.594  0.00  0.00    -0.207 NA
ATOM     19  O   UNL d   1      13.245  16.274  -4.393  0.00  0.00    -0.264 OA
BRANCH  18  20
ATOM     20  C   UNL d   1      13.950  16.764  -5.789  0.00  0.00     0.085 A 
ATOM     21  C   UNL d   1      13.305  17.102  -6.178  0.00  0.00     0.021 A 
ATOM     22  C   UNL d   1      13.304  17.897  -6.374  0.00  0.00     0.021 A 
ATOM     23  C   UNL d   1      13.957  18.370  -6.181  0.00  0.00     0.085 A 
ATOM     24  C   UNL d   1      14.612  18.038  -5.789  0.00  0.00     0.021 A 
ATOM     25  C   UNL d   1      14.609  17.234  -5.593  0.00  0.00     0.021 A 
BRANCH  23  26
ATOM     26  N   UNL d   1      13.961  19.174  -6.377  0.00  0.00    -0.208 NA
ATOM     27  C   UNL d   1      14.049  19.745  -5.777  0.00  0.00     0.279 C 
ATOM     28  O   UNL d   1      14.052  20.522  -5.971  0.00  0.00    -0.265 OA
ATOM     29  C   UNL d   1      14.132  19.487  -4.980  0.00  0.00     0.068 C 
ENDBRANCH  23  26
ENDBRANCH  18  20
ENDBRANCH  16  17
ENDBRANCH   4  16
BRANCH   2  30
ATOM     30  C   UNL d   1      14.729  15.546  -2.099  0.00  0.00     0.071 A 
ATOM     31  C   UNL d   1      14.745  16.344  -2.278  0.00  0.00     0.020 A 
ATOM     32  C   UNL d   1      15.083  16.883  -1.767  0.00  0.00     0.031 A 
ATOM     33  C   UNL d   1      15.413  16.617  -1.060  0.00  0.00     0.140 A 
ATOM     34  C   UNL d   1      15.405  15.831  -0.871  0.00  0.00     0.031 A 
ATOM     35  F   UNL d   1      15.759  17.167  -0.538  0.00  0.00    -0.204 F 
ATOM     36  C   UNL d   1      15.060  15.281  -1.392  0.00  0.00     0.020 A 
ENDBRANCH   2  30
TORSDOF 5
ENDMDL
