MODEL 1
REMARK VINA RESULT:      42.7      0.000      0.000
REMARK  2 active torsions:
REMARK  status: ('A' for Active; 'I' for Inactive)
REMARK    1  A    between atoms: C_8  and  N_1 
REMARK    2  A    between atoms: C_12  and  C_8 
ROOT
ATOM      1  N   UNL d   1     -50.741  26.208  33.306  0.00  0.00    -0.238 N 
ATOM      2  C   UNL d   1     -51.409  26.287  33.306  0.00  0.00     0.267 A 
ATOM      3  C   UNL d   1     -50.358  25.523  33.306  0.00  0.00     0.267 A 
ATOM      4  C   UNL d   1     -50.698  24.770  33.306  0.00  0.00     0.057 A 
ATOM      5  C   UNL d   1     -52.037  25.788  33.306  0.00  0.00     0.057 A 
ATOM      6  C   UNL d   1     -51.510  24.586  33.306  0.00  0.00     0.005 A 
ATOM      7  C   UNL d   1     -52.094  25.096  33.306  0.00  0.00     0.005 A 
ATOM      8  O   UNL d   1     -51.643  27.135  33.306  0.00  0.00    -0.267 OA
ATOM      9  O   UNL d   1     -49.575  25.549  33.306  0.00  0.00    -0.267 OA
ATOM     10  C   UNL d   1     -52.595  26.187  33.306  0.00  0.00     0.005 A 
ATOM     11  C   UNL d   1     -50.125  24.176  33.306  0.00  0.00     0.005 A 
ATOM     12  C   UNL d   1     -51.736  23.796  33.306  0.00  0.00     0.000 A 
ATOM     13  C   UNL d   1     -52.728  24.804  33.306  0.00  0.00     0.000 A 
ATOM     14  C   UNL d   1     -50.363  23.381  33.306  0.00  0.00     0.000 A 
ATOM     15  C   UNL d   1     -51.171  23.194  33.306  0.00  0.00     0.000 A 
ATOM     16  C   UNL d   1     -53.290  25.210  33.306  0.00  0.00     0.000 A 
ATOM     17  C   UNL d   1     -53.226  25.898  33.306  0.00  0.00     0.000 A 
ENDROOT
BRANCH   1  18
ATOM     18  C   UNL d   1     -50.243  26.944  33.306  0.00  0.00     0.111 C 
BRANCH  18  19
ATOM     19  C   UNL d   1     -49.929  27.261  34.065  0.00  0.00     0.118 A 
ATOM     20  O   UNL d   1     -50.261  27.104  34.867  0.00  0.00    -0.304 OA
ATOM     21  C   UNL d   1     -49.767  27.535  35.455  0.00  0.00     0.123 A 
ATOM     22  C   UNL d   1     -49.127  27.960  35.017  0.00  0.00     0.029 A 
ATOM     23  C   UNL d   1     -49.231  27.788  34.158  0.00  0.00     0.028 A 
ENDBRANCH  18  19
ENDBRANCH   1  18
TORSDOF 2
ENDMDL
