MODEL 1
REMARK VINA RESULT:       2.7      0.000      0.000
REMARK  0 active torsions:
REMARK  status: ('A' for Active; 'I' for Inactive)
ROOT
ATOM      1  N   UNL d   1     -54.711-100.930 -36.642  0.00  0.00    -0.219 NA
ATOM      2  C   UNL d   1     -54.715-100.669 -35.859  0.00  0.00     0.215 A 
ATOM      3  S   UNL d   1     -54.720-101.323 -35.367  0.00  0.00    -0.045 SA
ATOM      4  C   UNL d   1     -54.714-101.755 -36.629  0.00  0.00     0.090 A 
ATOM      5  C   UNL d   1     -54.719-102.005 -35.838  0.00  0.00     0.050 A 
ATOM      6  N   UNL d   1     -54.714 -99.878 -35.613  0.00  0.00    -0.120 N 
ATOM      7  C   UNL d   1     -54.712-102.252 -37.288  0.00  0.00     0.021 C 
ATOM      8  C   UNL d   1     -54.724-102.779 -35.568  0.00  0.00     0.009 C 
ENDROOT
TORSDOF 0
ENDMDL
MODEL 2
REMARK VINA RESULT:       3.7      1.709      2.379
REMARK  0 active torsions:
REMARK  status: ('A' for Active; 'I' for Inactive)
ROOT
ATOM      1  N   UNL d   1     -54.714-101.545 -38.093  0.00  0.00    -0.219 NA
ATOM      2  C   UNL d   1     -54.761-102.281 -38.462  0.00  0.00     0.215 A 
ATOM      3  S   UNL d   1     -54.837-102.857 -37.885  0.00  0.00    -0.045 SA
ATOM      4  C   UNL d   1     -54.762-101.671 -37.279  0.00  0.00     0.090 A 
ATOM      5  C   UNL d   1     -54.838-102.486 -37.144  0.00  0.00     0.050 A 
ATOM      6  N   UNL d   1     -54.736-102.415 -39.279  0.00  0.00    -0.120 N 
ATOM      7  C   UNL d   1     -54.738-101.090 -36.694  0.00  0.00     0.021 C 
ATOM      8  C   UNL d   1     -54.904-102.859 -36.417  0.00  0.00     0.009 C 
ENDROOT
TORSDOF 0
ENDMDL
MODEL 3
REMARK VINA RESULT:       4.6      9.031      9.525
REMARK  0 active torsions:
REMARK  status: ('A' for Active; 'I' for Inactive)
ROOT
ATOM      1  N   UNL d   1     -58.092 -98.755 -44.972  0.00  0.00    -0.219 NA
ATOM      2  C   UNL d   1     -57.663 -98.755 -44.267  0.00  0.00     0.215 A 
ATOM      3  S   UNL d   1     -58.191 -98.755 -43.641  0.00  0.00    -0.045 SA
ATOM      4  C   UNL d   1     -58.893 -98.755 -44.776  0.00  0.00     0.090 A 
ATOM      5  C   UNL d   1     -58.960 -98.755 -43.949  0.00  0.00     0.050 A 
ATOM      6  N   UNL d   1     -56.837 -98.755 -44.203  0.00  0.00    -0.120 N 
ATOM      7  C   UNL d   1     -59.524 -98.755 -45.307  0.00  0.00     0.021 C 
ATOM      8  C   UNL d   1     -59.655 -98.755 -43.514  0.00  0.00     0.009 C 
ENDROOT
TORSDOF 0
ENDMDL
MODEL 4
REMARK VINA RESULT:       4.7      9.488     10.062
REMARK  0 active torsions:
REMARK  status: ('A' for Active; 'I' for Inactive)
ROOT
ATOM      1  N   UNL d   1     -59.933 -98.799 -44.512  0.00  0.00    -0.219 NA
ATOM      2  C   UNL d   1     -59.570 -98.773 -45.252  0.00  0.00     0.215 A 
ATOM      3  S   UNL d   1     -58.758 -98.758 -45.143  0.00  0.00    -0.045 SA
ATOM      4  C   UNL d   1     -59.337 -98.802 -43.942  0.00  0.00     0.090 A 
ATOM      5  C   UNL d   1     -58.604 -98.776 -44.329  0.00  0.00     0.050 A 
ATOM      6  N   UNL d   1     -59.960 -98.762 -45.982  0.00  0.00    -0.120 N 
ATOM      7  C   UNL d   1     -59.445 -98.825 -43.124  0.00  0.00     0.021 C 
ATOM      8  C   UNL d   1     -57.863 -98.770 -43.978  0.00  0.00     0.009 C 
ENDROOT
TORSDOF 0
ENDMDL
