MODEL 1
REMARK VINA RESULT:      69.4      0.000      0.000
REMARK  4 active torsions:
REMARK  status: ('A' for Active; 'I' for Inactive)
REMARK    1  A    between atoms: N_7  and  C_1 
REMARK    2  A    between atoms: C_11  and  C_2 
REMARK    3  A    between atoms: N_6  and  C_12 
REMARK       I    between atoms: C_8  and  N_7 
REMARK    4  A    between atoms: C_14  and  C_8 
REMARK       I    between atoms: N_26  and  C_11 
ROOT
ATOM      1  N   UNL d   1      13.751  14.224  -4.001  0.00  0.00    -0.201 NA
ATOM      2  C   UNL d   1      14.301  14.974  -3.610  0.00  0.00     0.280 C 
ATOM      3  O   UNL d   1      14.713  15.052  -3.029  0.00  0.00    -0.265 OA
ENDROOT
BRANCH   1   4
ATOM      4  C   UNL d   1      13.810  13.601  -3.541  0.00  0.00     0.119 A 
ATOM      5  C   UNL d   1      13.690  12.803  -3.469  0.00  0.00     0.082 A 
ATOM      6  C   UNL d   1      13.933  12.572  -2.716  0.00  0.00     0.013 A 
ATOM      7  C   UNL d   1      13.941  11.841  -2.337  0.00  0.00     0.001 A 
ATOM      8  C   UNL d   1      14.205  13.250  -2.325  0.00  0.00     0.031 A 
ATOM      9  C   UNL d   1      14.223  11.780  -1.560  0.00  0.00     0.000 A 
ATOM     10  C   UNL d   1      14.494  12.458  -1.175  0.00  0.00     0.001 A 
ATOM     11  C   UNL d   1      14.486  13.186  -1.551  0.00  0.00     0.006 A 
ATOM     12  C   UNL d   1      14.777  12.406  -0.400  0.00  0.00     0.000 C 
ATOM     13  S   UNL d   1      14.130  13.885  -2.834  0.00  0.00    -0.068 SA
BRANCH   5  14
ATOM     14  C   UNL d   1      13.379  12.311  -4.055  0.00  0.00     0.281 C 
ATOM     15  O   UNL d   1      12.770  11.784  -3.878  0.00  0.00    -0.265 OA
ATOM     16  N   UNL d   1      13.680  12.349  -4.824  0.00  0.00    -0.205 NA
ATOM     17  C   UNL d   1      13.374  11.861  -5.414  0.00  0.00     0.123 C 
ENDBRANCH   5  14
ENDBRANCH   1   4
BRANCH   2  18
ATOM     18  C   UNL d   1      14.268  15.659  -4.068  0.00  0.00     0.058 A 
ATOM     19  C   UNL d   1      14.457  16.388  -3.738  0.00  0.00     0.006 A 
ATOM     20  C   UNL d   1      14.424  17.066  -4.192  0.00  0.00     0.018 A 
ATOM     21  C   UNL d   1      14.204  17.040  -4.977  0.00  0.00     0.070 A 
ATOM     22  C   UNL d   1      14.009  16.301  -5.321  0.00  0.00     0.018 A 
ATOM     23  C   UNL d   1      14.039  15.617  -4.877  0.00  0.00     0.006 A 
BRANCH  21  24
ATOM     24  N   UNL d   1      14.172  17.727  -5.432  0.00  0.00    -0.242 N 
ATOM     25  C   UNL d   1      13.654  17.838  -6.072  0.00  0.00     0.267 A 
ATOM     26  C   UNL d   1      13.786  18.597  -6.388  0.00  0.00     0.066 A 
ATOM     27  O   UNL d   1      13.086  17.276  -6.358  0.00  0.00    -0.267 OA
ATOM     28  C   UNL d   1      14.382  18.942  -5.940  0.00  0.00     0.066 A 
ATOM     29  C   UNL d   1      14.617  18.418  -5.360  0.00  0.00     0.267 A 
ATOM     30  O   UNL d   1      15.205  18.552  -4.792  0.00  0.00    -0.267 OA
ENDBRANCH  21  24
ENDBRANCH   2  18
TORSDOF 4
ENDMDL
