MODEL 1
REMARK VINA RESULT:      23.4      0.000      0.000
REMARK  2 active torsions:
REMARK  status: ('A' for Active; 'I' for Inactive)
REMARK    1  A    between atoms: C_7  and  C_1 
REMARK    2  A    between atoms: C_11  and  C_7 
ROOT
ATOM      1  C   UNL d   1     -57.213 -98.768 -44.352  0.00  0.00     0.116 A 
ATOM      2  N   UNL d   1     -58.455 -98.777 -45.050  0.00  0.00    -0.152 NA
ATOM      3  N   UNL d   1     -58.441 -98.788 -43.626  0.00  0.00    -0.152 NA
ATOM      4  C   UNL d   1     -57.615 -98.778 -43.630  0.00  0.00     0.288 A 
ATOM      5  C   UNL d   1     -57.630 -98.767 -45.058  0.00  0.00     0.288 A 
ATOM      6  C   UNL d   1     -58.858 -98.787 -44.332  0.00  0.00     0.374 A 
ATOM      7  O   UNL d   1     -57.225 -98.756 -45.800  0.00  0.00    -0.265 OA
ATOM      8  O   UNL d   1     -57.196 -98.779 -42.921  0.00  0.00    -0.265 OA
ATOM      9  O   UNL d   1     -59.690 -98.797 -44.343  0.00  0.00    -0.242 OA
ENDROOT
BRANCH   1  10
ATOM     10  C   UNL d   1     -56.375 -98.758 -44.362  0.00  0.00     0.010 C 
BRANCH  10  11
ATOM     11  C   UNL d   1     -55.956 -99.470 -44.373  0.00  0.00     0.001 A 
ATOM     12  C   UNL d   1     -55.164 -99.480 -44.585  0.00  0.00     0.003 A 
ATOM     13  C   UNL d   1     -54.748-100.193 -44.595  0.00  0.00     0.042 A 
ATOM     14  C   UNL d   1     -55.130-100.887 -44.392  0.00  0.00     0.196 A 
ATOM     15  C   UNL d   1     -55.922-100.877 -44.180  0.00  0.00     0.042 A 
ATOM     16  O   UNL d   1     -54.714-101.618 -44.399  0.00  0.00    -0.287 OA
ATOM     17  C   UNL d   1     -56.342-100.172 -44.168  0.00  0.00     0.003 A 
ENDBRANCH  10  11
ENDBRANCH   1  10
TORSDOF 2
ENDMDL
