MODEL 1
REMARK VINA RESULT:      10.9      0.000      0.000
REMARK  5 active torsions:
REMARK  status: ('A' for Active; 'I' for Inactive)
REMARK    1  A    between atoms: C_2  and  C_1 
REMARK    2  A    between atoms: C_6  and  C_2 
REMARK    3  A    between atoms: C_3  and  O_5 
REMARK    4  A    between atoms: C_11  and  C_3 
REMARK    5  A    between atoms: O_5  and  C_6 
ROOT
ATOM      1  O   UNL d   1      14.200  12.220  -2.482  0.00  0.00    -0.268 OA
ENDROOT
BRANCH   1   2
ATOM      2  C   UNL d   1      13.451  12.100  -2.818  0.00  0.00     0.300 C 
ATOM      3  O   UNL d   1      12.860  11.780  -2.361  0.00  0.00    -0.259 OA
BRANCH   2   4
ATOM      4  C   UNL d   1      13.305  12.301  -3.599  0.00  0.00     0.064 A 
ATOM      5  C   UNL d   1      13.485  11.779  -4.202  0.00  0.00     0.005 A 
ATOM      6  C   UNL d   1      13.339  11.982  -4.979  0.00  0.00     0.000 A 
ATOM      7  C   UNL d   1      13.012  12.708  -5.162  0.00  0.00     0.000 A 
ATOM      8  C   UNL d   1      12.829  13.237  -4.558  0.00  0.00     0.000 A 
ATOM      9  C   UNL d   1      12.974  13.038  -3.773  0.00  0.00     0.005 A 
ENDBRANCH   2   4
ENDBRANCH   1   2
BRANCH   1  10
ATOM     10  C   UNL d   1      14.331  11.997  -1.685  0.00  0.00     0.168 C 
BRANCH  10  11
ATOM     11  C   UNL d   1      15.016  12.212  -1.291  0.00  0.00     0.226 C 
ATOM     12  O   UNL d   1      15.716  11.780  -1.360  0.00  0.00    -0.284 OA
BRANCH  11  13
ATOM     13  C   UNL d   1      14.983  12.916  -0.791  0.00  0.00     0.070 A 
ATOM     14  S   UNL d   1      15.653  13.370  -0.506  0.00  0.00    -0.083 SA
ATOM     15  C   UNL d   1      15.354  14.025  -0.026  0.00  0.00     0.035 A 
ATOM     16  C   UNL d   1      14.491  13.976  -0.014  0.00  0.00     0.008 A 
ATOM     17  C   UNL d   1      14.258  13.292  -0.486  0.00  0.00     0.010 A 
ENDBRANCH  11  13
ENDBRANCH  10  11
ENDBRANCH   1  10
TORSDOF 5
ENDMDL
MODEL 2
REMARK VINA RESULT:      12.9      9.732     10.405
REMARK  5 active torsions:
REMARK  status: ('A' for Active; 'I' for Inactive)
REMARK    1  A    between atoms: C_2  and  C_1 
REMARK    2  A    between atoms: C_6  and  C_2 
REMARK    3  A    between atoms: C_3  and  O_5 
REMARK    4  A    between atoms: C_11  and  C_3 
REMARK    5  A    between atoms: O_5  and  C_6 
ROOT
ATOM      1  O   UNL d   1      23.918  12.354  -3.408  0.00  0.00    -0.268 OA
ENDROOT
BRANCH   1   2
ATOM      2  C   UNL d   1      24.407  12.849  -3.860  0.00  0.00     0.300 C 
ATOM      3  O   UNL d   1      24.768  13.483  -3.501  0.00  0.00    -0.259 OA
BRANCH   2   4
ATOM      4  C   UNL d   1      24.527  12.703  -4.657  0.00  0.00     0.064 A 
ATOM      5  C   UNL d   1      24.549  13.319  -5.193  0.00  0.00     0.005 A 
ATOM      6  C   UNL d   1      24.668  13.171  -5.987  0.00  0.00     0.000 A 
ATOM      7  C   UNL d   1      24.768  12.405  -6.254  0.00  0.00     0.000 A 
ATOM      8  C   UNL d   1      24.747  11.780  -5.717  0.00  0.00     0.000 A 
ATOM      9  C   UNL d   1      24.627  11.924  -4.916  0.00  0.00     0.005 A 
ENDBRANCH   2   4
ENDBRANCH   1   2
BRANCH   1  10
ATOM     10  C   UNL d   1      24.171  12.116  -2.645  0.00  0.00     0.168 C 
BRANCH  10  11
ATOM     11  C   UNL d   1      23.666  12.147  -2.001  0.00  0.00     0.226 C 
ATOM     12  O   UNL d   1      22.855  12.010  -2.071  0.00  0.00    -0.284 OA
BRANCH  11  13
ATOM     13  C   UNL d   1      24.014  12.331  -1.232  0.00  0.00     0.070 A 
ATOM     14  S   UNL d   1      24.573  11.847  -0.796  0.00  0.00    -0.083 SA
ATOM     15  C   UNL d   1      24.767  12.252  -0.057  0.00  0.00     0.035 A 
ATOM     16  C   UNL d   1      24.325  12.994  -0.034  0.00  0.00     0.008 A 
ATOM     17  C   UNL d   1      23.858  13.047  -0.758  0.00  0.00     0.010 A 
ENDBRANCH  11  13
ENDBRANCH  10  11
ENDBRANCH   1  10
TORSDOF 5
ENDMDL
