MODEL 1
REMARK VINA RESULT:      11.7      0.000      0.000
REMARK  4 active torsions:
REMARK  status: ('A' for Active; 'I' for Inactive)
REMARK    1  A    between atoms: C_11  and  C_1 
REMARK    2  A    between atoms: C_6  and  C_17 
REMARK       I    between atoms: N_10  and  C_6 
REMARK    3  A    between atoms: C_17  and  N_8 
REMARK    4  A    between atoms: C_15  and  N_10 
ROOT
ATOM      1  N   UNL d   1      59.895  -3.364  28.868  0.00  0.00    -0.299 N 
ATOM      2  C   UNL d   1      58.922  -2.310  29.665  0.00  0.00     0.039 A 
ATOM      3  C   UNL d   1      59.636  -2.051  29.344  0.00  0.00     0.022 A 
ATOM      4  C   UNL d   1      58.690  -3.092  29.591  0.00  0.00     0.022 A 
ATOM      5  C   UNL d   1      59.180  -3.622  29.189  0.00  0.00     0.081 A 
ATOM      6  C   UNL d   1      60.119  -2.574  28.949  0.00  0.00     0.081 A 
ENDROOT
BRANCH   1   7
ATOM      7  C   UNL d   1      60.385  -3.895  28.467  0.00  0.00     0.144 C 
BRANCH   7   8
ATOM      8  C   UNL d   1      60.373  -4.699  28.665  0.00  0.00     0.297 C 
ATOM      9  N   UNL d   1      61.070  -5.070  28.845  0.00  0.00    -0.207 NA
ATOM     10  O   UNL d   1      59.671  -5.112  28.679  0.00  0.00    -0.264 OA
BRANCH   9  11
ATOM     11  C   UNL d   1      61.070  -5.872  29.045  0.00  0.00     0.087 A 
ATOM     12  C   UNL d   1      61.009  -6.089  29.827  0.00  0.00     0.045 A 
ATOM     13  C   UNL d   1      61.010  -6.890  30.026  0.00  0.00     0.121 A 
ATOM     14  O   UNL d   1      60.958  -7.283  30.749  0.00  0.00    -0.299 OA
ATOM     15  C   UNL d   1      61.072  -7.460  29.442  0.00  0.00     0.119 A 
ATOM     16  C   UNL d   1      60.988  -8.093  30.609  0.00  0.00     0.304 A 
ATOM     17  O   UNL d   1      61.058  -8.203  29.796  0.00  0.00    -0.300 OA
ATOM     18  C   UNL d   1      61.133  -7.225  28.649  0.00  0.00     0.028 A 
ATOM     19  C   UNL d   1      61.132  -6.429  28.455  0.00  0.00     0.021 A 
ENDBRANCH   9  11
ENDBRANCH   7   8
ENDBRANCH   1   7
BRANCH   2  20
ATOM     20  C   UNL d   1      58.432  -1.778  30.066  0.00  0.00     0.163 A 
ATOM     21  N   UNL d   1      57.900  -1.958  30.661  0.00  0.00    -0.225 NA
ATOM     22  C   UNL d   1      57.532  -1.265  30.901  0.00  0.00     0.101 A 
ATOM     23  C   UNL d   1      56.956  -1.117  31.473  0.00  0.00     0.021 A 
ATOM     24  C   UNL d   1      57.839  -0.645  30.448  0.00  0.00     0.101 A 
ATOM     25  C   UNL d   1      56.687  -0.350  31.593  0.00  0.00     0.002 A 
ATOM     26  C   UNL d   1      56.993   0.273  31.142  0.00  0.00     0.002 A 
ATOM     27  C   UNL d   1      57.566   0.127  30.572  0.00  0.00     0.021 A 
ATOM     28  N   UNL d   1      58.397  -0.961  29.931  0.00  0.00    -0.225 NA
ENDBRANCH   2  20
TORSDOF 4
ENDMDL
