MODEL 1
REMARK VINA RESULT:      -3.0      0.000      0.000
REMARK  7 active torsions:
REMARK  status: ('A' for Active; 'I' for Inactive)
REMARK    1  A    between atoms: N_2  and  S_1 
REMARK    2  A    between atoms: C_3  and  S_1 
REMARK    3  A    between atoms: C_4  and  C_7 
REMARK       I    between atoms: N_5  and  C_4 
REMARK    4  A    between atoms: C_15  and  N_5 
REMARK    5  A    between atoms: C_6  and  C_11 
REMARK    6  A    between atoms: O_20  and  C_6 
REMARK    7  A    between atoms: C_28  and  O_20 
ROOT
ATOM      1  C   UNL d   1      32.537  18.660 -23.762  0.00  0.00     0.104 A 
ATOM      2  C   UNL d   1      32.948  19.871 -23.119  0.00  0.00     0.059 A 
ATOM      3  C   UNL d   1      32.612  19.137 -23.093  0.00  0.00     0.018 A 
ATOM      4  C   UNL d   1      32.830  18.961 -24.516  0.00  0.00     0.013 A 
ATOM      5  C   UNL d   1      33.241  20.172 -23.873  0.00  0.00     0.005 A 
ATOM      6  C   UNL d   1      33.172  19.712 -24.533  0.00  0.00     0.001 A 
ENDROOT
BRANCH   2   7
ATOM      7  C   UNL d   1      33.008  20.323 -22.435  0.00  0.00     0.279 C 
ATOM      8  N   UNL d   1      32.841  21.124 -22.448  0.00  0.00    -0.208 NA
ATOM      9  O   UNL d   1      33.239  20.016 -21.688  0.00  0.00    -0.265 OA
BRANCH   8  10
ATOM     10  C   UNL d   1      32.902  21.588 -21.753  0.00  0.00     0.085 A 
ATOM     11  C   UNL d   1      32.696  22.407 -21.772  0.00  0.00     0.019 A 
ATOM     12  C   UNL d   1      32.769  22.862 -21.038  0.00  0.00     0.007 A 
ATOM     13  C   UNL d   1      33.041  22.484 -20.323  0.00  0.00     0.064 A 
ATOM     14  C   UNL d   1      33.239  21.683 -20.316  0.00  0.00     0.007 A 
ATOM     15  C   UNL d   1      33.175  21.218 -21.025  0.00  0.00     0.019 A 
BRANCH  13  16
ATOM     16  C   UNL d   1      33.114  22.898 -19.626  0.00  0.00     0.300 C 
ATOM     17  O   UNL d   1      33.228  23.691 -19.595  0.00  0.00    -0.259 OA
BRANCH  16  18
ATOM     18  O   UNL d   1      33.081  22.564 -18.879  0.00  0.00    -0.271 OA
BRANCH  18  19
ATOM     19  C   UNL d   1      32.919  23.030 -18.232  0.00  0.00     0.126 C 
ATOM     20  C   UNL d   1      32.821  22.691 -17.515  0.00  0.00     0.029 C 
ENDBRANCH  18  19
ENDBRANCH  16  18
ENDBRANCH  13  16
ENDBRANCH   8  10
ENDBRANCH   2   7
BRANCH   1  21
ATOM     21  S   UNL d   1      32.190  17.910 -23.716  0.00  0.00     0.272 S 
ATOM     22  O   UNL d   1      32.916  17.565 -23.470  0.00  0.00    -0.200 OA
ATOM     23  O   UNL d   1      31.473  18.230 -23.956  0.00  0.00    -0.200 OA
BRANCH  21  24
ATOM     24  N   UNL d   1      31.837  17.173 -23.675  0.00  0.00    -0.225 N 
ATOM     25  C   UNL d   1      31.082  17.074 -23.948  0.00  0.00     0.118 A 
ATOM     26  C   UNL d   1      30.717  16.343 -23.912  0.00  0.00     0.142 A 
ATOM     27  O   UNL d   1      31.109  15.705 -23.601  0.00  0.00    -0.300 OA
ATOM     28  C   UNL d   1      31.889  15.800 -23.317  0.00  0.00     0.142 A 
ATOM     29  C   UNL d   1      32.250  16.536 -23.355  0.00  0.00     0.118 A 
ENDBRANCH  21  24
ENDBRANCH   1  21
TORSDOF 7
ENDMDL
MODEL 2
REMARK VINA RESULT:      -2.1      1.703      6.157
REMARK  7 active torsions:
REMARK  status: ('A' for Active; 'I' for Inactive)
REMARK    1  A    between atoms: N_2  and  S_1 
REMARK    2  A    between atoms: C_3  and  S_1 
REMARK    3  A    between atoms: C_4  and  C_7 
REMARK       I    between atoms: N_5  and  C_4 
REMARK    4  A    between atoms: C_15  and  N_5 
REMARK    5  A    between atoms: C_6  and  C_11 
REMARK    6  A    between atoms: O_20  and  C_6 
REMARK    7  A    between atoms: C_28  and  O_20 
ROOT
ATOM      1  C   UNL d   1      32.652  22.593 -20.629  0.00  0.00     0.104 A 
ATOM      2  C   UNL d   1      32.709  21.682 -21.732  0.00  0.00     0.059 A 
ATOM      3  C   UNL d   1      32.773  21.839 -20.942  0.00  0.00     0.018 A 
ATOM      4  C   UNL d   1      32.451  23.235 -21.170  0.00  0.00     0.013 A 
ATOM      5  C   UNL d   1      32.508  22.324 -22.273  0.00  0.00     0.005 A 
ATOM      6  C   UNL d   1      32.388  23.065 -21.975  0.00  0.00     0.001 A 
ENDROOT
BRANCH   2   7
ATOM      7  C   UNL d   1      32.835  20.920 -22.014  0.00  0.00     0.279 C 
ATOM      8  N   UNL d   1      32.561  20.699 -22.753  0.00  0.00    -0.208 NA
ATOM      9  O   UNL d   1      33.241  20.322 -21.586  0.00  0.00    -0.265 OA
BRANCH   8  10
ATOM     10  C   UNL d   1      32.687  19.923 -23.044  0.00  0.00     0.085 A 
ATOM     11  C   UNL d   1      32.479  19.255 -22.572  0.00  0.00     0.019 A 
ATOM     12  C   UNL d   1      32.621  18.465 -22.899  0.00  0.00     0.007 A 
ATOM     13  C   UNL d   1      32.962  18.376 -23.677  0.00  0.00     0.064 A 
ATOM     14  C   UNL d   1      33.161  19.037 -24.129  0.00  0.00     0.007 A 
ATOM     15  C   UNL d   1      33.030  19.821 -23.828  0.00  0.00     0.019 A 
BRANCH  13  16
ATOM     16  C   UNL d   1      33.101  17.642 -23.998  0.00  0.00     0.300 C 
ATOM     17  O   UNL d   1      33.217  17.517 -24.781  0.00  0.00    -0.259 OA
BRANCH  16  18
ATOM     18  O   UNL d   1      33.139  16.945 -23.568  0.00  0.00    -0.271 OA
BRANCH  18  19
ATOM     19  C   UNL d   1      33.043  16.229 -23.945  0.00  0.00     0.126 C 
ATOM     20  C   UNL d   1      33.139  15.551 -23.535  0.00  0.00     0.029 C 
ENDBRANCH  18  19
ENDBRANCH  16  18
ENDBRANCH  13  16
ENDBRANCH   8  10
ENDBRANCH   2   7
BRANCH   1  21
ATOM     21  S   UNL d   1      32.722  22.735 -19.817  0.00  0.00     0.272 S 
ATOM     22  O   UNL d   1      33.229  23.391 -19.952  0.00  0.00    -0.200 OA
ATOM     23  O   UNL d   1      32.227  22.097 -19.666  0.00  0.00    -0.200 OA
BRANCH  21  24
ATOM     24  N   UNL d   1      32.783  22.867 -19.011  0.00  0.00    -0.225 N 
ATOM     25  C   UNL d   1      32.502  23.556 -18.695  0.00  0.00     0.118 A 
ATOM     26  C   UNL d   1      32.557  23.700 -17.891  0.00  0.00     0.142 A 
ATOM     27  O   UNL d   1      32.896  23.151 -17.400  0.00  0.00    -0.300 OA
ATOM     28  C   UNL d   1      33.188  22.436 -17.720  0.00  0.00     0.142 A 
ATOM     29  C   UNL d   1      33.130  22.297 -18.527  0.00  0.00     0.118 A 
ENDBRANCH  21  24
ENDBRANCH   1  21
TORSDOF 7
ENDMDL
