MODEL 1
REMARK VINA RESULT:      36.4      0.000      0.000
REMARK  8 active torsions:
REMARK  status: ('A' for Active; 'I' for Inactive)
REMARK    1  A    between atoms: C_6  and  N_1 
REMARK    2  A    between atoms: C_7  and  C_2 
REMARK    3  A    between atoms: C_3  and  C_9 
REMARK    4  A    between atoms: O_5  and  C_3 
REMARK    5  A    between atoms: C_4  and  O_5 
REMARK    6  A    between atoms: C_8  and  C_7 
REMARK    7  A    between atoms: C_12  and  C_8 
REMARK    8  A    between atoms: C_10  and  C_12 
ROOT
ATOM      1  C   UNL d   1      13.187  13.262  -4.078  0.00  0.00     0.064 A 
ATOM      2  C   UNL d   1      13.333  12.584  -3.629  0.00  0.00     0.106 A 
ATOM      3  C   UNL d   1      13.079  13.198  -4.902  0.00  0.00     0.035 A 
ATOM      4  C   UNL d   1      13.371  11.840  -4.003  0.00  0.00     0.027 A 
ATOM      5  C   UNL d   1      13.118  12.459  -5.268  0.00  0.00     0.140 A 
ATOM      6  C   UNL d   1      13.263  11.781  -4.819  0.00  0.00     0.032 A 
ATOM      7  F   UNL d   1      13.010  12.400  -6.084  0.00  0.00    -0.204 F 
ENDROOT
BRANCH   2   8
ATOM      8  O   UNL d   1      13.441  12.639  -2.811  0.00  0.00    -0.273 OA
BRANCH   8   9
ATOM      9  C   UNL d   1      14.086  12.262  -2.456  0.00  0.00     0.300 C 
ATOM     10  O   UNL d   1      14.618  11.831  -2.911  0.00  0.00    -0.259 OA
BRANCH   9  11
ATOM     11  C   UNL d   1      14.192  12.323  -1.640  0.00  0.00     0.065 A 
ATOM     12  C   UNL d   1      14.661  12.925  -1.332  0.00  0.00     0.029 A 
ATOM     13  C   UNL d   1      14.770  12.991  -0.522  0.00  0.00     0.127 A 
ATOM     14  C   UNL d   1      14.390  12.425  -0.018  0.00  0.00     0.024 A 
ATOM     15  C   UNL d   1      13.938  11.846  -0.318  0.00  0.00     0.002 A 
ATOM     16  C   UNL d   1      13.828  11.780  -1.137  0.00  0.00     0.005 A 
BRANCH  13  17
ATOM     17  N   UNL d   1      15.243  13.596  -0.195  0.00  0.00    -0.114 N 
ATOM     18  O   UNL d   1      16.028  13.452  -0.014  0.00  0.00    -0.532 OA
ATOM     19  O   UNL d   1      14.909  14.339  -0.057  0.00  0.00    -0.532 OA
ENDBRANCH  13  17
ENDBRANCH   9  11
ENDBRANCH   8   9
ENDBRANCH   2   8
BRANCH   1  20
ATOM     20  C   UNL d   1      13.149  14.003  -3.709  0.00  0.00     0.198 C 
ATOM     21  O   UNL d   1      12.772  14.080  -2.978  0.00  0.00    -0.286 OA
BRANCH  20  22
ATOM     22  C   UNL d   1      13.489  14.662  -4.071  0.00  0.00     0.043 C 
BRANCH  22  23
ATOM     23  C   UNL d   1      13.746  15.296  -3.611  0.00  0.00     0.010 C 
BRANCH  23  24
ATOM     24  C   UNL d   1      14.302  15.825  -3.915  0.00  0.00     0.030 A 
ATOM     25  S   UNL d   1      15.104  15.866  -3.717  0.00  0.00    -0.086 SA
ATOM     26  C   UNL d   1      15.452  16.475  -4.152  0.00  0.00     0.035 A 
ATOM     27  C   UNL d   1      14.869  16.817  -4.625  0.00  0.00     0.007 A 
ATOM     28  C   UNL d   1      14.157  16.417  -4.479  0.00  0.00     0.007 A 
ENDBRANCH  23  24
ENDBRANCH  22  23
ENDBRANCH  20  22
ENDBRANCH   1  20
TORSDOF 8
ENDMDL
