MODEL 1
REMARK VINA RESULT:      -7.6      0.000      0.000
REMARK  4 active torsions:
REMARK  status: ('A' for Active; 'I' for Inactive)
REMARK    1  A    between atoms: C_3  and  C_1 
REMARK    2  A    between atoms: C_2  and  C_3 
REMARK    3  A    between atoms: C_6  and  C_2 
REMARK    4  A    between atoms: C_16  and  C_6 
ROOT
ATOM      1  C   UNL d   1     -49.790  14.179  21.925  0.00  0.00     0.119 A 
ATOM      2  C   UNL d   1     -50.144  14.836  22.266  0.00  0.00     0.119 A 
ATOM      3  O   UNL d   1     -50.345  13.814  21.438  0.00  0.00    -0.300 OA
ATOM      4  O   UNL d   1     -50.920  14.878  21.989  0.00  0.00    -0.300 OA
ATOM      5  C   UNL d   1     -51.042  14.253  21.483  0.00  0.00     0.304 A 
ATOM      6  C   UNL d   1     -49.013  13.997  22.100  0.00  0.00     0.026 A 
ATOM      7  C   UNL d   1     -48.581  14.475  22.621  0.00  0.00     0.002 A 
ATOM      8  C   UNL d   1     -49.721  15.309  22.780  0.00  0.00     0.026 A 
ATOM      9  C   UNL d   1     -48.932  15.125  22.958  0.00  0.00     0.002 A 
ENDROOT
BRANCH   7  10
ATOM     10  C   UNL d   1     -47.791  14.302  22.807  0.00  0.00     0.003 C 
BRANCH  10  11
ATOM     11  C   UNL d   1     -47.566  13.520  22.965  0.00  0.00     0.044 C 
BRANCH  11  12
ATOM     12  C   UNL d   1     -46.794  13.356  23.218  0.00  0.00     0.213 C 
ATOM     13  O   UNL d   1     -46.261  13.965  23.329  0.00  0.00    -0.285 OA
BRANCH  12  14
ATOM     14  C   UNL d   1     -46.559  12.572  23.359  0.00  0.00     0.120 A 
ATOM     15  N   UNL d   1     -45.805  12.324  23.155  0.00  0.00    -0.241 NA
ATOM     16  C   UNL d   1     -45.733  11.524  23.361  0.00  0.00     0.099 A 
ATOM     17  C   UNL d   1     -46.451  11.290  23.692  0.00  0.00     0.022 A 
ATOM     18  C   UNL d   1     -46.956  11.925  23.693  0.00  0.00     0.024 A 
ENDBRANCH  12  14
ENDBRANCH  11  12
ENDBRANCH  10  11
ENDBRANCH   7  10
TORSDOF 4
ENDMDL
MODEL 2
REMARK VINA RESULT:      -7.4      1.634      4.252
REMARK  4 active torsions:
REMARK  status: ('A' for Active; 'I' for Inactive)
REMARK    1  A    between atoms: C_3  and  C_1 
REMARK    2  A    between atoms: C_2  and  C_3 
REMARK    3  A    between atoms: C_6  and  C_2 
REMARK    4  A    between atoms: C_16  and  C_6 
ROOT
ATOM      1  C   UNL d   1     -46.632  12.440  23.346  0.00  0.00     0.119 A 
ATOM      2  C   UNL d   1     -45.890  12.554  23.016  0.00  0.00     0.119 A 
ATOM      3  O   UNL d   1     -46.643  11.695  23.698  0.00  0.00    -0.300 OA
ATOM      4  O   UNL d   1     -45.439  11.880  23.163  0.00  0.00    -0.300 OA
ATOM      5  C   UNL d   1     -45.900  11.354  23.580  0.00  0.00     0.304 A 
ATOM      6  C   UNL d   1     -47.201  13.024  23.287  0.00  0.00     0.026 A 
ATOM      7  C   UNL d   1     -47.030  13.732  22.892  0.00  0.00     0.002 A 
ATOM      8  C   UNL d   1     -45.719  13.252  22.627  0.00  0.00     0.026 A 
ATOM      9  C   UNL d   1     -46.295  13.845  22.566  0.00  0.00     0.002 A 
ENDROOT
BRANCH   7  10
ATOM     10  C   UNL d   1     -47.598  14.333  22.824  0.00  0.00     0.003 C 
BRANCH  10  11
ATOM     11  C   UNL d   1     -48.382  14.141  22.637  0.00  0.00     0.044 C 
BRANCH  11  12
ATOM     12  C   UNL d   1     -48.936  14.744  22.508  0.00  0.00     0.213 C 
ATOM     13  O   UNL d   1     -48.698  15.525  22.506  0.00  0.00    -0.285 OA
BRANCH  12  14
ATOM     14  C   UNL d   1     -49.735  14.557  22.381  0.00  0.00     0.120 A 
ATOM     15  N   UNL d   1     -50.300  14.758  22.940  0.00  0.00    -0.241 NA
ATOM     16  C   UNL d   1     -51.038  14.503  22.663  0.00  0.00     0.099 A 
ATOM     17  C   UNL d   1     -50.915  14.144  21.931  0.00  0.00     0.022 A 
ATOM     18  C   UNL d   1     -50.123  14.175  21.756  0.00  0.00     0.024 A 
ENDBRANCH  12  14
ENDBRANCH  11  12
ENDBRANCH  10  11
ENDBRANCH   7  10
TORSDOF 4
ENDMDL
MODEL 3
REMARK VINA RESULT:      -6.8      1.752      2.195
REMARK  4 active torsions:
REMARK  status: ('A' for Active; 'I' for Inactive)
REMARK    1  A    between atoms: C_3  and  C_1 
REMARK    2  A    between atoms: C_2  and  C_3 
REMARK    3  A    between atoms: C_6  and  C_2 
REMARK    4  A    between atoms: C_16  and  C_6 
ROOT
ATOM      1  C   UNL d   1     -49.774  12.471  22.271  0.00  0.00     0.119 A 
ATOM      2  C   UNL d   1     -50.311  12.271  22.858  0.00  0.00     0.119 A 
ATOM      3  O   UNL d   1     -50.194  12.802  21.643  0.00  0.00    -0.300 OA
ATOM      4  O   UNL d   1     -51.064  12.478  22.595  0.00  0.00    -0.300 OA
ATOM      5  C   UNL d   1     -50.992  12.802  21.852  0.00  0.00     0.304 A 
ATOM      6  C   UNL d   1     -48.977  12.328  22.380  0.00  0.00     0.026 A 
ATOM      7  C   UNL d   1     -48.709  11.982  23.083  0.00  0.00     0.002 A 
ATOM      8  C   UNL d   1     -50.049  11.929  23.552  0.00  0.00     0.026 A 
ATOM      9  C   UNL d   1     -49.240  11.784  23.664  0.00  0.00     0.002 A 
ENDROOT
BRANCH   7  10
ATOM     10  C   UNL d   1     -47.902  11.831  23.206  0.00  0.00     0.003 C 
BRANCH  10  11
ATOM     11  C   UNL d   1     -47.367  12.462  23.252  0.00  0.00     0.044 C 
BRANCH  11  12
ATOM     12  C   UNL d   1     -46.551  12.311  23.271  0.00  0.00     0.213 C 
ATOM     13  O   UNL d   1     -46.262  11.678  23.698  0.00  0.00    -0.285 OA
BRANCH  12  14
ATOM     14  C   UNL d   1     -46.026  12.804  22.858  0.00  0.00     0.120 A 
ATOM     15  N   UNL d   1     -45.309  12.510  22.591  0.00  0.00    -0.241 NA
ATOM     16  C   UNL d   1     -44.909  13.123  22.202  0.00  0.00     0.099 A 
ATOM     17  C   UNL d   1     -45.390  13.791  22.236  0.00  0.00     0.022 A 
ATOM     18  C   UNL d   1     -46.072  13.601  22.634  0.00  0.00     0.024 A 
ENDBRANCH  12  14
ENDBRANCH  11  12
ENDBRANCH  10  11
ENDBRANCH   7  10
TORSDOF 4
ENDMDL
MODEL 4
REMARK VINA RESULT:      -6.2      8.457      9.559
REMARK  4 active torsions:
REMARK  status: ('A' for Active; 'I' for Inactive)
REMARK    1  A    between atoms: C_3  and  C_1 
REMARK    2  A    between atoms: C_2  and  C_3 
REMARK    3  A    between atoms: C_6  and  C_2 
REMARK    4  A    between atoms: C_16  and  C_6 
ROOT
ATOM      1  C   UNL d   1     -39.393  15.011  21.519  0.00  0.00     0.119 A 
ATOM      2  C   UNL d   1     -39.812  15.657  21.801  0.00  0.00     0.119 A 
ATOM      3  O   UNL d   1     -38.761  14.874  22.029  0.00  0.00    -0.300 OA
ATOM      4  O   UNL d   1     -39.440  15.921  22.488  0.00  0.00    -0.300 OA
ATOM      5  C   UNL d   1     -38.797  15.442  22.627  0.00  0.00     0.304 A 
ATOM      6  C   UNL d   1     -39.637  14.632  20.837  0.00  0.00     0.026 A 
ATOM      7  C   UNL d   1     -40.308  14.899  20.430  0.00  0.00     0.002 A 
ATOM      8  C   UNL d   1     -40.474  15.922  21.402  0.00  0.00     0.026 A 
ATOM      9  C   UNL d   1     -40.722  15.538  20.710  0.00  0.00     0.002 A 
ENDROOT
BRANCH   7  10
ATOM     10  C   UNL d   1     -40.566  14.523  19.738  0.00  0.00     0.003 C 
BRANCH  10  11
ATOM     11  C   UNL d   1     -40.396  14.857  18.998  0.00  0.00     0.044 C 
BRANCH  11  12
ATOM     12  C   UNL d   1     -40.660  14.484  18.306  0.00  0.00     0.213 C 
ATOM     13  O   UNL d   1     -41.002  13.743  18.345  0.00  0.00    -0.285 OA
BRANCH  12  14
ATOM     14  C   UNL d   1     -40.578  14.862  17.572  0.00  0.00     0.120 A 
ATOM     15  N   UNL d   1     -41.239  15.144  17.176  0.00  0.00    -0.241 NA
ATOM     16  C   UNL d   1     -40.986  15.490  16.467  0.00  0.00     0.099 A 
ATOM     17  C   UNL d   1     -40.166  15.416  16.436  0.00  0.00     0.022 A 
ATOM     18  C   UNL d   1     -39.914  15.034  17.106  0.00  0.00     0.024 A 
ENDBRANCH  12  14
ENDBRANCH  11  12
ENDBRANCH  10  11
ENDBRANCH   7  10
TORSDOF 4
ENDMDL
MODEL 5
REMARK VINA RESULT:      -6.1      2.255      4.902
REMARK  4 active torsions:
REMARK  status: ('A' for Active; 'I' for Inactive)
REMARK    1  A    between atoms: C_3  and  C_1 
REMARK    2  A    between atoms: C_2  and  C_3 
REMARK    3  A    between atoms: C_6  and  C_2 
REMARK    4  A    between atoms: C_16  and  C_6 
ROOT
ATOM      1  C   UNL d   1     -45.486  10.743  23.562  0.00  0.00     0.119 A 
ATOM      2  C   UNL d   1     -45.126  11.426  23.283  0.00  0.00     0.119 A 
ATOM      3  O   UNL d   1     -44.901  10.173  23.671  0.00  0.00    -0.300 OA
ATOM      4  O   UNL d   1     -44.317  11.279  23.219  0.00  0.00    -0.300 OA
ATOM      5  C   UNL d   1     -44.180  10.513  23.456  0.00  0.00     0.304 A 
ATOM      6  C   UNL d   1     -46.294  10.726  23.681  0.00  0.00     0.026 A 
ATOM      7  C   UNL d   1     -46.752  11.398  23.520  0.00  0.00     0.002 A 
ATOM      8  C   UNL d   1     -45.575  12.089  23.124  0.00  0.00     0.026 A 
ATOM      9  C   UNL d   1     -46.396  12.073  23.244  0.00  0.00     0.002 A 
ENDROOT
BRANCH   7  10
ATOM     10  C   UNL d   1     -47.574  11.394  23.636  0.00  0.00     0.003 C 
BRANCH  10  11
ATOM     11  C   UNL d   1     -48.061  11.861  23.156  0.00  0.00     0.044 C 
BRANCH  11  12
ATOM     12  C   UNL d   1     -48.883  11.753  23.171  0.00  0.00     0.213 C 
ATOM     13  O   UNL d   1     -49.196  11.020  23.350  0.00  0.00    -0.285 OA
BRANCH  12  14
ATOM     14  C   UNL d   1     -49.391  12.389  23.005  0.00  0.00     0.120 A 
ATOM     15  N   UNL d   1     -49.692  12.847  23.615  0.00  0.00    -0.241 NA
ATOM     16  C   UNL d   1     -50.175  13.432  23.282  0.00  0.00     0.099 A 
ATOM     17  C   UNL d   1     -50.164  13.325  22.465  0.00  0.00     0.022 A 
ATOM     18  C   UNL d   1     -49.688  12.691  22.292  0.00  0.00     0.024 A 
ENDBRANCH  12  14
ENDBRANCH  11  12
ENDBRANCH  10  11
ENDBRANCH   7  10
TORSDOF 4
ENDMDL
MODEL 6
REMARK VINA RESULT:      -5.8      8.336      9.696
REMARK  4 active torsions:
REMARK  status: ('A' for Active; 'I' for Inactive)
REMARK    1  A    between atoms: C_3  and  C_1 
REMARK    2  A    between atoms: C_2  and  C_3 
REMARK    3  A    between atoms: C_6  and  C_2 
REMARK    4  A    between atoms: C_16  and  C_6 
ROOT
ATOM      1  C   UNL d   1     -39.326  14.121  17.365  0.00  0.00     0.119 A 
ATOM      2  C   UNL d   1     -39.659  14.663  16.847  0.00  0.00     0.119 A 
ATOM      3  O   UNL d   1     -38.711  13.738  16.972  0.00  0.00    -0.300 OA
ATOM      4  O   UNL d   1     -39.252  14.616  16.132  0.00  0.00    -0.300 OA
ATOM      5  C   UNL d   1     -38.672  14.050  16.209  0.00  0.00     0.304 A 
ATOM      6  C   UNL d   1     -39.620  14.045  18.123  0.00  0.00     0.026 A 
ATOM      7  C   UNL d   1     -40.257  14.514  18.371  0.00  0.00     0.002 A 
ATOM      8  C   UNL d   1     -40.286  15.127  17.089  0.00  0.00     0.026 A 
ATOM      9  C   UNL d   1     -40.587  15.050  17.859  0.00  0.00     0.002 A 
ENDROOT
BRANCH   7  10
ATOM     10  C   UNL d   1     -40.565  14.447  19.138  0.00  0.00     0.003 C 
BRANCH  10  11
ATOM     11  C   UNL d   1     -40.187  14.825  19.771  0.00  0.00     0.044 C 
BRANCH  11  12
ATOM     12  C   UNL d   1     -40.484  14.742  20.540  0.00  0.00     0.213 C 
ATOM     13  O   UNL d   1     -41.160  14.304  20.672  0.00  0.00    -0.285 OA
BRANCH  12  14
ATOM     14  C   UNL d   1     -40.095  15.102  21.179  0.00  0.00     0.120 A 
ATOM     15  N   UNL d   1     -39.630  14.655  21.685  0.00  0.00    -0.241 NA
ATOM     16  C   UNL d   1     -39.318  15.161  22.262  0.00  0.00     0.099 A 
ATOM     17  C   UNL d   1     -39.598  15.919  22.102  0.00  0.00     0.022 A 
ATOM     18  C   UNL d   1     -40.071  15.888  21.443  0.00  0.00     0.024 A 
ENDBRANCH  12  14
ENDBRANCH  11  12
ENDBRANCH  10  11
ENDBRANCH   7  10
TORSDOF 4
ENDMDL
MODEL 7
REMARK VINA RESULT:      -5.6      8.595      9.218
REMARK  4 active torsions:
REMARK  status: ('A' for Active; 'I' for Inactive)
REMARK    1  A    between atoms: C_3  and  C_1 
REMARK    2  A    between atoms: C_2  and  C_3 
REMARK    3  A    between atoms: C_6  and  C_2 
REMARK    4  A    between atoms: C_16  and  C_6 
ROOT
ATOM      1  C   UNL d   1     -40.832  15.337  17.852  0.00  0.00     0.119 A 
ATOM      2  C   UNL d   1     -40.377  14.871  17.353  0.00  0.00     0.119 A 
ATOM      3  O   UNL d   1     -41.197  15.918  17.395  0.00  0.00    -0.300 OA
ATOM      4  O   UNL d   1     -40.457  15.164  16.587  0.00  0.00    -0.300 OA
ATOM      5  C   UNL d   1     -40.959  15.804  16.613  0.00  0.00     0.304 A 
ATOM      6  C   UNL d   1     -40.859  15.174  18.652  0.00  0.00     0.026 A 
ATOM      7  C   UNL d   1     -40.426  14.540  18.962  0.00  0.00     0.002 A 
ATOM      8  C   UNL d   1     -39.948  14.245  17.656  0.00  0.00     0.026 A 
ATOM      9  C   UNL d   1     -39.975  14.079  18.469  0.00  0.00     0.002 A 
ENDROOT
BRANCH   7  10
ATOM     10  C   UNL d   1     -40.444  14.364  19.773  0.00  0.00     0.003 C 
BRANCH  10  11
ATOM     11  C   UNL d   1     -39.913  14.736  20.288  0.00  0.00     0.044 C 
BRANCH  11  12
ATOM     12  C   UNL d   1     -39.951  14.583  21.102  0.00  0.00     0.213 C 
ATOM     13  O   UNL d   1     -40.482  14.034  21.391  0.00  0.00    -0.285 OA
BRANCH  12  14
ATOM     14  C   UNL d   1     -39.450  14.987  21.627  0.00  0.00     0.120 A 
ATOM     15  N   UNL d   1     -39.726  15.638  22.042  0.00  0.00    -0.241 NA
ATOM     16  C   UNL d   1     -39.107  15.921  22.516  0.00  0.00     0.099 A 
ATOM     17  C   UNL d   1     -38.454  15.437  22.383  0.00  0.00     0.022 A 
ATOM     18  C   UNL d   1     -38.659  14.867  21.842  0.00  0.00     0.024 A 
ENDBRANCH  12  14
ENDBRANCH  11  12
ENDBRANCH  10  11
ENDBRANCH   7  10
TORSDOF 4
ENDMDL
MODEL 8
REMARK VINA RESULT:      -5.5      1.490      2.485
REMARK  4 active torsions:
REMARK  status: ('A' for Active; 'I' for Inactive)
REMARK    1  A    between atoms: C_3  and  C_1 
REMARK    2  A    between atoms: C_2  and  C_3 
REMARK    3  A    between atoms: C_6  and  C_2 
REMARK    4  A    between atoms: C_16  and  C_6 
ROOT
ATOM      1  C   UNL d   1     -47.605  14.284  22.768  0.00  0.00     0.119 A 
ATOM      2  C   UNL d   1     -48.166  13.772  23.076  0.00  0.00     0.119 A 
ATOM      3  O   UNL d   1     -47.986  14.987  22.566  0.00  0.00    -0.300 OA
ATOM      4  O   UNL d   1     -48.895  14.155  23.066  0.00  0.00    -0.300 OA
ATOM      5  C   UNL d   1     -48.785  14.899  22.754  0.00  0.00     0.304 A 
ATOM      6  C   UNL d   1     -46.825  14.050  22.710  0.00  0.00     0.026 A 
ATOM      7  C   UNL d   1     -46.597  13.294  22.963  0.00  0.00     0.002 A 
ATOM      8  C   UNL d   1     -47.945  13.026  23.326  0.00  0.00     0.026 A 
ATOM      9  C   UNL d   1     -47.153  12.787  23.268  0.00  0.00     0.002 A 
ENDROOT
BRANCH   7  10
ATOM     10  C   UNL d   1     -45.808  13.044  22.910  0.00  0.00     0.003 C 
BRANCH  10  11
ATOM     11  C   UNL d   1     -45.636  12.239  22.815  0.00  0.00     0.044 C 
BRANCH  11  12
ATOM     12  C   UNL d   1     -44.847  11.990  22.756  0.00  0.00     0.213 C 
ATOM     13  O   UNL d   1     -44.301  12.448  22.357  0.00  0.00    -0.285 OA
BRANCH  12  14
ATOM     14  C   UNL d   1     -44.609  11.274  23.103  0.00  0.00     0.120 A 
ATOM     15  N   UNL d   1     -43.813  11.082  23.149  0.00  0.00    -0.241 NA
ATOM     16  C   UNL d   1     -43.748  10.344  23.519  0.00  0.00     0.099 A 
ATOM     17  C   UNL d   1     -44.511  10.089  23.697  0.00  0.00     0.022 A 
ATOM     18  C   UNL d   1     -45.038  10.653  23.446  0.00  0.00     0.024 A 
ENDBRANCH  12  14
ENDBRANCH  11  12
ENDBRANCH  10  11
ENDBRANCH   7  10
TORSDOF 4
ENDMDL
