MODEL 1
REMARK VINA RESULT:      -3.1      0.000      0.000
REMARK  4 active torsions:
REMARK  status: ('A' for Active; 'I' for Inactive)
REMARK    1  A    between atoms: C_5  and  N_1 
REMARK    2  A    between atoms: C_7  and  C_5 
REMARK    3  A    between atoms: O_10  and  C_8 
REMARK    4  A    between atoms: C_14  and  O_10 
ROOT
ATOM      1  C   UNL d   1     -42.382-122.496 -52.482  0.00  0.00     0.087 C 
ENDROOT
BRANCH   1   2
ATOM      2  N   UNL d   1     -41.986-122.738 -53.156  0.00  0.00    -0.251 N 
ATOM      3  C   UNL d   1     -41.411-123.337 -53.240  0.00  0.00     0.378 A 
ATOM      4  O   UNL d   1     -41.181-123.366 -54.040  0.00  0.00    -0.258 OA
ATOM      5  O   UNL d   1     -41.123-123.817 -52.634  0.00  0.00    -0.237 OA
ATOM      6  C   UNL d   1     -41.607-122.790 -54.451  0.00  0.00     0.121 A 
ATOM      7  C   UNL d   1     -42.102-122.404 -53.910  0.00  0.00     0.092 A 
ATOM      8  C   UNL d   1     -41.617-122.558 -55.252  0.00  0.00     0.026 A 
ATOM      9  C   UNL d   1     -42.602-121.792 -54.166  0.00  0.00     0.020 A 
ATOM     10  C   UNL d   1     -42.607-121.567 -54.958  0.00  0.00     0.002 A 
ATOM     11  C   UNL d   1     -42.113-121.951 -55.502  0.00  0.00     0.002 A 
ENDBRANCH   1   2
BRANCH   1  12
ATOM     12  C   UNL d   1     -41.992-122.066 -51.899  0.00  0.00     0.041 A 
ATOM     13  C   UNL d   1     -42.073-122.272 -51.111  0.00  0.00     0.101 A 
ATOM     14  C   UNL d   1     -41.683-121.842 -50.529  0.00  0.00     0.025 A 
ATOM     15  C   UNL d   1     -41.208-121.199 -50.743  0.00  0.00     0.002 A 
ATOM     16  C   UNL d   1     -41.124-120.988 -51.537  0.00  0.00     0.000 A 
ATOM     17  C   UNL d   1     -41.517-121.422 -52.117  0.00  0.00     0.004 A 
BRANCH  13  18
ATOM     18  O   UNL d   1     -42.547-122.914 -50.897  0.00  0.00    -0.307 OA
BRANCH  18  19
ATOM     19  C   UNL d   1     -42.747-123.033 -50.102  0.00  0.00     0.100 C 
ATOM     20  C   UNL d   1     -43.414-122.673 -49.786  0.00  0.00     0.027 C 
ATOM     21  C   UNL d   1     -42.274-123.514 -49.629  0.00  0.00     0.027 C 
ENDBRANCH  18  19
ENDBRANCH  13  18
ENDBRANCH   1  12
TORSDOF 4
ENDMDL
MODEL 2
REMARK VINA RESULT:      -2.6      1.585      2.587
REMARK  4 active torsions:
REMARK  status: ('A' for Active; 'I' for Inactive)
REMARK    1  A    between atoms: C_5  and  N_1 
REMARK    2  A    between atoms: C_7  and  C_5 
REMARK    3  A    between atoms: O_10  and  C_8 
REMARK    4  A    between atoms: C_14  and  O_10 
ROOT
ATOM      1  C   UNL d   1     -41.647-122.843 -50.379  0.00  0.00     0.087 C 
ENDROOT
BRANCH   1   2
ATOM      2  N   UNL d   1     -41.465-122.445 -51.071  0.00  0.00    -0.251 N 
ATOM      3  C   UNL d   1     -41.307-121.633 -51.184  0.00  0.00     0.378 A 
ATOM      4  O   UNL d   1     -41.153-121.509 -51.992  0.00  0.00    -0.258 OA
ATOM      5  O   UNL d   1     -41.304-121.057 -50.594  0.00  0.00    -0.237 OA
ATOM      6  C   UNL d   1     -41.215-122.234 -52.381  0.00  0.00     0.121 A 
ATOM      7  C   UNL d   1     -41.406-122.811 -51.817  0.00  0.00     0.092 A 
ATOM      8  C   UNL d   1     -41.123-122.459 -53.179  0.00  0.00     0.026 A 
ATOM      9  C   UNL d   1     -41.505-123.603 -52.047  0.00  0.00     0.020 A 
ATOM     10  C   UNL d   1     -41.413-123.817 -52.837  0.00  0.00     0.002 A 
ATOM     11  C   UNL d   1     -41.221-123.244 -53.404  0.00  0.00     0.002 A 
ENDBRANCH   1   2
BRANCH   1  12
ATOM     12  C   UNL d   1     -42.383-122.750 -50.023  0.00  0.00     0.041 A 
ATOM     13  C   UNL d   1     -42.548-123.122 -49.313  0.00  0.00     0.101 A 
ATOM     14  C   UNL d   1     -43.283-123.028 -48.958  0.00  0.00     0.025 A 
ATOM     15  C   UNL d   1     -43.857-122.555 -49.322  0.00  0.00     0.002 A 
ATOM     16  C   UNL d   1     -43.694-122.178 -50.039  0.00  0.00     0.000 A 
ATOM     17  C   UNL d   1     -42.956-122.275 -50.391  0.00  0.00     0.004 A 
BRANCH  13  18
ATOM     18  O   UNL d   1     -41.975-123.594 -48.950  0.00  0.00    -0.307 OA
BRANCH  18  19
ATOM     19  C   UNL d   1     -41.803-123.489 -48.147  0.00  0.00     0.100 C 
ATOM     20  C   UNL d   1     -42.291-123.817 -47.574  0.00  0.00     0.027 C 
ATOM     21  C   UNL d   1     -41.138-123.054 -47.925  0.00  0.00     0.027 C 
ENDBRANCH  18  19
ENDBRANCH  13  18
ENDBRANCH   1  12
TORSDOF 4
ENDMDL
