MODEL 1
REMARK VINA RESULT:      -8.5      0.000      0.000
REMARK  3 active torsions:
REMARK  status: ('A' for Active; 'I' for Inactive)
REMARK    1  A    between atoms: N_10  and  C_3 
REMARK    2  A    between atoms: C_11  and  C_5 
REMARK    3  A    between atoms: C_15  and  N_10 
ROOT
ATOM      1  N   UNL d   1     -47.924  12.412  23.117  0.00  0.00    -0.184 N 
ATOM      2  C   UNL d   1     -48.524  12.994  23.003  0.00  0.00     0.168 A 
ATOM      3  C   UNL d   1     -47.124  12.629  23.062  0.00  0.00     0.217 A 
ATOM      4  N   UNL d   1     -48.927  11.422  23.334  0.00  0.00    -0.162 NA
ATOM      5  C   UNL d   1     -49.304  12.782  23.056  0.00  0.00     0.055 A 
ATOM      6  N   UNL d   1     -48.302  13.772  22.838  0.00  0.00    -0.227 NA
ATOM      7  C   UNL d   1     -46.921  13.402  22.899  0.00  0.00     0.066 A 
ATOM      8  C   UNL d   1     -49.517  11.994  23.222  0.00  0.00     0.104 A 
ATOM      9  C   UNL d   1     -47.514  13.990  22.784  0.00  0.00     0.087 A 
ATOM     10  C   UNL d   1     -46.202  13.775  22.813  0.00  0.00     0.006 A 
ATOM     11  C   UNL d   1     -50.311  11.789  23.274  0.00  0.00     0.023 C 
ATOM     12  C   UNL d   1     -47.146  14.709  22.630  0.00  0.00     0.019 A 
ATOM     13  C   UNL d   1     -46.323  14.571  22.650  0.00  0.00     0.002 A 
ENDROOT
BRANCH   5  14
ATOM     14  C   UNL d   1     -49.891  13.352  22.944  0.00  0.00     0.004 A 
ATOM     15  C   UNL d   1     -50.180  13.781  23.587  0.00  0.00     0.000 A 
ATOM     16  C   UNL d   1     -50.763  14.349  23.480  0.00  0.00     0.000 A 
ATOM     17  C   UNL d   1     -51.064  14.491  22.721  0.00  0.00     0.000 A 
ATOM     18  C   UNL d   1     -50.785  14.072  22.081  0.00  0.00     0.000 A 
ATOM     19  C   UNL d   1     -50.192  13.496  22.194  0.00  0.00     0.000 A 
ENDBRANCH   5  14
BRANCH   3  20
ATOM     20  N   UNL d   1     -46.517  12.045  23.177  0.00  0.00    -0.383 NA
BRANCH  20  21
ATOM     21  C   UNL d   1     -45.918  11.462  23.291  0.00  0.00     0.134 C 
ATOM     22  C   UNL d   1     -46.110  10.744  23.689  0.00  0.00     0.035 C 
ATOM     23  C   UNL d   1     -45.128  11.603  23.003  0.00  0.00     0.035 C 
ENDBRANCH  20  21
ENDBRANCH   3  20
TORSDOF 3
ENDMDL
MODEL 2
REMARK VINA RESULT:      -8.1      0.813      4.305
REMARK  3 active torsions:
REMARK  status: ('A' for Active; 'I' for Inactive)
REMARK    1  A    between atoms: N_10  and  C_3 
REMARK    2  A    between atoms: C_11  and  C_5 
REMARK    3  A    between atoms: C_15  and  N_10 
ROOT
ATOM      1  N   UNL d   1     -48.688  13.995  22.946  0.00  0.00    -0.184 N 
ATOM      2  C   UNL d   1     -48.101  13.390  22.951  0.00  0.00     0.168 A 
ATOM      3  C   UNL d   1     -49.492  13.789  22.970  0.00  0.00     0.217 A 
ATOM      4  N   UNL d   1     -47.664  14.987  22.895  0.00  0.00    -0.162 NA
ATOM      5  C   UNL d   1     -47.316  13.591  22.927  0.00  0.00     0.055 A 
ATOM      6  N   UNL d   1     -48.340  12.599  22.979  0.00  0.00    -0.227 NA
ATOM      7  C   UNL d   1     -49.711  13.004  22.998  0.00  0.00     0.066 A 
ATOM      8  C   UNL d   1     -47.087  14.391  22.899  0.00  0.00     0.104 A 
ATOM      9  C   UNL d   1     -49.131  12.392  23.002  0.00  0.00     0.087 A 
ATOM     10  C   UNL d   1     -50.438  12.637  23.024  0.00  0.00     0.006 A 
ATOM     11  C   UNL d   1     -46.289  14.586  22.876  0.00  0.00     0.023 C 
ATOM     12  C   UNL d   1     -49.515  11.665  23.032  0.00  0.00     0.019 A 
ATOM     13  C   UNL d   1     -50.335  11.822  23.045  0.00  0.00     0.002 A 
ENDROOT
BRANCH   5  14
ATOM     14  C   UNL d   1     -46.742  12.998  22.932  0.00  0.00     0.004 A 
ATOM     15  C   UNL d   1     -46.331  12.814  22.241  0.00  0.00     0.000 A 
ATOM     16  C   UNL d   1     -45.759  12.225  22.241  0.00  0.00     0.000 A 
ATOM     17  C   UNL d   1     -45.593  11.812  22.940  0.00  0.00     0.000 A 
ATOM     18  C   UNL d   1     -45.995  11.988  23.628  0.00  0.00     0.000 A 
ATOM     19  C   UNL d   1     -46.575  12.587  23.623  0.00  0.00     0.000 A 
ENDBRANCH   5  14
BRANCH   3  20
ATOM     20  N   UNL d   1     -50.087  14.397  22.966  0.00  0.00    -0.383 NA
BRANCH  20  21
ATOM     21  C   UNL d   1     -50.674  15.002  22.966  0.00  0.00     0.134 C 
ATOM     22  C   UNL d   1     -50.869  15.390  23.688  0.00  0.00     0.035 C 
ATOM     23  C   UNL d   1     -51.064  15.214  22.238  0.00  0.00     0.035 C 
ENDBRANCH  20  21
ENDBRANCH   3  20
TORSDOF 3
ENDMDL
MODEL 3
REMARK VINA RESULT:      -8.0      1.093      2.332
REMARK  3 active torsions:
REMARK  status: ('A' for Active; 'I' for Inactive)
REMARK    1  A    between atoms: N_10  and  C_3 
REMARK    2  A    between atoms: C_11  and  C_5 
REMARK    3  A    between atoms: C_15  and  N_10 
ROOT
ATOM      1  N   UNL d   1     -47.578  13.631  22.747  0.00  0.00    -0.184 N 
ATOM      2  C   UNL d   1     -48.392  13.807  22.881  0.00  0.00     0.168 A 
ATOM      3  C   UNL d   1     -47.289  12.871  22.915  0.00  0.00     0.217 A 
ATOM      4  N   UNL d   1     -47.366  14.964  22.286  0.00  0.00    -0.162 NA
ATOM      5  C   UNL d   1     -48.675  14.549  22.718  0.00  0.00     0.055 A 
ATOM      6  N   UNL d   1     -48.887  13.217  23.179  0.00  0.00    -0.227 NA
ATOM      7  C   UNL d   1     -47.790  12.299  23.208  0.00  0.00     0.066 A 
ATOM      8  C   UNL d   1     -48.167  15.137  22.418  0.00  0.00     0.104 A 
ATOM      9  C   UNL d   1     -48.605  12.466  23.346  0.00  0.00     0.087 A 
ATOM     10  C   UNL d   1     -47.673  11.521  23.422  0.00  0.00     0.006 A 
ATOM     11  C   UNL d   1     -48.462  15.886  22.255  0.00  0.00     0.023 C 
ATOM     12  C   UNL d   1     -48.968  11.789  23.639  0.00  0.00     0.019 A 
ATOM     13  C   UNL d   1     -48.380  11.198  23.685  0.00  0.00     0.002 A 
ENDROOT
BRANCH   5  14
ATOM     14  C   UNL d   1     -49.471  14.721  22.849  0.00  0.00     0.004 A 
ATOM     15  C   UNL d   1     -50.030  14.572  22.261  0.00  0.00     0.000 A 
ATOM     16  C   UNL d   1     -50.824  14.742  22.388  0.00  0.00     0.000 A 
ATOM     17  C   UNL d   1     -51.064  15.066  23.112  0.00  0.00     0.000 A 
ATOM     18  C   UNL d   1     -50.518  15.217  23.698  0.00  0.00     0.000 A 
ATOM     19  C   UNL d   1     -49.714  15.043  23.565  0.00  0.00     0.000 A 
ENDBRANCH   5  14
BRANCH   3  20
ATOM     20  N   UNL d   1     -46.469  12.690  22.781  0.00  0.00    -0.383 NA
BRANCH  20  21
ATOM     21  C   UNL d   1     -45.655  12.514  22.646  0.00  0.00     0.134 C 
ATOM     22  C   UNL d   1     -45.232  12.942  22.055  0.00  0.00     0.035 C 
ATOM     23  C   UNL d   1     -45.269  11.909  23.106  0.00  0.00     0.035 C 
ENDBRANCH  20  21
ENDBRANCH   3  20
TORSDOF 3
ENDMDL
MODEL 4
REMARK VINA RESULT:      -7.7      8.173     10.193
REMARK  3 active torsions:
REMARK  status: ('A' for Active; 'I' for Inactive)
REMARK    1  A    between atoms: N_10  and  C_3 
REMARK    2  A    between atoms: C_11  and  C_5 
REMARK    3  A    between atoms: C_15  and  N_10 
ROOT
ATOM      1  N   UNL d   1     -39.273  14.830  18.007  0.00  0.00    -0.184 N 
ATOM      2  C   UNL d   1     -39.816  15.004  18.627  0.00  0.00     0.168 A 
ATOM      3  C   UNL d   1     -39.481  14.996  17.220  0.00  0.00     0.217 A 
ATOM      4  N   UNL d   1     -38.338  14.335  18.963  0.00  0.00    -0.162 NA
ATOM      5  C   UNL d   1     -39.614  14.842  19.396  0.00  0.00     0.055 A 
ATOM      6  N   UNL d   1     -40.548  15.337  18.439  0.00  0.00    -0.227 NA
ATOM      7  C   UNL d   1     -40.207  15.325  17.050  0.00  0.00     0.066 A 
ATOM      8  C   UNL d   1     -38.873  14.506  19.574  0.00  0.00     0.104 A 
ATOM      9  C   UNL d   1     -40.756  15.502  17.665  0.00  0.00     0.087 A 
ATOM     10  C   UNL d   1     -40.561  15.546  16.350  0.00  0.00     0.006 A 
ATOM     11  C   UNL d   1     -38.676  14.345  20.356  0.00  0.00     0.023 C 
ATOM     12  C   UNL d   1     -41.433  15.826  17.328  0.00  0.00     0.019 A 
ATOM     13  C   UNL d   1     -41.307  15.853  16.503  0.00  0.00     0.002 A 
ENDROOT
BRANCH   5  14
ATOM     14  C   UNL d   1     -40.145  15.012  20.003  0.00  0.00     0.004 A 
ATOM     15  C   UNL d   1     -40.686  14.441  20.253  0.00  0.00     0.000 A 
ATOM     16  C   UNL d   1     -41.217  14.606  20.858  0.00  0.00     0.000 A 
ATOM     17  C   UNL d   1     -41.209  15.352  21.219  0.00  0.00     0.000 A 
ATOM     18  C   UNL d   1     -40.679  15.922  20.978  0.00  0.00     0.000 A 
ATOM     19  C   UNL d   1     -40.141  15.750  20.364  0.00  0.00     0.000 A 
ENDBRANCH   5  14
BRANCH   3  20
ATOM     20  N   UNL d   1     -38.935  14.822  16.591  0.00  0.00    -0.383 NA
BRANCH  20  21
ATOM     21  C   UNL d   1     -38.398  14.649  15.964  0.00  0.00     0.134 C 
ATOM     22  C   UNL d   1     -37.940  15.271  15.628  0.00  0.00     0.035 C 
ATOM     23  C   UNL d   1     -38.324  13.849  15.678  0.00  0.00     0.035 C 
ENDBRANCH  20  21
ENDBRANCH   3  20
TORSDOF 3
ENDMDL
MODEL 5
REMARK VINA RESULT:      -7.1      8.299     10.642
REMARK  3 active torsions:
REMARK  status: ('A' for Active; 'I' for Inactive)
REMARK    1  A    between atoms: N_10  and  C_3 
REMARK    2  A    between atoms: C_11  and  C_5 
REMARK    3  A    between atoms: C_15  and  N_10 
ROOT
ATOM      1  N   UNL d   1     -40.035  14.889  18.811  0.00  0.00    -0.184 N 
ATOM      2  C   UNL d   1     -39.463  14.715  18.216  0.00  0.00     0.168 A 
ATOM      3  C   UNL d   1     -39.874  14.700  19.604  0.00  0.00     0.217 A 
ATOM      4  N   UNL d   1     -40.904  15.428  17.817  0.00  0.00    -0.162 NA
ATOM      5  C   UNL d   1     -39.619  14.898  17.442  0.00  0.00     0.055 A 
ATOM      6  N   UNL d   1     -38.751  14.358  18.436  0.00  0.00    -0.227 NA
ATOM      7  C   UNL d   1     -39.166  14.349  19.805  0.00  0.00     0.066 A 
ATOM      8  C   UNL d   1     -40.341  15.257  17.232  0.00  0.00     0.104 A 
ATOM      9  C   UNL d   1     -38.589  14.171  19.216  0.00  0.00     0.087 A 
ATOM     10  C   UNL d   1     -38.857  14.104  20.517  0.00  0.00     0.006 A 
ATOM     11  C   UNL d   1     -40.491  15.440  16.445  0.00  0.00     0.023 C 
ATOM     12  C   UNL d   1     -37.940  13.823  19.582  0.00  0.00     0.019 A 
ATOM     13  C   UNL d   1     -38.111  13.782  20.398  0.00  0.00     0.002 A 
ENDROOT
BRANCH   5  14
ATOM     14  C   UNL d   1     -39.060  14.728  16.861  0.00  0.00     0.004 A 
ATOM     15  C   UNL d   1     -39.051  13.987  16.497  0.00  0.00     0.000 A 
ATOM     16  C   UNL d   1     -38.495  13.814  15.918  0.00  0.00     0.000 A 
ATOM     17  C   UNL d   1     -37.940  14.387  15.696  0.00  0.00     0.000 A 
ATOM     18  C   UNL d   1     -37.941  15.121  16.050  0.00  0.00     0.000 A 
ATOM     19  C   UNL d   1     -38.507  15.293  16.638  0.00  0.00     0.000 A 
ENDBRANCH   5  14
BRANCH   3  20
ATOM     20  N   UNL d   1     -40.449  14.874  20.207  0.00  0.00    -0.383 NA
BRANCH  20  21
ATOM     21  C   UNL d   1     -41.022  15.046  20.800  0.00  0.00     0.134 C 
ATOM     22  C   UNL d   1     -41.070  15.827  21.115  0.00  0.00     0.035 C 
ATOM     23  C   UNL d   1     -41.545  14.432  21.076  0.00  0.00     0.035 C 
ENDBRANCH  20  21
ENDBRANCH   3  20
TORSDOF 3
ENDMDL
MODEL 6
REMARK VINA RESULT:      -6.5      1.265      1.858
REMARK  3 active torsions:
REMARK  status: ('A' for Active; 'I' for Inactive)
REMARK    1  A    between atoms: N_10  and  C_3 
REMARK    2  A    between atoms: C_11  and  C_5 
REMARK    3  A    between atoms: C_15  and  N_10 
ROOT
ATOM      1  N   UNL d   1     -46.496  11.915  23.110  0.00  0.00    -0.184 N 
ATOM      2  C   UNL d   1     -46.983  12.558  22.863  0.00  0.00     0.168 A 
ATOM      3  C   UNL d   1     -45.684  11.924  22.939  0.00  0.00     0.217 A 
ATOM      4  N   UNL d   1     -47.634  11.277  23.688  0.00  0.00    -0.162 NA
ATOM      5  C   UNL d   1     -47.776  12.549  23.031  0.00  0.00     0.055 A 
ATOM      6  N   UNL d   1     -46.639  13.187  22.453  0.00  0.00    -0.227 NA
ATOM      7  C   UNL d   1     -45.359  12.553  22.533  0.00  0.00     0.066 A 
ATOM      8  C   UNL d   1     -48.112  11.910  23.444  0.00  0.00     0.104 A 
ATOM      9  C   UNL d   1     -45.838  13.200  22.283  0.00  0.00     0.087 A 
ATOM     10  C   UNL d   1     -44.599  12.716  22.289  0.00  0.00     0.006 A 
ATOM     11  C   UNL d   1     -48.917  11.909  23.610  0.00  0.00     0.023 C 
ATOM     12  C   UNL d   1     -45.362  13.744  21.891  0.00  0.00     0.019 A 
ATOM     13  C   UNL d   1     -44.585  13.438  21.897  0.00  0.00     0.002 A 
ENDROOT
BRANCH   5  14
ATOM     14  C   UNL d   1     -48.251  13.178  22.789  0.00  0.00     0.004 A 
ATOM     15  C   UNL d   1     -48.643  13.148  22.063  0.00  0.00     0.000 A 
ATOM     16  C   UNL d   1     -49.117  13.772  21.819  0.00  0.00     0.000 A 
ATOM     17  C   UNL d   1     -49.204  14.437  22.305  0.00  0.00     0.000 A 
ATOM     18  C   UNL d   1     -48.821  14.476  23.023  0.00  0.00     0.000 A 
ATOM     19  C   UNL d   1     -48.340  13.840  23.268  0.00  0.00     0.000 A 
ENDBRANCH   5  14
BRANCH   3  20
ATOM     20  N   UNL d   1     -45.190  11.277  23.187  0.00  0.00    -0.383 NA
BRANCH  20  21
ATOM     21  C   UNL d   1     -44.696  10.638  23.430  0.00  0.00     0.134 C 
ATOM     22  C   UNL d   1     -43.859  10.730  23.405  0.00  0.00     0.035 C 
ATOM     23  C   UNL d   1     -45.048   9.909  23.697  0.00  0.00     0.035 C 
ENDBRANCH  20  21
ENDBRANCH   3  20
TORSDOF 3
ENDMDL
MODEL 7
REMARK VINA RESULT:      -5.6      9.238     10.370
REMARK  3 active torsions:
REMARK  status: ('A' for Active; 'I' for Inactive)
REMARK    1  A    between atoms: N_10  and  C_3 
REMARK    2  A    between atoms: C_11  and  C_5 
REMARK    3  A    between atoms: C_15  and  N_10 
ROOT
ATOM      1  N   UNL d   1     -38.652  13.895  19.382  0.00  0.00    -0.184 N 
ATOM      2  C   UNL d   1     -38.868  14.426  20.000  0.00  0.00     0.168 A 
ATOM      3  C   UNL d   1     -38.896  14.049  18.603  0.00  0.00     0.217 A 
ATOM      4  N   UNL d   1     -37.963  13.078  20.327  0.00  0.00    -0.162 NA
ATOM      5  C   UNL d   1     -38.631  14.277  20.760  0.00  0.00     0.055 A 
ATOM      6  N   UNL d   1     -39.320  15.093  19.816  0.00  0.00    -0.227 NA
ATOM      7  C   UNL d   1     -39.341  14.711  18.438  0.00  0.00     0.066 A 
ATOM      8  C   UNL d   1     -38.176  13.601  20.935  0.00  0.00     0.104 A 
ATOM      9  C   UNL d   1     -39.562  15.248  19.050  0.00  0.00     0.087 A 
ATOM     10  C   UNL d   1     -39.655  15.004  17.746  0.00  0.00     0.006 A 
ATOM     11  C   UNL d   1     -37.940  13.457  21.708  0.00  0.00     0.023 C 
ATOM     12  C   UNL d   1     -40.005  15.857  18.719  0.00  0.00     0.019 A 
ATOM     13  C   UNL d   1     -40.062  15.701  17.901  0.00  0.00     0.002 A 
ENDROOT
BRANCH   5  14
ATOM     14  C   UNL d   1     -38.842  14.797  21.365  0.00  0.00     0.004 A 
ATOM     15  C   UNL d   1     -38.329  15.402  21.590  0.00  0.00     0.000 A 
ATOM     16  C   UNL d   1     -38.535  15.922  22.191  0.00  0.00     0.000 A 
ATOM     17  C   UNL d   1     -39.265  15.838  22.574  0.00  0.00     0.000 A 
ATOM     18  C   UNL d   1     -39.778  15.243  22.358  0.00  0.00     0.000 A 
ATOM     19  C   UNL d   1     -39.565  14.717  21.747  0.00  0.00     0.000 A 
ENDBRANCH   5  14
BRANCH   3  20
ATOM     20  N   UNL d   1     -38.680  13.514  17.977  0.00  0.00    -0.383 NA
BRANCH  20  21
ATOM     21  C   UNL d   1     -38.469  12.988  17.354  0.00  0.00     0.134 C 
ATOM     22  C   UNL d   1     -38.786  12.206  17.347  0.00  0.00     0.035 C 
ATOM     23  C   UNL d   1     -37.940  13.249  16.739  0.00  0.00     0.035 C 
ENDBRANCH  20  21
ENDBRANCH   3  20
TORSDOF 3
ENDMDL
