MODEL 1
REMARK VINA RESULT:      -5.9      0.000      0.000
REMARK  1 active torsions:
REMARK  status: ('A' for Active; 'I' for Inactive)
REMARK    1  A    between atoms: C_5  and  C_1 
ROOT
ATOM      1  C   UNL d   1      53.741  32.323  53.584  0.00  0.00     0.169 A 
ATOM      2  N   UNL d   1      54.456  32.596  53.294  0.00  0.00    -0.142 NA
ATOM      3  C   UNL d   1      53.684  32.550  54.369  0.00  0.00     0.048 A 
ATOM      4  N   UNL d   1      54.848  32.996  53.901  0.00  0.00    -0.148 NA
ATOM      5  C   UNL d   1      54.368  32.967  54.570  0.00  0.00     0.105 A 
ATOM      6  C   UNL d   1      54.539  33.296  55.307  0.00  0.00     0.023 C 
ENDROOT
BRANCH   1   7
ATOM      7  C   UNL d   1      53.174  31.893  53.158  0.00  0.00     0.231 C 
ATOM      8  O   UNL d   1      52.705  32.277  52.600  0.00  0.00    -0.643 OA
ATOM      9  O   UNL d   1      53.081  31.087  53.294  0.00  0.00    -0.643 OA
ENDBRANCH   1   7
TORSDOF 1
ENDMDL
MODEL 2
REMARK VINA RESULT:      -5.8      1.592      2.381
REMARK  1 active torsions:
REMARK  status: ('A' for Active; 'I' for Inactive)
REMARK    1  A    between atoms: C_5  and  C_1 
ROOT
ATOM      1  C   UNL d   1      53.652  32.117  53.641  0.00  0.00     0.169 A 
ATOM      2  N   UNL d   1      53.145  32.375  53.052  0.00  0.00    -0.142 NA
ATOM      3  C   UNL d   1      53.591  31.302  53.686  0.00  0.00     0.048 A 
ATOM      4  N   UNL d   1      52.765  31.717  52.728  0.00  0.00    -0.148 NA
ATOM      5  C   UNL d   1      53.043  31.049  53.123  0.00  0.00     0.105 A 
ATOM      6  C   UNL d   1      52.814  30.270  52.980  0.00  0.00     0.023 C 
ENDROOT
BRANCH   1   7
ATOM      7  C   UNL d   1      54.140  32.597  54.109  0.00  0.00     0.231 C 
ATOM      8  O   UNL d   1      54.827  32.918  53.786  0.00  0.00    -0.643 OA
ATOM      9  O   UNL d   1      53.939  32.750  54.892  0.00  0.00    -0.643 OA
ENDBRANCH   1   7
TORSDOF 1
ENDMDL
MODEL 3
REMARK VINA RESULT:      -5.7      2.386      2.743
REMARK  1 active torsions:
REMARK  status: ('A' for Active; 'I' for Inactive)
REMARK    1  A    between atoms: C_5  and  C_1 
ROOT
ATOM      1  C   UNL d   1      53.869  33.984  54.824  0.00  0.00     0.169 A 
ATOM      2  N   UNL d   1      53.703  34.710  55.165  0.00  0.00    -0.142 NA
ATOM      3  C   UNL d   1      53.442  33.930  54.127  0.00  0.00     0.048 A 
ATOM      4  N   UNL d   1      53.169  35.111  54.678  0.00  0.00    -0.148 NA
ATOM      5  C   UNL d   1      53.007  34.625  54.033  0.00  0.00     0.105 A 
ATOM      6  C   UNL d   1      52.502  34.802  53.405  0.00  0.00     0.023 C 
ENDROOT
BRANCH   1   7
ATOM      7  C   UNL d   1      54.379  33.407  55.130  0.00  0.00     0.231 C 
ATOM      8  O   UNL d   1      55.178  33.581  55.233  0.00  0.00    -0.643 OA
ATOM      9  O   UNL d   1      54.087  32.664  55.330  0.00  0.00    -0.643 OA
ENDBRANCH   1   7
TORSDOF 1
ENDMDL
MODEL 4
REMARK VINA RESULT:      -5.4      2.344      2.769
REMARK  1 active torsions:
REMARK  status: ('A' for Active; 'I' for Inactive)
REMARK    1  A    between atoms: C_5  and  C_1 
ROOT
ATOM      1  C   UNL d   1      53.283  34.606  54.511  0.00  0.00     0.169 A 
ATOM      2  N   UNL d   1      53.884  34.608  55.066  0.00  0.00    -0.142 NA
ATOM      3  C   UNL d   1      53.209  33.843  54.223  0.00  0.00     0.048 A 
ATOM      4  N   UNL d   1      54.187  33.842  55.126  0.00  0.00    -0.148 NA
ATOM      5  C   UNL d   1      53.767  33.366  54.601  0.00  0.00     0.105 A 
ATOM      6  C   UNL d   1      53.882  32.558  54.477  0.00  0.00     0.023 C 
ENDROOT
BRANCH   1   7
ATOM      7  C   UNL d   1      52.830  35.260  54.280  0.00  0.00     0.231 C 
ATOM      8  O   UNL d   1      52.873  35.960  54.713  0.00  0.00    -0.643 OA
ATOM      9  O   UNL d   1      52.339  35.210  53.621  0.00  0.00    -0.643 OA
ENDBRANCH   1   7
TORSDOF 1
ENDMDL
MODEL 5
REMARK VINA RESULT:      -5.3      1.433      1.594
REMARK  1 active torsions:
REMARK  status: ('A' for Active; 'I' for Inactive)
REMARK    1  A    between atoms: C_5  and  C_1 
ROOT
ATOM      1  C   UNL d   1      53.266  33.611  53.886  0.00  0.00     0.169 A 
ATOM      2  N   UNL d   1      53.736  33.045  53.527  0.00  0.00    -0.142 NA
ATOM      3  C   UNL d   1      53.637  33.844  54.578  0.00  0.00     0.048 A 
ATOM      4  N   UNL d   1      54.404  32.924  53.997  0.00  0.00    -0.148 NA
ATOM      5  C   UNL d   1      54.342  33.421  54.651  0.00  0.00     0.105 A 
ATOM      6  C   UNL d   1      54.887  33.485  55.268  0.00  0.00     0.023 C 
ENDROOT
BRANCH   1   7
ATOM      7  C   UNL d   1      52.543  33.898  53.599  0.00  0.00     0.231 C 
ATOM      8  O   UNL d   1      52.515  34.629  53.220  0.00  0.00    -0.643 OA
ATOM      9  O   UNL d   1      51.857  33.453  53.694  0.00  0.00    -0.643 OA
ENDBRANCH   1   7
TORSDOF 1
ENDMDL
MODEL 6
REMARK VINA RESULT:      -5.2      2.911      3.436
REMARK  1 active torsions:
REMARK  status: ('A' for Active; 'I' for Inactive)
REMARK    1  A    between atoms: C_5  and  C_1 
ROOT
ATOM      1  C   UNL d   1      52.737  34.620  54.056  0.00  0.00     0.169 A 
ATOM      2  N   UNL d   1      52.651  33.813  54.159  0.00  0.00    -0.142 NA
ATOM      3  C   UNL d   1      52.340  34.830  53.371  0.00  0.00     0.048 A 
ATOM      4  N   UNL d   1      52.197  33.517  53.536  0.00  0.00    -0.148 NA
ATOM      5  C   UNL d   1      52.004  34.150  53.045  0.00  0.00     0.105 A 
ATOM      6  C   UNL d   1      51.555  34.111  52.354  0.00  0.00     0.023 C 
ENDROOT
BRANCH   1   7
ATOM      7  C   UNL d   1      53.153  35.135  54.555  0.00  0.00     0.231 C 
ATOM      8  O   UNL d   1      53.730  34.834  55.061  0.00  0.00    -0.643 OA
ATOM      9  O   UNL d   1      52.990  35.941  54.545  0.00  0.00    -0.643 OA
ENDBRANCH   1   7
TORSDOF 1
ENDMDL
MODEL 7
REMARK VINA RESULT:      -4.6      2.765      3.293
REMARK  1 active torsions:
REMARK  status: ('A' for Active; 'I' for Inactive)
REMARK    1  A    between atoms: C_5  and  C_1 
ROOT
ATOM      1  C   UNL d   1      53.127  29.539  54.025  0.00  0.00     0.169 A 
ATOM      2  N   UNL d   1      52.604  29.481  53.397  0.00  0.00    -0.142 NA
ATOM      3  C   UNL d   1      53.478  30.278  53.993  0.00  0.00     0.048 A 
ATOM      4  N   UNL d   1      52.630  30.188  52.971  0.00  0.00    -0.148 NA
ATOM      5  C   UNL d   1      53.173  30.683  53.341  0.00  0.00     0.105 A 
ATOM      6  C   UNL d   1      53.377  31.447  53.104  0.00  0.00     0.023 C 
ENDROOT
BRANCH   1   7
ATOM      7  C   UNL d   1      53.274  28.953  54.593  0.00  0.00     0.231 C 
ATOM      8  O   UNL d   1      53.671  28.265  54.376  0.00  0.00    -0.643 OA
ATOM      9  O   UNL d   1      53.023  29.060  55.369  0.00  0.00    -0.643 OA
ENDBRANCH   1   7
TORSDOF 1
ENDMDL
MODEL 8
REMARK VINA RESULT:      -3.5     10.152     10.345
REMARK  1 active torsions:
REMARK  status: ('A' for Active; 'I' for Inactive)
REMARK    1  A    between atoms: C_5  and  C_1 
ROOT
ATOM      1  C   UNL d   1      45.318  28.076  57.489  0.00  0.00     0.169 A 
ATOM      2  N   UNL d   1      45.337  28.582  58.132  0.00  0.00    -0.142 NA
ATOM      3  C   UNL d   1      45.036  28.496  56.845  0.00  0.00     0.048 A 
ATOM      4  N   UNL d   1      45.066  29.323  57.889  0.00  0.00    -0.148 NA
ATOM      5  C   UNL d   1      44.878  29.270  57.088  0.00  0.00     0.105 A 
ATOM      6  C   UNL d   1      44.585  29.879  56.615  0.00  0.00     0.023 C 
ENDROOT
BRANCH   1   7
ATOM      7  C   UNL d   1      45.544  27.278  57.489  0.00  0.00     0.231 C 
ATOM      8  O   UNL d   1      45.780  26.921  56.785  0.00  0.00    -0.643 OA
ATOM      9  O   UNL d   1      45.532  26.847  58.189  0.00  0.00    -0.643 OA
ENDBRANCH   1   7
TORSDOF 1
ENDMDL
MODEL 9
REMARK VINA RESULT:      -3.5     15.278     15.659
REMARK  1 active torsions:
REMARK  status: ('A' for Active; 'I' for Inactive)
REMARK    1  A    between atoms: C_5  and  C_1 
ROOT
ATOM      1  C   UNL d   1      48.555  27.218  67.695  0.00  0.00     0.169 A 
ATOM      2  N   UNL d   1      49.172  26.727  67.920  0.00  0.00    -0.142 NA
ATOM      3  C   UNL d   1      48.876  27.933  67.459  0.00  0.00     0.048 A 
ATOM      4  N   UNL d   1      49.881  27.139  67.824  0.00  0.00    -0.148 NA
ATOM      5  C   UNL d   1      49.697  27.890  67.538  0.00  0.00     0.105 A 
ATOM      6  C   UNL d   1      50.236  28.489  67.361  0.00  0.00     0.023 C 
ENDROOT
BRANCH   1   7
ATOM      7  C   UNL d   1      47.749  27.024  67.703  0.00  0.00     0.231 C 
ATOM      8  O   UNL d   1      47.185  27.623  67.658  0.00  0.00    -0.643 OA
ATOM      9  O   UNL d   1      47.516  26.237  67.758  0.00  0.00    -0.643 OA
ENDBRANCH   1   7
TORSDOF 1
ENDMDL
