MODEL 1
REMARK VINA RESULT:      77.2      0.000      0.000
REMARK  8 active torsions:
REMARK  status: ('A' for Active; 'I' for Inactive)
REMARK    1  A    between atoms: C_25  and  N_5 
REMARK    2  A    between atoms: C_11  and  C_6 
REMARK       I    between atoms: N_15  and  C_11 
REMARK    3  A    between atoms: C_26  and  N_15 
REMARK    4  A    between atoms: C_17  and  C_26 
REMARK    5  A    between atoms: C_30  and  C_25 
REMARK    6  A    between atoms: O_29  and  C_30 
REMARK    7  A    between atoms: C_32  and  O_29 
REMARK    8  A    between atoms: C_31  and  C_32 
ROOT
ATOM      1  C   UNL d   1     -57.637 -98.869 -44.083  0.00  0.00     0.155 A 
ATOM      2  C   UNL d   1     -57.180 -98.913 -44.769  0.00  0.00     0.091 A 
ATOM      3  N   UNL d   1     -57.268 -98.877 -43.340  0.00  0.00    -0.210 NA
ATOM      4  N   UNL d   1     -55.990 -98.973 -43.973  0.00  0.00    -0.258 N 
ATOM      5  N   UNL d   1     -58.451 -98.818 -44.131  0.00  0.00    -0.272 N 
ATOM      6  C   UNL d   1     -58.375 -98.852 -45.552  0.00  0.00     0.094 A 
ATOM      7  C   UNL d   1     -56.447 -98.929 -43.287  0.00  0.00     0.152 A 
ATOM      8  C   UNL d   1     -56.352 -98.965 -44.716  0.00  0.00     0.269 A 
ATOM      9  C   UNL d   1     -58.832 -98.809 -44.867  0.00  0.00     0.175 A 
ATOM     10  C   UNL d   1     -57.548 -98.905 -45.510  0.00  0.00     0.016 A 
ATOM     11  C   UNL d   1     -56.084 -98.937 -42.548  0.00  0.00     0.035 A 
ATOM     12  C   UNL d   1     -55.164 -99.025 -43.931  0.00  0.00     0.084 A 
ATOM     13  N   UNL d   1     -59.651 -98.757 -44.920  0.00  0.00    -0.128 N 
ATOM     14  O   UNL d   1     -55.898 -99.009 -45.413  0.00  0.00    -0.266 OA
ATOM     15  C   UNL d   1     -54.807 -99.032 -43.181  0.00  0.00     0.019 A 
ATOM     16  C   UNL d   1     -55.263 -98.989 -42.496  0.00  0.00     0.005 A 
ATOM     17  C   UNL d   1     -56.538 -98.894 -41.867  0.00  0.00     0.003 C 
ENDROOT
BRANCH   6  18
ATOM     18  C   UNL d   1     -58.749 -98.844 -46.298  0.00  0.00     0.282 C 
ATOM     19  N   UNL d   1     -59.571 -98.818 -46.341  0.00  0.00    -0.204 NA
ATOM     20  O   UNL d   1     -58.291 -98.862 -46.985  0.00  0.00    -0.265 OA
BRANCH  19  21
ATOM     21  C   UNL d   1     -59.941 -98.810 -47.079  0.00  0.00     0.127 C 
BRANCH  21  22
ATOM     22  C   UNL d   1     -59.859 -99.448 -47.591  0.00  0.00     0.119 A 
ATOM     23  O   UNL d   1     -59.934 -99.421 -48.413  0.00  0.00    -0.304 OA
ATOM     24  C   UNL d   1     -59.811-100.180 -48.709  0.00  0.00     0.123 A 
ATOM     25  C   UNL d   1     -59.659-100.682 -48.070  0.00  0.00     0.029 A 
ATOM     26  C   UNL d   1     -59.691-100.221 -47.379  0.00  0.00     0.028 A 
ENDBRANCH  21  22
ENDBRANCH  19  21
ENDBRANCH   6  18
BRANCH   5  27
ATOM     27  C   UNL d   1     -58.907 -98.774 -43.446  0.00  0.00     0.110 C 
BRANCH  27  28
ATOM     28  C   UNL d   1     -59.213 -99.465 -43.109  0.00  0.00     0.142 C 
BRANCH  28  29
ATOM     29  O   UNL d   1     -59.828 -99.426 -42.561  0.00  0.00    -0.298 OA
BRANCH  29  30
ATOM     30  C   UNL d   1     -59.740 -98.969 -41.883  0.00  0.00     0.168 C 
BRANCH  30  31
ATOM     31  C   UNL d   1     -59.948 -99.271 -41.141  0.00  0.00     0.261 C 
ATOM     32  O   UNL d   1     -59.396 -99.263 -40.528  0.00  0.00    -0.281 OA
ENDBRANCH  30  31
ENDBRANCH  29  30
ENDBRANCH  28  29
ENDBRANCH  27  28
ENDBRANCH   5  27
TORSDOF 8
ENDMDL
