MODEL 1
REMARK VINA RESULT:      16.8      0.000      0.000
REMARK  7 active torsions:
REMARK  status: ('A' for Active; 'I' for Inactive)
REMARK    1  A    between atoms: C_2  and  C_1 
REMARK    2  A    between atoms: O_12  and  C_1 
REMARK       I    between atoms: C_3  and  N_4 
REMARK    3  A    between atoms: C_11  and  C_3 
REMARK    4  A    between atoms: N_4  and  C_7 
REMARK    5  A    between atoms: C_5  and  C_13 
REMARK    6  A    between atoms: O_14  and  C_5 
REMARK    7  A    between atoms: C_13  and  C_11 
ROOT
ATOM      1  C   UNL d   1     -58.134 -98.804 -44.514  0.00  0.00     0.063 A 
ATOM      2  C   UNL d   1     -57.459 -98.803 -44.040  0.00  0.00     0.023 A 
ATOM      3  C   UNL d   1     -56.703 -98.779 -44.369  0.00  0.00     0.059 A 
ATOM      4  C   UNL d   1     -58.054 -98.781 -45.348  0.00  0.00     0.006 A 
ATOM      5  C   UNL d   1     -57.292 -98.757 -45.679  0.00  0.00     0.002 A 
ATOM      6  C   UNL d   1     -56.627 -98.757 -45.182  0.00  0.00     0.017 A 
ENDROOT
BRANCH   3   7
ATOM      7  N   UNL d   1     -56.019 -98.778 -43.874  0.00  0.00    -0.321 N 
ATOM      8  C   UNL d   1     -55.425 -99.335 -44.003  0.00  0.00     0.258 C 
ATOM      9  O   UNL d   1     -54.751 -99.335 -43.515  0.00  0.00    -0.267 OA
ATOM     10  H   UNL d   1     -55.957 -98.220 -43.268  0.00  0.00     0.169 HD
BRANCH   8  11
ATOM     11  C   UNL d   1     -55.476 -99.899 -44.606  0.00  0.00     0.067 C 
BRANCH  11  12
ATOM     12  C   UNL d   1     -54.877-100.429 -44.752  0.00  0.00     0.072 C 
BRANCH  12  13
ATOM     13  C   UNL d   1     -54.965-101.215 -44.542  0.00  0.00     0.178 C 
ATOM     14  O   UNL d   1     -54.808-101.439 -43.764  0.00  0.00    -0.646 OA
BRANCH  13  15
ATOM     15  O   UNL d   1     -55.204-101.769 -45.091  0.00  0.00    -0.773 OA
ATOM     16  H   UNL d   1     -55.023-102.549 -44.988  0.00  0.00     0.167 HD
ENDBRANCH  13  15
ENDBRANCH  12  13
ENDBRANCH  11  12
ENDBRANCH   8  11
ENDBRANCH   3   7
BRANCH   1  17
ATOM     17  C   UNL d   1     -58.883 -98.828 -44.170  0.00  0.00     0.178 C 
ATOM     18  O   UNL d   1     -58.951 -98.759 -43.346  0.00  0.00    -0.646 OA
BRANCH  17  19
ATOM     19  O   UNL d   1     -59.544 -98.918 -44.633  0.00  0.00    -0.773 OA
ATOM     20  H   UNL d   1     -60.293 -98.999 -44.295  0.00  0.00     0.167 HD
ENDBRANCH  17  19
ENDBRANCH   1  17
TORSDOF 7
ENDMDL
