MODEL 1
REMARK VINA RESULT:      -2.3      0.000      0.000
REMARK  5 active torsions:
REMARK  status: ('A' for Active; 'I' for Inactive)
REMARK    1  A    between atoms: N_8  and  C_1 
REMARK    2  A    between atoms: C_11  and  N_4 
REMARK    3  A    between atoms: N_6  and  C_7 
REMARK       I    between atoms: C_9  and  N_6 
REMARK    4  A    between atoms: C_7  and  N_8 
REMARK    5  A    between atoms: C_14  and  C_9 
ROOT
ATOM      1  C   UNL d   1     -41.719-122.298 -52.685  0.00  0.00     0.209 A 
ATOM      2  C   UNL d   1     -42.193-121.581 -53.740  0.00  0.00     0.310 A 
ATOM      3  N   UNL d   1     -41.659-122.815 -53.941  0.00  0.00    -0.237 N 
ATOM      4  N   UNL d   1     -41.994-122.166 -54.224  0.00  0.00    -0.208 N 
ATOM      5  C   UNL d   1     -41.522-122.879 -53.169  0.00  0.00     0.116 A 
ATOM      6  O   UNL d   1     -42.560-120.803 -53.830  0.00  0.00    -0.262 OA
ATOM      7  C   UNL d   1     -41.462-123.396 -54.425  0.00  0.00     0.120 C 
ATOM      8  C   UNL d   1     -41.185-123.533 -52.888  0.00  0.00     0.024 C 
ENDROOT
BRANCH   1   9
ATOM      9  N   UNL d   1     -41.661-122.164 -51.829  0.00  0.00    -0.366 NA
BRANCH   9  10
ATOM     10  C   UNL d   1     -41.605-122.035 -51.012  0.00  0.00     0.275 C 
ATOM     11  S   UNL d   1     -41.124-121.425 -50.718  0.00  0.00    -0.023 SA
BRANCH  10  12
ATOM     12  N   UNL d   1     -42.032-122.518 -50.489  0.00  0.00    -0.168 NA
ATOM     13  C   UNL d   1     -42.005-122.367 -49.675  0.00  0.00     0.282 C 
ATOM     14  O   UNL d   1     -41.551-121.735 -49.382  0.00  0.00    -0.265 OA
BRANCH  13  15
ATOM     15  C   UNL d   1     -42.432-122.850 -49.152  0.00  0.00     0.058 A 
ATOM     16  C   UNL d   1     -43.179-123.130 -49.363  0.00  0.00     0.005 A 
ATOM     17  C   UNL d   1     -43.606-123.614 -48.837  0.00  0.00     0.000 A 
ATOM     18  C   UNL d   1     -43.273-123.816 -48.091  0.00  0.00     0.000 A 
ATOM     19  C   UNL d   1     -42.521-123.530 -47.886  0.00  0.00     0.000 A 
ATOM     20  C   UNL d   1     -42.102-123.051 -48.411  0.00  0.00     0.005 A 
ENDBRANCH  13  15
ENDBRANCH  10  12
ENDBRANCH   9  10
ENDBRANCH   1   9
BRANCH   4  21
ATOM     21  C   UNL d   1     -42.132-122.099 -54.991  0.00  0.00     0.085 A 
ATOM     22  C   UNL d   1     -41.580-121.807 -55.462  0.00  0.00     0.019 A 
ATOM     23  C   UNL d   1     -41.711-121.737 -56.231  0.00  0.00     0.002 A 
ATOM     24  C   UNL d   1     -42.412-121.966 -56.532  0.00  0.00     0.000 A 
ATOM     25  C   UNL d   1     -42.960-122.257 -56.053  0.00  0.00     0.002 A 
ATOM     26  C   UNL d   1     -42.821-122.324 -55.287  0.00  0.00     0.019 A 
ENDBRANCH   4  21
TORSDOF 5
ENDMDL
MODEL 2
REMARK VINA RESULT:      -1.0      1.005      5.731
REMARK  5 active torsions:
REMARK  status: ('A' for Active; 'I' for Inactive)
REMARK    1  A    between atoms: N_8  and  C_1 
REMARK    2  A    between atoms: C_11  and  N_4 
REMARK    3  A    between atoms: N_6  and  C_7 
REMARK       I    between atoms: C_9  and  N_6 
REMARK    4  A    between atoms: C_7  and  N_8 
REMARK    5  A    between atoms: C_14  and  C_9 
ROOT
ATOM      1  C   UNL d   1     -42.076-122.388 -50.499  0.00  0.00     0.209 A 
ATOM      2  C   UNL d   1     -42.808-122.254 -49.360  0.00  0.00     0.310 A 
ATOM      3  N   UNL d   1     -41.855-123.220 -49.448  0.00  0.00    -0.237 N 
ATOM      4  N   UNL d   1     -42.415-122.854 -49.040  0.00  0.00    -0.208 N 
ATOM      5  C   UNL d   1     -41.686-122.985 -50.179  0.00  0.00     0.116 A 
ATOM      6  O   UNL d   1     -43.441-121.725 -49.103  0.00  0.00    -0.262 OA
ATOM      7  C   UNL d   1     -41.465-123.817 -49.128  0.00  0.00     0.120 C 
ATOM      8  C   UNL d   1     -41.123-123.355 -50.586  0.00  0.00     0.024 C 
ENDROOT
BRANCH   1   9
ATOM      9  N   UNL d   1     -42.053-121.978 -51.264  0.00  0.00    -0.366 NA
BRANCH   9  10
ATOM     10  C   UNL d   1     -42.031-121.586 -51.994  0.00  0.00     0.275 C 
ATOM     11  S   UNL d   1     -42.012-120.756 -52.022  0.00  0.00    -0.023 SA
BRANCH  10  12
ATOM     12  N   UNL d   1     -42.028-122.026 -52.698  0.00  0.00    -0.168 NA
ATOM     13  C   UNL d   1     -42.009-121.634 -53.429  0.00  0.00     0.282 C 
ATOM     14  O   UNL d   1     -41.994-120.803 -53.456  0.00  0.00    -0.265 OA
BRANCH  13  15
ATOM     15  C   UNL d   1     -42.006-122.074 -54.132  0.00  0.00     0.058 A 
ATOM     16  C   UNL d   1     -42.415-121.797 -54.795  0.00  0.00     0.005 A 
ATOM     17  C   UNL d   1     -42.411-122.240 -55.501  0.00  0.00     0.000 A 
ATOM     18  C   UNL d   1     -41.990-122.967 -55.535  0.00  0.00     0.000 A 
ATOM     19  C   UNL d   1     -41.581-123.238 -54.863  0.00  0.00     0.000 A 
ATOM     20  C   UNL d   1     -41.588-122.796 -54.167  0.00  0.00     0.005 A 
ENDBRANCH  13  15
ENDBRANCH  10  12
ENDBRANCH   9  10
ENDBRANCH   1   9
BRANCH   4  21
ATOM     21  C   UNL d   1     -42.585-123.086 -48.313  0.00  0.00     0.085 A 
ATOM     22  C   UNL d   1     -43.204-123.546 -48.186  0.00  0.00     0.019 A 
ATOM     23  C   UNL d   1     -43.381-123.783 -47.460  0.00  0.00     0.002 A 
ATOM     24  C   UNL d   1     -42.924-123.550 -46.850  0.00  0.00     0.000 A 
ATOM     25  C   UNL d   1     -42.305-123.089 -46.986  0.00  0.00     0.002 A 
ATOM     26  C   UNL d   1     -42.136-122.857 -47.713  0.00  0.00     0.019 A 
ENDBRANCH   4  21
TORSDOF 5
ENDMDL
