MODEL 1
REMARK VINA RESULT:      -2.8      0.000      0.000
REMARK  1 active torsions:
REMARK  status: ('A' for Active; 'I' for Inactive)
REMARK    1  A    between atoms: C_8  and  N_3 
ROOT
ATOM      1  C   UNL d   1      30.179  16.205 -23.599  0.00  0.00     0.292 A 
ATOM      2  C   UNL d   1      29.389  16.047 -23.412  0.00  0.00     0.128 A 
ATOM      3  N   UNL d   1      30.359  16.775 -24.156  0.00  0.00    -0.194 N 
ATOM      4  N   UNL d   1      29.759  17.198 -24.536  0.00  0.00    -0.160 NA
ATOM      5  C   UNL d   1      28.777  16.459 -23.782  0.00  0.00     0.094 A 
ATOM      6  C   UNL d   1      28.969  17.040 -24.350  0.00  0.00     0.133 A 
ATOM      7  O   UNL d   1      30.798  15.777 -23.215  0.00  0.00    -0.264 OA
ATOM      8 CL   UNL d   1      29.181  15.454 -22.833  0.00  0.00    -0.076 Cl
ATOM      9 CL   UNL d   1      27.991  16.302 -23.596  0.00  0.00    -0.080 Cl
ENDROOT
BRANCH   3  10
ATOM     10  C   UNL d   1      31.160  16.935 -24.345  0.00  0.00     0.086 A 
ATOM     11  C   UNL d   1      31.547  17.550 -23.958  0.00  0.00     0.019 A 
ATOM     12  C   UNL d   1      32.355  17.712 -24.149  0.00  0.00     0.002 A 
ATOM     13  C   UNL d   1      32.732  17.250 -24.717  0.00  0.00     0.000 A 
ATOM     14  C   UNL d   1      32.345  16.643 -25.097  0.00  0.00     0.002 A 
ATOM     15  C   UNL d   1      31.536  16.481 -24.906  0.00  0.00     0.019 A 
ENDBRANCH   3  10
TORSDOF 1
ENDMDL
MODEL 2
REMARK VINA RESULT:      -2.7      1.851      3.220
REMARK  1 active torsions:
REMARK  status: ('A' for Active; 'I' for Inactive)
REMARK    1  A    between atoms: C_8  and  N_3 
ROOT
ATOM      1  C   UNL d   1      30.930  16.965 -24.074  0.00  0.00     0.292 A 
ATOM      2  C   UNL d   1      31.717  17.214 -24.027  0.00  0.00     0.128 A 
ATOM      3  N   UNL d   1      30.731  16.202 -23.858  0.00  0.00    -0.194 N 
ATOM      4  N   UNL d   1      31.309  15.675 -23.590  0.00  0.00    -0.160 NA
ATOM      5  C   UNL d   1      32.307  16.701 -23.762  0.00  0.00     0.094 A 
ATOM      6  C   UNL d   1      32.096  15.924 -23.543  0.00  0.00     0.133 A 
ATOM      7  O   UNL d   1      30.333  17.497 -24.346  0.00  0.00    -0.264 OA
ATOM      8 CL   UNL d   1      31.944  18.007 -24.249  0.00  0.00    -0.076 Cl
ATOM      9 CL   UNL d   1      33.090  16.949 -23.715  0.00  0.00    -0.080 Cl
ENDROOT
BRANCH   3  10
ATOM     10  C   UNL d   1      29.933  15.949 -23.906  0.00  0.00     0.086 A 
ATOM     11  C   UNL d   1      29.471  15.952 -23.224  0.00  0.00     0.019 A 
ATOM     12  C   UNL d   1      28.666  15.697 -23.273  0.00  0.00     0.002 A 
ATOM     13  C   UNL d   1      28.366  15.453 -24.000  0.00  0.00     0.000 A 
ATOM     14  C   UNL d   1      28.827  15.453 -24.671  0.00  0.00     0.002 A 
ATOM     15  C   UNL d   1      29.633  15.708 -24.623  0.00  0.00     0.019 A 
ENDBRANCH   3  10
TORSDOF 1
ENDMDL
MODEL 3
REMARK VINA RESULT:      -2.6      1.712      3.081
REMARK  1 active torsions:
REMARK  status: ('A' for Active; 'I' for Inactive)
REMARK    1  A    between atoms: C_8  and  N_3 
ROOT
ATOM      1  C   UNL d   1      31.026  16.775 -23.906  0.00  0.00     0.292 A 
ATOM      2  C   UNL d   1      31.744  17.164 -24.041  0.00  0.00     0.128 A 
ATOM      3  N   UNL d   1      30.371  16.961 -24.359  0.00  0.00    -0.194 N 
ATOM      4  N   UNL d   1      30.418  17.534 -24.953  0.00  0.00    -0.160 NA
ATOM      5  C   UNL d   1      31.808  17.738 -24.630  0.00  0.00     0.094 A 
ATOM      6  C   UNL d   1      31.136  17.923 -25.088  0.00  0.00     0.133 A 
ATOM      7  O   UNL d   1      30.970  16.188 -23.301  0.00  0.00    -0.264 OA
ATOM      8 CL   UNL d   1      32.438  16.983 -23.577  0.00  0.00    -0.076 Cl
ATOM      9 CL   UNL d   1      32.522  18.125 -24.764  0.00  0.00    -0.080 Cl
ENDROOT
BRANCH   3  10
ATOM     10  C   UNL d   1      29.644  16.567 -24.223  0.00  0.00     0.086 A 
ATOM     11  C   UNL d   1      29.500  15.850 -24.601  0.00  0.00     0.019 A 
ATOM     12  C   UNL d   1      28.766  15.453 -24.463  0.00  0.00     0.002 A 
ATOM     13  C   UNL d   1      28.216  15.794 -23.954  0.00  0.00     0.000 A 
ATOM     14  C   UNL d   1      28.363  16.504 -23.583  0.00  0.00     0.002 A 
ATOM     15  C   UNL d   1      29.097  16.901 -23.721  0.00  0.00     0.019 A 
ENDBRANCH   3  10
TORSDOF 1
ENDMDL
MODEL 4
REMARK VINA RESULT:      -2.3      2.890      3.737
REMARK  1 active torsions:
REMARK  status: ('A' for Active; 'I' for Inactive)
REMARK    1  A    between atoms: C_8  and  N_3 
ROOT
ATOM      1  C   UNL d   1      32.681  18.250 -24.301  0.00  0.00     0.292 A 
ATOM      2  C   UNL d   1      32.910  19.045 -24.274  0.00  0.00     0.128 A 
ATOM      3  N   UNL d   1      32.556  17.839 -23.606  0.00  0.00    -0.194 N 
ATOM      4  N   UNL d   1      32.656  18.208 -22.873  0.00  0.00    -0.160 NA
ATOM      5  C   UNL d   1      33.014  19.429 -23.551  0.00  0.00     0.094 A 
ATOM      6  C   UNL d   1      32.884  19.003 -22.845  0.00  0.00     0.133 A 
ATOM      7  O   UNL d   1      32.578  17.865 -25.046  0.00  0.00    -0.264 OA
ATOM      8 CL   UNL d   1      33.045  19.490 -24.989  0.00  0.00    -0.076 Cl
ATOM      9 CL   UNL d   1      33.241  20.220 -23.524  0.00  0.00    -0.080 Cl
ENDROOT
BRANCH   3  10
ATOM     10  C   UNL d   1      32.325  17.034 -23.634  0.00  0.00     0.086 A 
ATOM     11  C   UNL d   1      32.905  16.452 -23.683  0.00  0.00     0.019 A 
ATOM     12  C   UNL d   1      32.672  15.639 -23.711  0.00  0.00     0.002 A 
ATOM     13  C   UNL d   1      31.870  15.453 -23.688  0.00  0.00     0.000 A 
ATOM     14  C   UNL d   1      31.300  16.031 -23.639  0.00  0.00     0.002 A 
ATOM     15  C   UNL d   1      31.533  16.844 -23.611  0.00  0.00     0.019 A 
ENDBRANCH   3  10
TORSDOF 1
ENDMDL
MODEL 5
REMARK VINA RESULT:      -1.7      1.905      2.539
REMARK  1 active torsions:
REMARK  status: ('A' for Active; 'I' for Inactive)
REMARK    1  A    between atoms: C_8  and  N_3 
ROOT
ATOM      1  C   UNL d   1      32.390  17.008 -23.682  0.00  0.00     0.292 A 
ATOM      2  C   UNL d   1      32.031  16.274 -23.811  0.00  0.00     0.128 A 
ATOM      3  N   UNL d   1      32.157  17.657 -24.120  0.00  0.00    -0.194 N 
ATOM      4  N   UNL d   1      31.565  17.589 -24.693  0.00  0.00    -0.160 NA
ATOM      5  C   UNL d   1      31.438  16.188 -24.378  0.00  0.00     0.094 A 
ATOM      6  C   UNL d   1      31.206  16.856 -24.822  0.00  0.00     0.133 A 
ATOM      7  O   UNL d   1      32.996  17.085 -23.098  0.00  0.00    -0.264 OA
ATOM      8 CL   UNL d   1      32.261  15.584 -23.362  0.00  0.00    -0.076 Cl
ATOM      9 CL   UNL d   1      31.081  15.458 -24.507  0.00  0.00    -0.080 Cl
ENDROOT
BRANCH   3  10
ATOM     10  C   UNL d   1      32.521  18.401 -23.989  0.00  0.00     0.086 A 
ATOM     11  C   UNL d   1      32.532  18.712 -23.227  0.00  0.00     0.019 A 
ATOM     12  C   UNL d   1      32.900  19.463 -23.095  0.00  0.00     0.002 A 
ATOM     13  C   UNL d   1      33.236  19.861 -23.732  0.00  0.00     0.000 A 
ATOM     14  C   UNL d   1      33.223  19.549 -24.484  0.00  0.00     0.002 A 
ATOM     15  C   UNL d   1      32.856  18.798 -24.616  0.00  0.00     0.019 A 
ENDBRANCH   3  10
TORSDOF 1
ENDMDL
