MODEL 1
REMARK VINA RESULT:      -5.2      0.000      0.000
REMARK  2 active torsions:
REMARK  status: ('A' for Active; 'I' for Inactive)
REMARK    1  A    between atoms: C_9  and  C_4 
REMARK    2  A    between atoms: N_6  and  C_8 
ROOT
ATOM      1  N   UNL d   1     -41.457-121.560 -52.307  0.00  0.00    -0.211 NA
ATOM      2  C   UNL d   1     -41.289-121.613 -51.501  0.00  0.00     0.140 A 
ATOM      3  C   UNL d   1     -41.290-122.347 -51.136  0.00  0.00     0.051 A 
ATOM      4  C   UNL d   1     -41.624-122.238 -52.743  0.00  0.00     0.183 A 
ATOM      5  C   UNL d   1     -41.457-123.034 -51.565  0.00  0.00     0.104 A 
ATOM      6  O   UNL d   1     -41.626-122.980 -52.380  0.00  0.00    -0.289 OA
ATOM      7  S   UNL d   1     -41.123-120.934 -51.068  0.00  0.00    -0.057 SA
ATOM      8  C   UNL d   1     -41.124-122.403 -50.330  0.00  0.00     0.004 A 
ATOM      9  C   UNL d   1     -41.459-123.768 -51.201  0.00  0.00     0.025 A 
ATOM     10  C   UNL d   1     -41.123-123.140 -49.954  0.00  0.00     0.000 A 
ATOM     11  C   UNL d   1     -41.290-123.818 -50.390  0.00  0.00     0.002 A 
ENDROOT
BRANCH   4  12
ATOM     12  C   UNL d   1     -41.791-122.176 -53.552  0.00  0.00     0.041 A 
ATOM     13  C   UNL d   1     -42.432-121.711 -53.796  0.00  0.00     0.005 A 
ATOM     14  C   UNL d   1     -42.599-121.649 -54.600  0.00  0.00     0.024 A 
ATOM     15  C   UNL d   1     -42.135-122.044 -55.160  0.00  0.00     0.127 A 
ATOM     16  C   UNL d   1     -41.493-122.508 -54.903  0.00  0.00     0.024 A 
ATOM     17  C   UNL d   1     -41.326-122.571 -54.099  0.00  0.00     0.005 A 
BRANCH  15  18
ATOM     18  N   UNL d   1     -42.308-121.976 -55.963  0.00  0.00    -0.114 N 
ATOM     19  O   UNL d   1     -42.998-122.304 -56.270  0.00  0.00    -0.532 OA
ATOM     20  O   UNL d   1     -41.789-121.576 -56.468  0.00  0.00    -0.532 OA
ENDBRANCH  15  18
ENDBRANCH   4  12
TORSDOF 2
ENDMDL
MODEL 2
REMARK VINA RESULT:      -5.1      2.314      4.838
REMARK  2 active torsions:
REMARK  status: ('A' for Active; 'I' for Inactive)
REMARK    1  A    between atoms: C_9  and  C_4 
REMARK    2  A    between atoms: N_6  and  C_8 
ROOT
ATOM      1  N   UNL d   1     -41.539-121.944 -51.000  0.00  0.00    -0.211 NA
ATOM      2  C   UNL d   1     -41.337-121.805 -51.787  0.00  0.00     0.140 A 
ATOM      3  C   UNL d   1     -41.339-122.429 -52.320  0.00  0.00     0.051 A 
ATOM      4  C   UNL d   1     -41.742-122.701 -50.749  0.00  0.00     0.183 A 
ATOM      5  C   UNL d   1     -41.541-123.194 -52.077  0.00  0.00     0.104 A 
ATOM      6  O   UNL d   1     -41.746-123.333 -51.281  0.00  0.00    -0.289 OA
ATOM      7  S   UNL d   1     -41.135-121.048 -52.035  0.00  0.00    -0.057 SA
ATOM      8  C   UNL d   1     -41.137-122.294 -53.108  0.00  0.00     0.004 A 
ATOM      9  C   UNL d   1     -41.543-123.817 -52.609  0.00  0.00     0.025 A 
ATOM     10  C   UNL d   1     -41.136-122.917 -53.652  0.00  0.00     0.000 A 
ATOM     11  C   UNL d   1     -41.339-123.674 -53.400  0.00  0.00     0.002 A 
ENDROOT
BRANCH   4  12
ATOM     12  C   UNL d   1     -41.944-122.831 -49.956  0.00  0.00     0.041 A 
ATOM     13  C   UNL d   1     -41.343-122.989 -49.408  0.00  0.00     0.005 A 
ATOM     14  C   UNL d   1     -41.543-123.118 -48.620  0.00  0.00     0.024 A 
ATOM     15  C   UNL d   1     -42.333-123.092 -48.374  0.00  0.00     0.127 A 
ATOM     16  C   UNL d   1     -42.928-122.933 -48.933  0.00  0.00     0.024 A 
ATOM     17  C   UNL d   1     -42.729-122.803 -49.722  0.00  0.00     0.005 A 
BRANCH  15  18
ATOM     18  N   UNL d   1     -42.525-123.223 -47.583  0.00  0.00    -0.114 N 
ATOM     19  O   UNL d   1     -43.060-123.812 -47.376  0.00  0.00    -0.532 OA
ATOM     20  O   UNL d   1     -42.179-122.760 -46.990  0.00  0.00    -0.532 OA
ENDBRANCH  15  18
ENDBRANCH   4  12
TORSDOF 2
ENDMDL
MODEL 3
REMARK VINA RESULT:      -4.2      1.710      2.289
REMARK  2 active torsions:
REMARK  status: ('A' for Active; 'I' for Inactive)
REMARK    1  A    between atoms: C_9  and  C_4 
REMARK    2  A    between atoms: N_6  and  C_8 
ROOT
ATOM      1  N   UNL d   1     -42.643-122.713 -50.708  0.00  0.00    -0.211 NA
ATOM      2  C   UNL d   1     -42.833-122.716 -49.905  0.00  0.00     0.140 A 
ATOM      3  C   UNL d   1     -42.327-123.080 -49.372  0.00  0.00     0.051 A 
ATOM      4  C   UNL d   1     -41.951-123.071 -50.974  0.00  0.00     0.183 A 
ATOM      5  C   UNL d   1     -41.629-123.443 -49.630  0.00  0.00     0.104 A 
ATOM      6  O   UNL d   1     -41.438-123.439 -50.441  0.00  0.00    -0.289 OA
ATOM      7  S   UNL d   1     -43.524-122.358 -49.642  0.00  0.00    -0.057 SA
ATOM      8  C   UNL d   1     -42.513-123.085 -48.569  0.00  0.00     0.004 A 
ATOM      9  C   UNL d   1     -41.123-123.806 -49.097  0.00  0.00     0.025 A 
ATOM     10  C   UNL d   1     -42.008-123.449 -48.024  0.00  0.00     0.000 A 
ATOM     11  C   UNL d   1     -41.317-123.807 -48.291  0.00  0.00     0.002 A 
ENDROOT
BRANCH   4  12
ATOM     12  C   UNL d   1     -41.768-123.063 -51.782  0.00  0.00     0.041 A 
ATOM     13  C   UNL d   1     -41.531-122.351 -52.133  0.00  0.00     0.005 A 
ATOM     14  C   UNL d   1     -41.349-122.343 -52.936  0.00  0.00     0.024 A 
ATOM     15  C   UNL d   1     -41.401-123.033 -53.389  0.00  0.00     0.127 A 
ATOM     16  C   UNL d   1     -41.641-123.742 -53.025  0.00  0.00     0.024 A 
ATOM     17  C   UNL d   1     -41.823-123.752 -52.222  0.00  0.00     0.005 A 
BRANCH  15  18
ATOM     18  N   UNL d   1     -41.217-123.016 -54.193  0.00  0.00    -0.114 N 
ATOM     19  O   UNL d   1     -41.123-122.297 -54.584  0.00  0.00    -0.532 OA
ATOM     20  O   UNL d   1     -41.126-123.723 -54.614  0.00  0.00    -0.532 OA
ENDBRANCH  15  18
ENDBRANCH   4  12
TORSDOF 2
ENDMDL
