MODEL 1
REMARK VINA RESULT:       6.1      0.000      0.000
REMARK  8 active torsions:
REMARK  status: ('A' for Active; 'I' for Inactive)
REMARK    1  A    between atoms: C_9  and  N_1 
REMARK    2  A    between atoms: C_7  and  C_2 
REMARK    3  A    between atoms: C_6  and  C_4 
REMARK    4  A    between atoms: C_8  and  C_11 
REMARK       I    between atoms: N_23  and  C_8 
REMARK    5  A    between atoms: C_26  and  N_23 
REMARK    6  A    between atoms: C_24  and  C_26 
REMARK    7  A    between atoms: C_27  and  C_24 
REMARK    8  A    between atoms: O_25  and  C_27 
ROOT
ATOM      1  N   UNL d   1     -41.854-122.020 -53.070  0.00  0.00    -0.229 N 
ATOM      2  C   UNL d   1     -41.666-121.216 -53.229  0.00  0.00     0.090 A 
ATOM      3  N   UNL d   1     -42.015-122.381 -53.779  0.00  0.00    -0.161 NA
ATOM      4  C   UNL d   1     -41.935-121.827 -54.391  0.00  0.00     0.174 A 
ATOM      5  C   UNL d   1     -41.718-121.103 -54.044  0.00  0.00     0.044 A 
ENDROOT
BRANCH   1   6
ATOM      6  C   UNL d   1     -41.872-122.376 -52.330  0.00  0.00     0.083 A 
ATOM      7  C   UNL d   1     -42.547-122.312 -51.856  0.00  0.00     0.019 A 
ATOM      8  C   UNL d   1     -42.571-122.668 -51.112  0.00  0.00     0.006 A 
ATOM      9  C   UNL d   1     -41.910-123.091 -50.842  0.00  0.00     0.058 A 
ATOM     10  C   UNL d   1     -41.232-123.154 -51.320  0.00  0.00     0.006 A 
ATOM     11  C   UNL d   1     -41.217-122.799 -52.056  0.00  0.00     0.019 A 
BRANCH   9  12
ATOM     12  C   UNL d   1     -41.930-123.452 -50.093  0.00  0.00     0.279 C 
ATOM     13  O   UNL d   1     -42.622-123.804 -49.821  0.00  0.00    -0.265 OA
ATOM     14  N   UNL d   1     -41.256-123.455 -49.622  0.00  0.00    -0.206 NA
BRANCH  14  15
ATOM     15  C   UNL d   1     -41.269-123.809 -48.880  0.00  0.00     0.104 C 
BRANCH  15  16
ATOM     16  C   UNL d   1     -41.587-123.413 -48.232  0.00  0.00     0.047 C 
BRANCH  16  17
ATOM     17  C   UNL d   1     -41.162-123.367 -47.521  0.00  0.00     0.118 C 
BRANCH  17  18
ATOM     18  O   UNL d   1     -41.512-123.011 -46.864  0.00  0.00    -0.326 OA
ATOM     19  C   UNL d   1     -42.339-123.024 -46.778  0.00  0.00     0.181 C 
ENDBRANCH  17  18
ENDBRANCH  16  17
ENDBRANCH  15  16
ENDBRANCH  14  15
ENDBRANCH   9  12
ENDBRANCH   1   6
BRANCH   2  20
ATOM     20  C   UNL d   1     -41.459-120.587 -52.735  0.00  0.00     0.047 A 
ATOM     21  S   UNL d   1     -41.125-120.389 -51.996  0.00  0.00    -0.085 SA
ATOM     22  C   UNL d   1     -41.123-119.561 -51.933  0.00  0.00     0.035 A 
ATOM     23  C   UNL d   1     -41.451-119.262 -52.624  0.00  0.00     0.007 A 
ATOM     24  C   UNL d   1     -41.657-119.888 -53.115  0.00  0.00     0.009 A 
ENDBRANCH   2  20
BRANCH   4  25
ATOM     25  C   UNL d   1     -42.048-121.964 -55.197  0.00  0.00     0.437 C 
ATOM     26  F   UNL d   1     -42.154-122.086 -55.933  0.00  0.00    -0.164 F 
ATOM     27  F   UNL d   1     -42.662-121.655 -55.718  0.00  0.00    -0.164 F 
ATOM     28  F   UNL d   1     -41.586-122.452 -55.742  0.00  0.00    -0.164 F 
ENDBRANCH   4  25
TORSDOF 8
ENDMDL
MODEL 2
REMARK VINA RESULT:       8.7      1.517      2.301
REMARK  8 active torsions:
REMARK  status: ('A' for Active; 'I' for Inactive)
REMARK    1  A    between atoms: C_9  and  N_1 
REMARK    2  A    between atoms: C_7  and  C_2 
REMARK    3  A    between atoms: C_6  and  C_4 
REMARK    4  A    between atoms: C_8  and  C_11 
REMARK       I    between atoms: N_23  and  C_8 
REMARK    5  A    between atoms: C_26  and  N_23 
REMARK    6  A    between atoms: C_24  and  C_26 
REMARK    7  A    between atoms: C_27  and  C_24 
REMARK    8  A    between atoms: O_25  and  C_27 
ROOT
ATOM      1  N   UNL d   1     -41.868-121.509 -53.093  0.00  0.00    -0.229 N 
ATOM      2  C   UNL d   1     -41.805-121.803 -53.878  0.00  0.00     0.090 A 
ATOM      3  N   UNL d   1     -41.940-120.702 -53.135  0.00  0.00    -0.161 NA
ATOM      4  C   UNL d   1     -41.924-120.468 -53.931  0.00  0.00     0.174 A 
ATOM      5  C   UNL d   1     -41.840-121.158 -54.390  0.00  0.00     0.044 A 
ENDROOT
BRANCH   1   6
ATOM      6  C   UNL d   1     -41.859-121.959 -52.405  0.00  0.00     0.083 A 
ATOM      7  C   UNL d   1     -41.140-122.214 -52.088  0.00  0.00     0.019 A 
ATOM      8  C   UNL d   1     -41.123-122.666 -51.398  0.00  0.00     0.006 A 
ATOM      9  C   UNL d   1     -41.838-122.862 -51.023  0.00  0.00     0.058 A 
ATOM     10  C   UNL d   1     -42.561-122.604 -51.344  0.00  0.00     0.006 A 
ATOM     11  C   UNL d   1     -42.567-122.157 -52.028  0.00  0.00     0.019 A 
BRANCH   9  12
ATOM     12  C   UNL d   1     -41.827-123.317 -50.327  0.00  0.00     0.279 C 
ATOM     13  O   UNL d   1     -41.192-123.816 -50.169  0.00  0.00    -0.265 OA
ATOM     14  N   UNL d   1     -42.452-123.268 -49.796  0.00  0.00    -0.206 NA
BRANCH  14  15
ATOM     15  C   UNL d   1     -42.447-123.716 -49.106  0.00  0.00     0.104 C 
BRANCH  15  16
ATOM     16  C   UNL d   1     -43.104-123.728 -48.609  0.00  0.00     0.047 C 
BRANCH  16  17
ATOM     17  C   UNL d   1     -43.084-123.333 -47.881  0.00  0.00     0.118 C 
BRANCH  17  18
ATOM     18  O   UNL d   1     -42.898-123.758 -47.197  0.00  0.00    -0.326 OA
ATOM     19  C   UNL d   1     -42.317-123.470 -46.676  0.00  0.00     0.181 C 
ENDBRANCH  17  18
ENDBRANCH  16  17
ENDBRANCH  15  16
ENDBRANCH  14  15
ENDBRANCH   9  12
ENDBRANCH   1   6
BRANCH   2  20
ATOM     20  C   UNL d   1     -41.722-122.568 -54.178  0.00  0.00     0.047 A 
ATOM     21  S   UNL d   1     -41.292-123.280 -54.106  0.00  0.00    -0.085 SA
ATOM     22  C   UNL d   1     -41.588-123.812 -54.670  0.00  0.00     0.035 A 
ATOM     23  C   UNL d   1     -42.188-123.428 -55.078  0.00  0.00     0.007 A 
ATOM     24  C   UNL d   1     -42.272-122.667 -54.779  0.00  0.00     0.009 A 
ENDBRANCH   2  20
BRANCH   4  25
ATOM     25  C   UNL d   1     -41.981-119.698 -54.220  0.00  0.00     0.437 C 
ATOM     26  F   UNL d   1     -42.035-118.995 -54.487  0.00  0.00    -0.164 F 
ATOM     27  F   UNL d   1     -42.357-119.417 -54.943  0.00  0.00    -0.164 F 
ATOM     28  F   UNL d   1     -41.681-118.960 -53.881  0.00  0.00    -0.164 F 
ENDBRANCH   4  25
TORSDOF 8
ENDMDL
MODEL 3
REMARK VINA RESULT:       8.9      3.195      5.228
REMARK  8 active torsions:
REMARK  status: ('A' for Active; 'I' for Inactive)
REMARK    1  A    between atoms: C_9  and  N_1 
REMARK    2  A    between atoms: C_7  and  C_2 
REMARK    3  A    between atoms: C_6  and  C_4 
REMARK    4  A    between atoms: C_8  and  C_11 
REMARK       I    between atoms: N_23  and  C_8 
REMARK    5  A    between atoms: C_26  and  N_23 
REMARK    6  A    between atoms: C_24  and  C_26 
REMARK    7  A    between atoms: C_27  and  C_24 
REMARK    8  A    between atoms: O_25  and  C_27 
ROOT
ATOM      1  N   UNL d   1     -42.087-122.712 -50.877  0.00  0.00    -0.229 N 
ATOM      2  C   UNL d   1     -41.945-122.016 -50.428  0.00  0.00     0.090 A 
ATOM      3  N   UNL d   1     -42.405-123.268 -50.380  0.00  0.00    -0.161 NA
ATOM      4  C   UNL d   1     -42.471-122.947 -49.618  0.00  0.00     0.174 A 
ATOM      5  C   UNL d   1     -42.184-122.166 -49.653  0.00  0.00     0.044 A 
ENDROOT
BRANCH   1   6
ATOM      6  C   UNL d   1     -41.931-122.811 -51.679  0.00  0.00     0.083 A 
ATOM      7  C   UNL d   1     -41.351-123.347 -51.923  0.00  0.00     0.019 A 
ATOM      8  C   UNL d   1     -41.189-123.452 -52.725  0.00  0.00     0.006 A 
ATOM      9  C   UNL d   1     -41.616-123.013 -53.287  0.00  0.00     0.058 A 
ATOM     10  C   UNL d   1     -42.199-122.474 -53.038  0.00  0.00     0.006 A 
ATOM     11  C   UNL d   1     -42.352-122.378 -52.241  0.00  0.00     0.019 A 
BRANCH   9  12
ATOM     12  C   UNL d   1     -41.457-123.115 -54.097  0.00  0.00     0.279 C 
ATOM     13  O   UNL d   1     -41.127-123.817 -54.369  0.00  0.00    -0.265 OA
ATOM     14  N   UNL d   1     -41.631-122.512 -54.627  0.00  0.00    -0.206 NA
BRANCH  14  15
ATOM     15  C   UNL d   1     -41.477-122.606 -55.429  0.00  0.00     0.104 C 
BRANCH  15  16
ATOM     16  C   UNL d   1     -42.036-122.385 -55.993  0.00  0.00     0.047 C 
BRANCH  16  17
ATOM     17  C   UNL d   1     -42.382-121.632 -55.964  0.00  0.00     0.118 C 
BRANCH  17  18
ATOM     18  O   UNL d   1     -43.101-121.504 -56.351  0.00  0.00    -0.326 OA
ATOM     19  C   UNL d   1     -43.764-121.967 -56.156  0.00  0.00     0.181 C 
ENDBRANCH  17  18
ENDBRANCH  16  17
ENDBRANCH  15  16
ENDBRANCH  14  15
ENDBRANCH   9  12
ENDBRANCH   1   6
BRANCH   2  20
ATOM     20  C   UNL d   1     -41.633-121.279 -50.631  0.00  0.00     0.047 A 
ATOM     21  S   UNL d   1     -41.387-120.801 -51.269  0.00  0.00    -0.085 SA
ATOM     22  C   UNL d   1     -41.124-120.078 -50.957  0.00  0.00     0.035 A 
ATOM     23  C   UNL d   1     -41.209-120.118 -50.141  0.00  0.00     0.007 A 
ATOM     24  C   UNL d   1     -41.520-120.851 -49.940  0.00  0.00     0.009 A 
ENDBRANCH   2  20
BRANCH   4  25
ATOM     25  C   UNL d   1     -42.767-123.325 -48.947  0.00  0.00     0.437 C 
ATOM     26  F   UNL d   1     -43.034-123.669 -48.332  0.00  0.00    -0.164 F 
ATOM     27  F   UNL d   1     -42.380-123.465 -48.190  0.00  0.00    -0.164 F 
ATOM     28  F   UNL d   1     -43.544-123.683 -48.816  0.00  0.00    -0.164 F 
ENDBRANCH   4  25
TORSDOF 8
ENDMDL
