MODEL 1
REMARK VINA RESULT:      -2.8      0.000      0.000
REMARK  3 active torsions:
REMARK  status: ('A' for Active; 'I' for Inactive)
REMARK    1  A    between atoms: C_7  and  C_1 
REMARK    2  A    between atoms: C_6  and  C_3 
REMARK    3  A    between atoms: O_15  and  C_7 
ROOT
ATOM      1  C   UNL d   1      32.122  17.410 -23.804  0.00  0.00     0.167 A 
ATOM      2  C   UNL d   1      31.374  17.243 -23.491  0.00  0.00     0.047 A 
ATOM      3  C   UNL d   1      30.999  16.713 -24.000  0.00  0.00     0.105 A 
ATOM      4  N   UNL d   1      31.514  16.551 -24.629  0.00  0.00    -0.148 NA
ATOM      5  N   UNL d   1      32.204  16.985 -24.501  0.00  0.00    -0.143 NA
ENDROOT
BRANCH   3   6
ATOM      6  C   UNL d   1      30.239  16.397 -23.901  0.00  0.00     0.030 A 
ATOM      7  C   UNL d   1      29.604  16.713 -24.323  0.00  0.00     0.060 A 
ATOM      8  C   UNL d   1      28.848  16.403 -24.228  0.00  0.00     0.023 A 
ATOM      9 CL   UNL d   1      29.732  17.344 -24.841  0.00  0.00    -0.082 Cl
ATOM     10  C   UNL d   1      28.724  15.767 -23.703  0.00  0.00     0.059 A 
ATOM     11  C   UNL d   1      29.367  15.456 -23.283  0.00  0.00     0.011 A 
ATOM     12 CL   UNL d   1      27.969  15.457 -23.608  0.00  0.00    -0.082 Cl
ATOM     13  C   UNL d   1      30.122  15.770 -23.383  0.00  0.00     0.003 A 
ENDBRANCH   3   6
BRANCH   1  14
ATOM     14  C   UNL d   1      32.682  17.915 -23.472  0.00  0.00     0.316 C 
ATOM     15  O   UNL d   1      33.226  17.617 -22.928  0.00  0.00    -0.257 OA
BRANCH  14  16
ATOM     16  O   UNL d   1      32.698  18.714 -23.680  0.00  0.00    -0.294 OA
ATOM     17  C   UNL d   1      33.239  19.225 -23.332  0.00  0.00     0.185 C 
ENDBRANCH  14  16
ENDBRANCH   1  14
TORSDOF 3
ENDMDL
MODEL 2
REMARK VINA RESULT:      -2.3      2.341      3.934
REMARK  3 active torsions:
REMARK  status: ('A' for Active; 'I' for Inactive)
REMARK    1  A    between atoms: C_7  and  C_1 
REMARK    2  A    between atoms: C_6  and  C_3 
REMARK    3  A    between atoms: O_15  and  C_7 
ROOT
ATOM      1  C   UNL d   1      29.190  16.209 -24.058  0.00  0.00     0.167 A 
ATOM      2  C   UNL d   1      29.753  16.794 -23.895  0.00  0.00     0.047 A 
ATOM      3  C   UNL d   1      30.436  16.614 -24.321  0.00  0.00     0.105 A 
ATOM      4  N   UNL d   1      30.297  15.917 -24.748  0.00  0.00    -0.148 NA
ATOM      5  N   UNL d   1      29.528  15.674 -24.580  0.00  0.00    -0.143 NA
ENDROOT
BRANCH   3   6
ATOM      6  C   UNL d   1      31.139  17.053 -24.322  0.00  0.00     0.030 A 
ATOM      7  C   UNL d   1      31.754  16.846 -23.811  0.00  0.00     0.060 A 
ATOM      8  C   UNL d   1      32.453  17.278 -23.809  0.00  0.00     0.023 A 
ATOM      9 CL   UNL d   1      31.662  16.201 -23.303  0.00  0.00    -0.082 Cl
ATOM     10  C   UNL d   1      32.541  17.928 -24.324  0.00  0.00     0.059 A 
ATOM     11  C   UNL d   1      31.919  18.129 -24.833  0.00  0.00     0.011 A 
ATOM     12 CL   UNL d   1      33.240  18.360 -24.321  0.00  0.00    -0.082 Cl
ATOM     13  C   UNL d   1      31.220  17.692 -24.831  0.00  0.00     0.003 A 
ENDBRANCH   3   6
BRANCH   1  14
ATOM     14  C   UNL d   1      28.427  16.174 -23.748  0.00  0.00     0.316 C 
ATOM     15  O   UNL d   1      28.094  16.848 -23.409  0.00  0.00    -0.257 OA
BRANCH  14  16
ATOM     16  O   UNL d   1      27.998  15.469 -23.776  0.00  0.00    -0.294 OA
ATOM     17  C   UNL d   1      27.207  15.453 -23.556  0.00  0.00     0.185 C 
ENDBRANCH  14  16
ENDBRANCH   1  14
TORSDOF 3
ENDMDL
MODEL 3
REMARK VINA RESULT:      -2.2      5.018      6.160
REMARK  3 active torsions:
REMARK  status: ('A' for Active; 'I' for Inactive)
REMARK    1  A    between atoms: C_7  and  C_1 
REMARK    2  A    between atoms: C_6  and  C_3 
REMARK    3  A    between atoms: O_15  and  C_7 
ROOT
ATOM      1  C   UNL d   1      32.702  22.398 -20.065  0.00  0.00     0.167 A 
ATOM      2  C   UNL d   1      33.116  21.914 -20.594  0.00  0.00     0.047 A 
ATOM      3  C   UNL d   1      32.562  21.490 -21.035  0.00  0.00     0.105 A 
ATOM      4  N   UNL d   1      31.805  21.712 -20.780  0.00  0.00    -0.148 NA
ATOM      5  N   UNL d   1      31.900  22.271 -20.182  0.00  0.00    -0.143 NA
ENDROOT
BRANCH   3   6
ATOM      6  C   UNL d   1      32.732  20.940 -21.631  0.00  0.00     0.030 A 
ATOM      7  C   UNL d   1      32.843  21.195 -22.408  0.00  0.00     0.060 A 
ATOM      8  C   UNL d   1      33.012  20.653 -23.002  0.00  0.00     0.023 A 
ATOM      9 CL   UNL d   1      32.783  22.000 -22.585  0.00  0.00    -0.082 Cl
ATOM     10  C   UNL d   1      33.072  19.842 -22.819  0.00  0.00     0.059 A 
ATOM     11  C   UNL d   1      32.959  19.594 -22.036  0.00  0.00     0.011 A 
ATOM     12 CL   UNL d   1      33.241  19.300 -23.413  0.00  0.00    -0.082 Cl
ATOM     13  C   UNL d   1      32.790  20.142 -21.445  0.00  0.00     0.003 A 
ENDBRANCH   3   6
BRANCH   1  14
ATOM     14  C   UNL d   1      33.040  22.914 -19.518  0.00  0.00     0.316 C 
ATOM     15  O   UNL d   1      33.198  23.693 -19.738  0.00  0.00    -0.257 OA
BRANCH  14  16
ATOM     16  O   UNL d   1      33.220  22.654 -18.756  0.00  0.00    -0.294 OA
ATOM     17  C   UNL d   1      33.195  23.174 -18.120  0.00  0.00     0.185 C 
ENDBRANCH  14  16
ENDBRANCH   1  14
TORSDOF 3
ENDMDL
MODEL 4
REMARK VINA RESULT:      -2.1      3.724      4.482
REMARK  3 active torsions:
REMARK  status: ('A' for Active; 'I' for Inactive)
REMARK    1  A    between atoms: C_7  and  C_1 
REMARK    2  A    between atoms: C_6  and  C_3 
REMARK    3  A    between atoms: O_15  and  C_7 
ROOT
ATOM      1  C   UNL d   1      32.814  20.945 -21.650  0.00  0.00     0.167 A 
ATOM      2  C   UNL d   1      32.773  20.128 -21.776  0.00  0.00     0.047 A 
ATOM      3  C   UNL d   1      33.036  19.976 -22.543  0.00  0.00     0.105 A 
ATOM      4  N   UNL d   1      33.240  20.699 -22.893  0.00  0.00    -0.148 NA
ATOM      5  N   UNL d   1      33.100  21.291 -22.337  0.00  0.00    -0.143 NA
ENDROOT
BRANCH   3   6
ATOM      6  C   UNL d   1      33.088  19.230 -22.901  0.00  0.00     0.030 A 
ATOM      7  C   UNL d   1      33.053  19.166 -23.724  0.00  0.00     0.060 A 
ATOM      8  C   UNL d   1      33.104  18.429 -24.084  0.00  0.00     0.023 A 
ATOM      9 CL   UNL d   1      32.967  19.848 -24.183  0.00  0.00    -0.082 Cl
ATOM     10  C   UNL d   1      33.190  17.744 -23.616  0.00  0.00     0.059 A 
ATOM     11  C   UNL d   1      33.224  17.817 -22.791  0.00  0.00     0.011 A 
ATOM     12 CL   UNL d   1      33.241  17.007 -23.976  0.00  0.00    -0.082 Cl
ATOM     13  C   UNL d   1      33.173  18.559 -22.436  0.00  0.00     0.003 A 
ENDBRANCH   3   6
BRANCH   1  14
ATOM     14  C   UNL d   1      32.603  21.338 -20.957  0.00  0.00     0.316 C 
ATOM     15  O   UNL d   1      31.824  21.299 -20.688  0.00  0.00    -0.257 OA
BRANCH  14  16
ATOM     16  O   UNL d   1      33.167  21.768 -20.534  0.00  0.00    -0.294 OA
ATOM     17  C   UNL d   1      32.979  22.100 -19.806  0.00  0.00     0.185 C 
ENDBRANCH  14  16
ENDBRANCH   1  14
TORSDOF 3
ENDMDL
MODEL 5
REMARK VINA RESULT:      -1.7      6.791      7.874
REMARK  3 active torsions:
REMARK  status: ('A' for Active; 'I' for Inactive)
REMARK    1  A    between atoms: C_7  and  C_1 
REMARK    2  A    between atoms: C_6  and  C_3 
REMARK    3  A    between atoms: O_15  and  C_7 
ROOT
ATOM      1  C   UNL d   1      32.847  23.023 -18.793  0.00  0.00     0.167 A 
ATOM      2  C   UNL d   1      32.771  23.343 -19.552  0.00  0.00     0.047 A 
ATOM      3  C   UNL d   1      33.014  22.770 -20.094  0.00  0.00     0.105 A 
ATOM      4  N   UNL d   1      33.240  22.094 -19.671  0.00  0.00    -0.148 NA
ATOM      5  N   UNL d   1      33.134  22.258 -18.870  0.00  0.00    -0.143 NA
ENDROOT
BRANCH   3   6
ATOM      6  C   UNL d   1      33.029  22.855 -20.919  0.00  0.00     0.030 A 
ATOM      7  C   UNL d   1      32.950  22.190 -21.402  0.00  0.00     0.060 A 
ATOM      8  C   UNL d   1      32.964  22.269 -22.220  0.00  0.00     0.023 A 
ATOM      9 CL   UNL d   1      32.856  21.445 -21.058  0.00  0.00    -0.082 Cl
ATOM     10  C   UNL d   1      33.059  23.023 -22.562  0.00  0.00     0.059 A 
ATOM     11  C   UNL d   1      33.138  23.685 -22.070  0.00  0.00     0.011 A 
ATOM     12 CL   UNL d   1      33.073  23.102 -23.380  0.00  0.00    -0.082 Cl
ATOM     13  C   UNL d   1      33.123  23.600 -21.251  0.00  0.00     0.003 A 
ENDBRANCH   3   6
BRANCH   1  14
ATOM     14  C   UNL d   1      32.665  23.407 -18.087  0.00  0.00     0.316 C 
ATOM     15  O   UNL d   1      31.904  23.701 -17.968  0.00  0.00    -0.257 OA
BRANCH  14  16
ATOM     16  O   UNL d   1      33.240  23.497 -17.502  0.00  0.00    -0.294 OA
ATOM     17  C   UNL d   1      33.026  23.689 -16.732  0.00  0.00     0.185 C 
ENDBRANCH  14  16
ENDBRANCH   1  14
TORSDOF 3
ENDMDL
MODEL 6
REMARK VINA RESULT:      -1.6      2.663      4.584
REMARK  3 active torsions:
REMARK  status: ('A' for Active; 'I' for Inactive)
REMARK    1  A    between atoms: C_7  and  C_1 
REMARK    2  A    between atoms: C_6  and  C_3 
REMARK    3  A    between atoms: O_15  and  C_7 
ROOT
ATOM      1  C   UNL d   1      32.655  17.961 -23.689  0.00  0.00     0.167 A 
ATOM      2  C   UNL d   1      32.615  18.398 -22.987  0.00  0.00     0.047 A 
ATOM      3  C   UNL d   1      32.945  19.140 -23.131  0.00  0.00     0.105 A 
ATOM      4  N   UNL d   1      33.191  19.164 -23.923  0.00  0.00    -0.148 NA
ATOM      5  N   UNL d   1      33.009  18.434 -24.259  0.00  0.00    -0.143 NA
ENDROOT
BRANCH   3   6
ATOM      6  C   UNL d   1      33.019  19.755 -22.580  0.00  0.00     0.030 A 
ATOM      7  C   UNL d   1      33.163  20.525 -22.841  0.00  0.00     0.060 A 
ATOM      8  C   UNL d   1      33.237  21.139 -22.300  0.00  0.00     0.023 A 
ATOM      9 CL   UNL d   1      33.231  20.676 -23.651  0.00  0.00    -0.082 Cl
ATOM     10  C   UNL d   1      33.167  20.982 -21.483  0.00  0.00     0.059 A 
ATOM     11  C   UNL d   1      33.023  20.206 -21.230  0.00  0.00     0.011 A 
ATOM     12 CL   UNL d   1      33.241  21.596 -20.941  0.00  0.00    -0.082 Cl
ATOM     13  C   UNL d   1      32.949  19.596 -21.778  0.00  0.00     0.003 A 
ENDBRANCH   3   6
BRANCH   1  14
ATOM     14  C   UNL d   1      32.387  17.189 -23.793  0.00  0.00     0.316 C 
ATOM     15  O   UNL d   1      32.924  16.595 -23.995  0.00  0.00    -0.257 OA
BRANCH  14  16
ATOM     16  O   UNL d   1      31.587  17.009 -23.695  0.00  0.00    -0.294 OA
ATOM     17  C   UNL d   1      31.292  16.278 -23.928  0.00  0.00     0.185 C 
ENDBRANCH  14  16
ENDBRANCH   1  14
TORSDOF 3
ENDMDL
MODEL 7
REMARK VINA RESULT:      -1.1      6.608      8.046
REMARK  3 active torsions:
REMARK  status: ('A' for Active; 'I' for Inactive)
REMARK    1  A    between atoms: C_7  and  C_1 
REMARK    2  A    between atoms: C_6  and  C_3 
REMARK    3  A    between atoms: O_15  and  C_7 
ROOT
ATOM      1  C   UNL d   1      32.193  22.898 -21.046  0.00  0.00     0.167 A 
ATOM      2  C   UNL d   1      32.661  23.069 -20.385  0.00  0.00     0.047 A 
ATOM      3  C   UNL d   1      32.221  22.888 -19.710  0.00  0.00     0.105 A 
ATOM      4  N   UNL d   1      31.481  22.604 -19.953  0.00  0.00    -0.148 NA
ATOM      5  N   UNL d   1      31.472  22.613 -20.777  0.00  0.00    -0.143 NA
ENDROOT
BRANCH   3   6
ATOM      6  C   UNL d   1      32.476  22.974 -18.926  0.00  0.00     0.030 A 
ATOM      7  C   UNL d   1      32.986  22.416 -18.595  0.00  0.00     0.060 A 
ATOM      8  C   UNL d   1      33.241  22.497 -17.818  0.00  0.00     0.023 A 
ATOM      9 CL   UNL d   1      33.240  21.775 -19.051  0.00  0.00    -0.082 Cl
ATOM     10  C   UNL d   1      32.982  23.146 -17.363  0.00  0.00     0.059 A 
ATOM     11  C   UNL d   1      32.470  23.702 -17.702  0.00  0.00     0.011 A 
ATOM     12 CL   UNL d   1      33.237  23.228 -16.585  0.00  0.00    -0.082 Cl
ATOM     13  C   UNL d   1      32.218  23.615 -18.482  0.00  0.00     0.003 A 
ENDBRANCH   3   6
BRANCH   1  14
ATOM     14  C   UNL d   1      32.416  22.996 -21.833  0.00  0.00     0.316 C 
ATOM     15  O   UNL d   1      32.138  23.648 -22.256  0.00  0.00    -0.257 OA
BRANCH  14  16
ATOM     16  O   UNL d   1      32.914  22.447 -22.197  0.00  0.00    -0.294 OA
ATOM     17  C   UNL d   1      33.005  22.443 -23.014  0.00  0.00     0.185 C 
ENDBRANCH  14  16
ENDBRANCH   1  14
TORSDOF 3
ENDMDL
MODEL 8
REMARK VINA RESULT:       0.2      4.849      6.846
REMARK  3 active torsions:
REMARK  status: ('A' for Active; 'I' for Inactive)
REMARK    1  A    between atoms: C_7  and  C_1 
REMARK    2  A    between atoms: C_6  and  C_3 
REMARK    3  A    between atoms: O_15  and  C_7 
ROOT
ATOM      1  C   UNL d   1      33.029  21.487 -22.488  0.00  0.00     0.167 A 
ATOM      2  C   UNL d   1      33.044  21.543 -21.662  0.00  0.00     0.047 A 
ATOM      3  C   UNL d   1      32.903  22.330 -21.459  0.00  0.00     0.105 A 
ATOM      4  N   UNL d   1      32.801  22.763 -22.160  0.00  0.00    -0.148 NA
ATOM      5  N   UNL d   1      32.880  22.235 -22.788  0.00  0.00    -0.143 NA
ENDROOT
BRANCH   3   6
ATOM      6  C   UNL d   1      32.870  22.637 -20.690  0.00  0.00     0.030 A 
ATOM      7  C   UNL d   1      32.562  22.177 -20.077  0.00  0.00     0.060 A 
ATOM      8  C   UNL d   1      32.527  22.476 -19.312  0.00  0.00     0.023 A 
ATOM      9 CL   UNL d   1      32.290  21.413 -20.237  0.00  0.00    -0.082 Cl
ATOM     10  C   UNL d   1      32.803  23.248 -19.156  0.00  0.00     0.059 A 
ATOM     11  C   UNL d   1      33.110  23.702 -19.777  0.00  0.00     0.011 A 
ATOM     12 CL   UNL d   1      32.767  23.547 -18.391  0.00  0.00    -0.082 Cl
ATOM     13  C   UNL d   1      33.143  23.397 -20.541  0.00  0.00     0.003 A 
ENDBRANCH   3   6
BRANCH   1  14
ATOM     14  C   UNL d   1      33.144  20.798 -22.926  0.00  0.00     0.316 C 
ATOM     15  O   UNL d   1      33.161  20.838 -23.750  0.00  0.00    -0.257 OA
BRANCH  14  16
ATOM     16  O   UNL d   1      33.241  20.072 -22.544  0.00  0.00    -0.294 OA
ATOM     17  C   UNL d   1      32.967  19.379 -22.890  0.00  0.00     0.185 C 
ENDBRANCH  14  16
ENDBRANCH   1  14
TORSDOF 3
ENDMDL
