MODEL 1
REMARK VINA RESULT:      27.0      0.000      0.000
REMARK  4 active torsions:
REMARK  status: ('A' for Active; 'I' for Inactive)
REMARK    1  A    between atoms: C_2  and  C_1 
REMARK    2  A    between atoms: C_11  and  N_5 
REMARK    3  A    between atoms: C_14  and  C_11 
REMARK    4  A    between atoms: C_17  and  C_14 
ROOT
ATOM      1  C   UNL d   1      13.888  12.529  -1.848  0.00  0.00     0.112 A 
ATOM      2  C   UNL d   1      14.546  12.912  -1.552  0.00  0.00     0.176 A 
ATOM      3  N   UNL d   1      14.535  12.832  -0.724  0.00  0.00    -0.285 N 
ATOM      4  C   UNL d   1      13.468  12.212  -1.217  0.00  0.00     0.219 A 
ATOM      5  C   UNL d   1      13.873  12.404  -0.528  0.00  0.00     0.124 A 
ATOM      6  O   UNL d   1      12.769  11.780  -1.256  0.00  0.00    -0.285 OA
ATOM      7  N   UNL d   1      15.129  13.314  -1.995  0.00  0.00    -0.128 N 
ENDROOT
BRANCH   1   8
ATOM      8  C   UNL d   1      13.709  12.488  -2.657  0.00  0.00     0.169 A 
ATOM      9  N   UNL d   1      13.657  11.853  -3.176  0.00  0.00    -0.225 NA
ATOM     10  C   UNL d   1      13.458  12.149  -3.919  0.00  0.00     0.101 A 
ATOM     11  C   UNL d   1      13.332  11.780  -4.643  0.00  0.00     0.021 A 
ATOM     12  C   UNL d   1      13.387  12.970  -3.854  0.00  0.00     0.101 A 
ATOM     13  C   UNL d   1      13.134  12.230  -5.308  0.00  0.00     0.002 A 
ATOM     14  C   UNL d   1      13.063  13.051  -5.244  0.00  0.00     0.002 A 
ATOM     15  C   UNL d   1      13.190  13.420  -4.515  0.00  0.00     0.021 A 
ATOM     16  N   UNL d   1      13.543  13.174  -3.073  0.00  0.00    -0.225 NA
ENDBRANCH   1   8
BRANCH   3  17
ATOM     17  C   UNL d   1      15.094  13.135  -0.197  0.00  0.00     0.082 C 
BRANCH  17  18
ATOM     18  C   UNL d   1      15.806  13.441  -0.479  0.00  0.00     0.019 C 
BRANCH  18  19
ATOM     19  C   UNL d   1      16.064  14.183  -0.235  0.00  0.00     0.002 C 
ATOM     20  C   UNL d   1      16.871  14.354  -0.202  0.00  0.00     0.000 C 
ATOM     21  C   UNL d   1      15.513  14.761  -0.020  0.00  0.00     0.000 C 
ENDBRANCH  18  19
ENDBRANCH  17  18
ENDBRANCH   3  17
TORSDOF 4
ENDMDL
MODEL 2
REMARK VINA RESULT:      29.9      1.476      4.080
REMARK  4 active torsions:
REMARK  status: ('A' for Active; 'I' for Inactive)
REMARK    1  A    between atoms: C_2  and  C_1 
REMARK    2  A    between atoms: C_11  and  N_5 
REMARK    3  A    between atoms: C_14  and  C_11 
REMARK    4  A    between atoms: C_17  and  C_14 
ROOT
ATOM      1  C   UNL d   1      13.521  13.028  -3.268  0.00  0.00     0.112 A 
ATOM      2  C   UNL d   1      13.533  13.818  -3.473  0.00  0.00     0.176 A 
ATOM      3  N   UNL d   1      13.278  13.881  -4.263  0.00  0.00    -0.285 N 
ATOM      4  C   UNL d   1      13.262  12.597  -3.919  0.00  0.00     0.219 A 
ATOM      5  C   UNL d   1      13.115  13.130  -4.528  0.00  0.00     0.124 A 
ATOM      6  O   UNL d   1      13.165  11.782  -3.964  0.00  0.00    -0.285 OA
ATOM      7  N   UNL d   1      13.760  14.456  -2.984  0.00  0.00    -0.128 N 
ENDROOT
BRANCH   1   8
ATOM      8  C   UNL d   1      13.740  12.747  -2.519  0.00  0.00     0.169 A 
ATOM      9  N   UNL d   1      13.318  12.343  -1.941  0.00  0.00    -0.225 NA
ATOM     10  C   UNL d   1      13.827  12.207  -1.307  0.00  0.00     0.101 A 
ATOM     11  C   UNL d   1      13.717  11.833  -0.583  0.00  0.00     0.021 A 
ATOM     12  C   UNL d   1      14.563  12.529  -1.498  0.00  0.00     0.101 A 
ATOM     13  C   UNL d   1      14.342  11.779  -0.045  0.00  0.00     0.002 A 
ATOM     14  C   UNL d   1      15.078  12.101  -0.236  0.00  0.00     0.002 A 
ATOM     15  C   UNL d   1      15.188  12.477  -0.965  0.00  0.00     0.021 A 
ATOM     16  N   UNL d   1      14.504  12.862  -2.249  0.00  0.00    -0.225 NA
ENDBRANCH   1   8
BRANCH   3  17
ATOM     17  C   UNL d   1      13.205  14.578  -4.699  0.00  0.00     0.082 C 
BRANCH  17  18
ATOM     18  C   UNL d   1      13.801  14.805  -5.222  0.00  0.00     0.019 C 
BRANCH  18  19
ATOM     19  C   UNL d   1      13.710  15.475  -5.690  0.00  0.00     0.002 C 
ATOM     20  C   UNL d   1      13.028  15.936  -5.631  0.00  0.00     0.000 C 
ATOM     21  C   UNL d   1      14.306  15.689  -6.223  0.00  0.00     0.000 C 
ENDBRANCH  18  19
ENDBRANCH  17  18
ENDBRANCH   3  17
TORSDOF 4
ENDMDL
