MODEL 1
REMARK VINA RESULT:      14.9      0.000      0.000
REMARK  3 active torsions:
REMARK  status: ('A' for Active; 'I' for Inactive)
REMARK    1  A    between atoms: C_6  and  C_1 
REMARK    2  A    between atoms: C_7  and  C_6 
REMARK    3  A    between atoms: O_17  and  C_15 
ROOT
ATOM      1  C   UNL d   1      45.731 -16.031  44.788  0.00  0.00     0.141 A 
ATOM      2  C   UNL d   1      45.111 -14.863  44.610  0.00  0.00     0.064 A 
ATOM      3  C   UNL d   1      44.997 -15.656  44.792  0.00  0.00     0.220 A 
ATOM      4  C   UNL d   1      45.919 -14.741  44.491  0.00  0.00     0.105 A 
ATOM      5  O   UNL d   1      46.309 -15.467  44.601  0.00  0.00    -0.304 OA
ATOM      6  C   UNL d   1      46.196 -13.995  44.300  0.00  0.00     0.049 A 
ATOM      7  C   UNL d   1      44.582 -14.234  44.536  0.00  0.00     0.007 A 
ATOM      8  O   UNL d   1      44.269 -16.023  44.954  0.00  0.00    -0.284 OA
ATOM      9  C   UNL d   1      45.669 -13.365  44.226  0.00  0.00     0.096 A 
ATOM     10  C   UNL d   1      44.864 -13.487  44.345  0.00  0.00     0.024 A 
ENDROOT
BRANCH   1  11
ATOM     11  C   UNL d   1      45.874 -16.829  44.942  0.00  0.00     0.053 C 
BRANCH  11  12
ATOM     12  C   UNL d   1      46.078 -17.348  44.328  0.00  0.00     0.102 A 
ATOM     13  O   UNL d   1      46.025 -17.197  43.520  0.00  0.00    -0.305 OA
ATOM     14  C   UNL d   1      46.284 -17.867  43.114  0.00  0.00     0.123 A 
ATOM     15  C   UNL d   1      46.502 -18.441  43.670  0.00  0.00     0.029 A 
ATOM     16  C   UNL d   1      46.375 -18.123  44.424  0.00  0.00     0.027 A 
ENDBRANCH  11  12
ENDBRANCH   1  11
BRANCH   9  17
ATOM     17  O   UNL d   1      45.949 -12.614  44.034  0.00  0.00    -0.328 OA
ATOM     18  C   UNL d   1      45.503 -12.118  43.552  0.00  0.00     0.181 C 
ENDBRANCH   9  17
TORSDOF 3
ENDMDL
MODEL 2
REMARK VINA RESULT:      16.2      1.199      2.002
REMARK  3 active torsions:
REMARK  status: ('A' for Active; 'I' for Inactive)
REMARK    1  A    between atoms: C_6  and  C_1 
REMARK    2  A    between atoms: C_7  and  C_6 
REMARK    3  A    between atoms: O_17  and  C_15 
ROOT
ATOM      1  C   UNL d   1      45.376 -14.489  44.482  0.00  0.00     0.141 A 
ATOM      2  C   UNL d   1      45.538 -13.287  43.925  0.00  0.00     0.064 A 
ATOM      3  C   UNL d   1      45.846 -13.811  44.478  0.00  0.00     0.220 A 
ATOM      4  C   UNL d   1      44.873 -13.638  43.582  0.00  0.00     0.105 A 
ATOM      5  O   UNL d   1      44.769 -14.387  43.926  0.00  0.00    -0.304 OA
ATOM      6  C   UNL d   1      44.451 -13.237  43.006  0.00  0.00     0.049 A 
ATOM      7  C   UNL d   1      45.777 -12.533  43.689  0.00  0.00     0.007 A 
ATOM      8  O   UNL d   1      46.514 -13.686  44.954  0.00  0.00    -0.284 OA
ATOM      9  C   UNL d   1      44.690 -12.484  42.769  0.00  0.00     0.096 A 
ATOM     10  C   UNL d   1      45.351 -12.135  43.111  0.00  0.00     0.024 A 
ENDROOT
BRANCH   1  11
ATOM     11  C   UNL d   1      45.484 -15.157  44.955  0.00  0.00     0.053 C 
BRANCH  11  12
ATOM     12  C   UNL d   1      45.690 -15.885  44.615  0.00  0.00     0.102 A 
ATOM     13  O   UNL d   1      46.113 -16.000  43.917  0.00  0.00    -0.305 OA
ATOM     14  C   UNL d   1      46.189 -16.812  43.791  0.00  0.00     0.123 A 
ATOM     15  C   UNL d   1      45.812 -17.209  44.414  0.00  0.00     0.029 A 
ATOM     16  C   UNL d   1      45.502 -16.637  44.926  0.00  0.00     0.027 A 
ENDBRANCH  11  12
ENDBRANCH   1  11
BRANCH   9  17
ATOM     17  O   UNL d   1      44.264 -12.081  42.189  0.00  0.00    -0.328 OA
ATOM     18  C   UNL d   1      44.366 -12.271  41.395  0.00  0.00     0.181 C 
ENDBRANCH   9  17
TORSDOF 3
ENDMDL
