MODEL 1
REMARK VINA RESULT:      -2.8      0.000      0.000
REMARK  5 active torsions:
REMARK  status: ('A' for Active; 'I' for Inactive)
REMARK    1  A    between atoms: S_2  and  C_12 
REMARK    2  A    between atoms: N_7  and  S_2 
REMARK    3  A    between atoms: C_5  and  N_7 
REMARK    4  A    between atoms: O_26  and  C_22 
REMARK    5  A    between atoms: C_27  and  O_26 
ROOT
ATOM      1  S   UNL d   1      57.320   0.270  31.320  0.00  0.00     0.287 S 
ATOM      2  O   UNL d   1      58.038   0.682  31.394  0.00  0.00    -0.198 OA
ATOM      3  O   UNL d   1      56.594  -0.146  31.250  0.00  0.00    -0.198 OA
ENDROOT
BRANCH   1   4
ATOM      4  C   UNL d   1      57.192   0.348  32.143  0.00  0.00     0.107 A 
ATOM      5  C   UNL d   1      56.422   0.325  32.448  0.00  0.00     0.032 A 
ATOM      6  C   UNL d   1      56.297   0.401  33.257  0.00  0.00     0.085 A 
ATOM      7  N   UNL d   1      55.611   0.401  33.716  0.00  0.00    -0.256 N 
ATOM      8  C   UNL d   1      56.941   0.502  33.770  0.00  0.00     0.085 A 
ATOM      9  C   UNL d   1      55.836   0.500  34.506  0.00  0.00     0.339 A 
ATOM     10  C   UNL d   1      54.842   0.317  33.443  0.00  0.00     0.104 C 
ATOM     11  N   UNL d   1      56.644   0.562  34.540  0.00  0.00    -0.256 N 
ATOM     12  O   UNL d   1      55.328   0.533  35.160  0.00  0.00    -0.245 OA
ATOM     13  C   UNL d   1      57.094   0.665  35.219  0.00  0.00     0.104 C 
ATOM     14  C   UNL d   1      57.708   0.523  33.458  0.00  0.00     0.020 A 
ATOM     15  C   UNL d   1      57.832   0.447  32.648  0.00  0.00     0.015 A 
ENDBRANCH   1   4
BRANCH   1  16
ATOM     16  N   UNL d   1      57.440   0.189  30.500  0.00  0.00    -0.132 NA
BRANCH  16  17
ATOM     17  C   UNL d   1      57.906  -0.424  30.207  0.00  0.00     0.206 A 
ATOM     18  N   UNL d   1      57.619  -1.195  30.193  0.00  0.00    -0.220 NA
ATOM     19  C   UNL d   1      58.209  -1.681  29.871  0.00  0.00     0.090 A 
ATOM     20  C   UNL d   1      58.245  -2.490  29.719  0.00  0.00     0.022 A 
ATOM     21  C   UNL d   1      58.856  -1.198  29.689  0.00  0.00     0.052 A 
ATOM     22  C   UNL d   1      58.917  -2.816  29.390  0.00  0.00     0.026 A 
ATOM     23  C   UNL d   1      59.564  -2.342  29.207  0.00  0.00     0.101 A 
ATOM     24  C   UNL d   1      59.532  -1.529  29.357  0.00  0.00     0.033 A 
ATOM     25  S   UNL d   1      58.684  -0.432  29.889  0.00  0.00    -0.046 SA
BRANCH  23  26
ATOM     26  O   UNL d   1      60.247  -2.667  28.873  0.00  0.00    -0.305 OA
BRANCH  26  27
ATOM     27  C   UNL d   1      60.533  -3.392  29.163  0.00  0.00     0.123 C 
ATOM     28  C   UNL d   1      61.131  -3.792  28.760  0.00  0.00     0.029 C 
ENDBRANCH  26  27
ENDBRANCH  23  26
ENDBRANCH  16  17
ENDBRANCH   1  16
TORSDOF 5
ENDMDL
MODEL 2
REMARK VINA RESULT:      -0.4      1.370      5.549
REMARK  5 active torsions:
REMARK  status: ('A' for Active; 'I' for Inactive)
REMARK    1  A    between atoms: S_2  and  C_12 
REMARK    2  A    between atoms: N_7  and  S_2 
REMARK    3  A    between atoms: C_5  and  N_7 
REMARK    4  A    between atoms: O_26  and  C_22 
REMARK    5  A    between atoms: C_27  and  O_26 
ROOT
ATOM      1  S   UNL d   1      58.675  -0.066  29.875  0.00  0.00     0.287 S 
ATOM      2  O   UNL d   1      59.178  -0.008  30.534  0.00  0.00    -0.198 OA
ATOM      3  O   UNL d   1      58.169  -0.128  29.208  0.00  0.00    -0.198 OA
ENDROOT
BRANCH   1   4
ATOM      4  C   UNL d   1      59.138  -0.696  29.578  0.00  0.00     0.107 A 
ATOM      5  C   UNL d   1      58.808  -1.451  29.493  0.00  0.00     0.032 A 
ATOM      6  C   UNL d   1      59.263  -2.069  29.202  0.00  0.00     0.085 A 
ATOM      7  N   UNL d   1      59.094  -2.865  29.058  0.00  0.00    -0.256 N 
ATOM      8  C   UNL d   1      60.055  -1.940  28.991  0.00  0.00     0.085 A 
ATOM      9  C   UNL d   1      59.781  -3.219  28.760  0.00  0.00     0.339 A 
ATOM     10  C   UNL d   1      58.377  -3.241  29.185  0.00  0.00     0.104 C 
ATOM     11  N   UNL d   1      60.365  -2.658  28.719  0.00  0.00    -0.256 N 
ATOM     12  O   UNL d   1      59.867  -4.013  28.539  0.00  0.00    -0.245 OA
ATOM     13  C   UNL d   1      61.134  -2.777  28.455  0.00  0.00     0.104 C 
ATOM     14  C   UNL d   1      60.379  -1.183  29.078  0.00  0.00     0.020 A 
ATOM     15  C   UNL d   1      59.922  -0.564  29.370  0.00  0.00     0.015 A 
ENDBRANCH   1   4
BRANCH   1  16
ATOM     16  N   UNL d   1      58.209   0.560  30.164  0.00  0.00    -0.132 NA
BRANCH  16  17
ATOM     17  C   UNL d   1      57.807   0.484  30.879  0.00  0.00     0.206 A 
ATOM     18  N   UNL d   1      57.039   0.191  30.895  0.00  0.00    -0.220 NA
ATOM     19  C   UNL d   1      56.786   0.180  31.685  0.00  0.00     0.090 A 
ATOM     20  C   UNL d   1      56.081  -0.052  32.043  0.00  0.00     0.022 A 
ATOM     21  C   UNL d   1      57.408   0.471  32.147  0.00  0.00     0.052 A 
ATOM     22  C   UNL d   1      55.995   0.004  32.853  0.00  0.00     0.026 A 
ATOM     23  C   UNL d   1      56.609   0.292  33.319  0.00  0.00     0.101 A 
ATOM     24  C   UNL d   1      57.318   0.526  32.964  0.00  0.00     0.033 A 
ATOM     25  S   UNL d   1      58.034   0.659  31.669  0.00  0.00    -0.046 SA
BRANCH  23  26
ATOM     26  O   UNL d   1      56.526   0.351  34.140  0.00  0.00    -0.305 OA
BRANCH  26  27
ATOM     27  C   UNL d   1      55.788   0.563  34.458  0.00  0.00     0.123 C 
ATOM     28  C   UNL d   1      55.706   0.682  35.270  0.00  0.00     0.029 C 
ENDBRANCH  26  27
ENDBRANCH  23  26
ENDBRANCH  16  17
ENDBRANCH   1  16
TORSDOF 5
ENDMDL
