MODEL 1
REMARK VINA RESULT:      36.8      0.000      0.000
REMARK  5 active torsions:
REMARK  status: ('A' for Active; 'I' for Inactive)
REMARK    1  A    between atoms: C_7  and  C_1 
REMARK    2  A    between atoms: N_6  and  C_3 
REMARK       I    between atoms: C_8  and  N_6 
REMARK    3  A    between atoms: C_9  and  C_8 
REMARK    4  A    between atoms: C_11  and  C_9 
REMARK    5  A    between atoms: C_16  and  C_11 
ROOT
ATOM      1  N   UNL d   1     -55.500-100.173 -44.216  0.00  0.00    -0.165 NA
ATOM      2  C   UNL d   1     -55.373 -99.444 -43.877  0.00  0.00     0.282 C 
ATOM      3  O   UNL d   1     -55.062 -99.384 -43.116  0.00  0.00    -0.265 OA
ENDROOT
BRANCH   1   4
ATOM      4  C   UNL d   1     -55.320-100.860 -43.801  0.00  0.00     0.297 A 
ATOM      5  O   UNL d   1     -55.250-100.918 -42.984  0.00  0.00    -0.252 OA
ATOM      6  C   UNL d   1     -55.064-101.702 -42.801  0.00  0.00     0.229 A 
ATOM      7  N   UNL d   1     -55.021-102.117 -43.504  0.00  0.00    -0.117 NA
ATOM      8  N   UNL d   1     -55.179-101.598 -44.121  0.00  0.00    -0.101 NA
BRANCH   6   9
ATOM      9  C   UNL d   1     -54.944-102.002 -42.041  0.00  0.00     0.143 A 
ATOM     10  O   UNL d   1     -54.951-101.571 -41.345  0.00  0.00    -0.301 OA
ATOM     11  C   UNL d   1     -54.808-102.090 -40.724  0.00  0.00     0.123 A 
ATOM     12  C   UNL d   1     -54.713-102.847 -41.039  0.00  0.00     0.029 A 
ATOM     13  C   UNL d   1     -54.796-102.795 -41.852  0.00  0.00     0.030 A 
ENDBRANCH   6   9
ENDBRANCH   1   4
BRANCH   2  14
ATOM     14  C   UNL d   1     -55.555 -98.755 -44.294  0.00  0.00     0.063 C 
BRANCH  14  15
ATOM     15  C   UNL d   1     -56.089 -98.788 -44.911  0.00  0.00     0.005 C 
BRANCH  15  16
ATOM     16  C   UNL d   1     -56.903 -98.797 -44.750  0.00  0.00     0.000 A 
ATOM     17  C   UNL d   1     -57.164 -98.757 -43.968  0.00  0.00     0.000 A 
ATOM     18  C   UNL d   1     -57.973 -98.765 -43.809  0.00  0.00     0.000 A 
ATOM     19  C   UNL d   1     -58.516 -98.814 -44.430  0.00  0.00     0.000 A 
ATOM     20  C   UNL d   1     -58.240 -98.853 -45.201  0.00  0.00     0.000 A 
ATOM     21  C   UNL d   1     -57.442 -98.845 -45.364  0.00  0.00     0.000 A 
ENDBRANCH  15  16
ENDBRANCH  14  15
ENDBRANCH   2  14
TORSDOF 5
ENDMDL
