MODEL 1
REMARK VINA RESULT:       3.1      0.000      0.000
REMARK  11 active torsions:
REMARK  status: ('A' for Active; 'I' for Inactive)
REMARK    1  A    between atoms: C_7  and  C_1 
REMARK    2  A    between atoms: C_8  and  C_2 
REMARK    3  A    between atoms: S_9  and  C_3 
REMARK    4  A    between atoms: C_11  and  C_4 
REMARK    5  A    between atoms: O_20  and  C_7 
REMARK    6  A    between atoms: C_15  and  S_9 
REMARK    7  A    between atoms: C_12  and  C_15 
REMARK    8  A    between atoms: O_24  and  C_12 
REMARK    9  A    between atoms: C_18  and  C_26 
REMARK   10  A    between atoms: C_26  and  O_20 
REMARK   11  A    between atoms: C_27  and  O_24 
ROOT
ATOM      1  C   UNL d   1      31.888  18.807 -24.235  0.00  0.00     0.081 A 
ATOM      2  C   UNL d   1      32.722  19.215 -23.141  0.00  0.00     0.045 A 
ATOM      3  C   UNL d   1      32.551  20.027 -23.326  0.00  0.00     0.112 A 
ATOM      4  C   UNL d   1      32.384  18.619 -23.603  0.00  0.00     0.010 A 
ATOM      5  C   UNL d   1      31.722  19.598 -24.415  0.00  0.00     0.087 A 
ATOM      6  N   UNL d   1      32.052  20.196 -23.963  0.00  0.00    -0.239 NA
ATOM      7  C   UNL d   1      31.227  19.811 -25.044  0.00  0.00     0.021 C 
ENDROOT
BRANCH   3   8
ATOM      8  S   UNL d   1      32.873  20.679 -22.882  0.00  0.00    -0.062 SA
BRANCH   8   9
ATOM      9  C   UNL d   1      32.355  21.208 -22.531  0.00  0.00     0.105 C 
BRANCH   9  10
ATOM     10  C   UNL d   1      32.595  21.994 -22.426  0.00  0.00     0.307 C 
ATOM     11  O   UNL d   1      33.230  22.289 -22.850  0.00  0.00    -0.258 OA
BRANCH  10  12
ATOM     12  O   UNL d   1      32.196  22.468 -21.899  0.00  0.00    -0.271 OA
BRANCH  12  13
ATOM     13  C   UNL d   1      32.410  22.464 -21.105  0.00  0.00     0.126 C 
ATOM     14  C   UNL d   1      31.864  22.224 -20.541  0.00  0.00     0.029 C 
ENDBRANCH  12  13
ENDBRANCH  10  12
ENDBRANCH   9  10
ENDBRANCH   8   9
ENDBRANCH   3   8
BRANCH   2  15
ATOM     15  C   UNL d   1      33.228  18.997 -22.498  0.00  0.00     0.124 C 
ATOM     16  N   UNL d   1      33.158  19.377 -21.782  0.00  0.00    -0.146 N 
ENDBRANCH   2  15
BRANCH   4  17
ATOM     17  C   UNL d   1      32.549  17.833 -23.424  0.00  0.00     0.000 A 
ATOM     18  C   UNL d   1      32.878  17.349 -24.008  0.00  0.00     0.000 A 
ATOM     19  C   UNL d   1      33.052  16.565 -23.856  0.00  0.00     0.000 A 
ATOM     20  C   UNL d   1      32.884  16.245 -23.061  0.00  0.00     0.000 A 
ATOM     21  C   UNL d   1      32.556  16.743 -22.491  0.00  0.00     0.000 A 
ATOM     22  C   UNL d   1      33.045  15.461 -22.871  0.00  0.00     0.000 C 
ATOM     23  C   UNL d   1      32.389  17.534 -22.671  0.00  0.00     0.000 A 
ENDBRANCH   4  17
BRANCH   1  24
ATOM     24  C   UNL d   1      31.550  18.176 -24.698  0.00  0.00     0.302 C 
ATOM     25  O   UNL d   1      32.035  17.642 -25.095  0.00  0.00    -0.259 OA
BRANCH  24  26
ATOM     26  O   UNL d   1      30.738  18.112 -24.740  0.00  0.00    -0.271 OA
BRANCH  26  27
ATOM     27  C   UNL d   1      30.370  17.370 -24.723  0.00  0.00     0.126 C 
BRANCH  27  28
ATOM     28  C   UNL d   1      29.595  17.283 -24.975  0.00  0.00     0.027 C 
ATOM     29  C   UNL d   1      29.240  16.541 -24.990  0.00  0.00     0.002 C 
ENDBRANCH  27  28
ENDBRANCH  26  27
ENDBRANCH  24  26
ENDBRANCH   1  24
TORSDOF 11
ENDMDL
