MODEL 1
REMARK VINA RESULT:      -8.9      0.000      0.000
REMARK  4 active torsions:
REMARK  status: ('A' for Active; 'I' for Inactive)
REMARK    1  A    between atoms: C_3  and  C_1 
REMARK    2  A    between atoms: N_10  and  C_3 
REMARK    3  A    between atoms: C_13  and  C_3 
REMARK    4  A    between atoms: C_5  and  N_10 
ROOT
ATOM      1  C   UNL d   1     -48.469  13.412  22.924  0.00  0.00     0.086 C 
ENDROOT
BRANCH   1   2
ATOM      2  C   UNL d   1     -47.646  13.275  22.904  0.00  0.00     0.037 A 
ATOM      3  C   UNL d   1     -47.075  13.817  22.616  0.00  0.00     0.083 A 
ATOM      4  N   UNL d   1     -46.362  13.492  22.687  0.00  0.00    -0.245 NA
ATOM      5  C   UNL d   1     -47.233  14.565  22.309  0.00  0.00     0.021 C 
ATOM      6  C   UNL d   1     -46.434  12.746  23.014  0.00  0.00     0.081 A 
ATOM      7  C   UNL d   1     -47.240  12.610  23.150  0.00  0.00     0.021 A 
ATOM      8  C   UNL d   1     -45.875  12.171  23.208  0.00  0.00     0.019 A 
ATOM      9  C   UNL d   1     -47.476  11.901  23.478  0.00  0.00     0.002 A 
ATOM     10  C   UNL d   1     -46.934  11.323  23.674  0.00  0.00     0.000 A 
ATOM     11  C   UNL d   1     -46.129  11.459  23.538  0.00  0.00     0.002 A 
ENDBRANCH   1   2
BRANCH   1  12
ATOM     12  N   UNL d   1     -48.793  13.833  23.541  0.00  0.00    -0.225 NA
BRANCH  12  13
ATOM     13  C   UNL d   1     -49.158  14.537  23.381  0.00  0.00     0.191 A 
ATOM     14  N   UNL d   1     -48.942  15.220  22.926  0.00  0.00    -0.107 NA
ATOM     15  O   UNL d   1     -49.549  15.766  22.973  0.00  0.00    -0.210 OA
ATOM     16  C   UNL d   1     -50.149  15.459  23.442  0.00  0.00     0.128 A 
ATOM     17  C   UNL d   1     -49.914  14.700  23.698  0.00  0.00     0.068 A 
ATOM     18  C   UNL d   1     -50.851  15.868  23.607  0.00  0.00     0.029 C 
ENDBRANCH  12  13
ENDBRANCH   1  12
BRANCH   1  19
ATOM     19  C   UNL d   1     -48.938  13.116  22.316  0.00  0.00     0.037 A 
ATOM     20  C   UNL d   1     -48.851  13.396  21.572  0.00  0.00     0.100 A 
ATOM     21  N   UNL d   1     -49.310  13.115  20.944  0.00  0.00    -0.242 NA
ATOM     22  C   UNL d   1     -49.877  12.522  21.107  0.00  0.00     0.099 A 
ATOM     23  C   UNL d   1     -49.961  12.237  21.878  0.00  0.00     0.021 A 
ATOM     24  C   UNL d   1     -49.505  12.521  22.487  0.00  0.00     0.005 A 
ENDBRANCH   1  19
TORSDOF 4
ENDMDL
MODEL 2
REMARK VINA RESULT:      -8.5      1.437      3.550
REMARK  4 active torsions:
REMARK  status: ('A' for Active; 'I' for Inactive)
REMARK    1  A    between atoms: C_3  and  C_1 
REMARK    2  A    between atoms: N_10  and  C_3 
REMARK    3  A    between atoms: C_13  and  C_3 
REMARK    4  A    between atoms: C_5  and  N_10 
ROOT
ATOM      1  C   UNL d   1     -48.534  13.356  22.772  0.00  0.00     0.086 C 
ENDROOT
BRANCH   1   2
ATOM      2  C   UNL d   1     -49.112  13.839  22.413  0.00  0.00     0.037 A 
ATOM      3  C   UNL d   1     -49.344  13.794  21.608  0.00  0.00     0.083 A 
ATOM      4  N   UNL d   1     -49.899  14.337  21.477  0.00  0.00    -0.245 NA
ATOM      5  C   UNL d   1     -49.042  13.271  21.049  0.00  0.00     0.021 C 
ATOM      6  C   UNL d   1     -50.049  14.747  22.168  0.00  0.00     0.081 A 
ATOM      7  C   UNL d   1     -49.555  14.435  22.755  0.00  0.00     0.021 A 
ATOM      8  C   UNL d   1     -50.568  15.363  22.343  0.00  0.00     0.019 A 
ATOM      9  C   UNL d   1     -49.587  14.743  23.510  0.00  0.00     0.002 A 
ATOM     10  C   UNL d   1     -50.096  15.352  23.698  0.00  0.00     0.000 A 
ATOM     11  C   UNL d   1     -50.590  15.664  23.111  0.00  0.00     0.002 A 
ENDBRANCH   1   2
BRANCH   1  12
ATOM     12  N   UNL d   1     -47.834  13.684  23.026  0.00  0.00    -0.225 NA
BRANCH  12  13
ATOM     13  C   UNL d   1     -47.162  13.544  22.599  0.00  0.00     0.191 A 
ATOM     14  N   UNL d   1     -47.010  13.380  21.781  0.00  0.00    -0.107 NA
ATOM     15  O   UNL d   1     -46.203  13.288  21.680  0.00  0.00    -0.210 OA
ATOM     16  C   UNL d   1     -45.831  13.386  22.405  0.00  0.00     0.128 A 
ATOM     17  C   UNL d   1     -46.416  13.545  22.978  0.00  0.00     0.068 A 
ATOM     18  C   UNL d   1     -45.009  13.329  22.504  0.00  0.00     0.029 C 
ENDBRANCH  12  13
ENDBRANCH   1  12
BRANCH   1  19
ATOM     19  C   UNL d   1     -48.687  12.552  22.862  0.00  0.00     0.037 A 
ATOM     20  C   UNL d   1     -48.649  12.065  22.229  0.00  0.00     0.100 A 
ATOM     21  N   UNL d   1     -48.798  11.254  22.294  0.00  0.00    -0.242 NA
ATOM     22  C   UNL d   1     -48.992  10.949  23.048  0.00  0.00     0.099 A 
ATOM     23  C   UNL d   1     -49.029  11.459  23.698  0.00  0.00     0.021 A 
ATOM     24  C   UNL d   1     -48.880  12.254  23.622  0.00  0.00     0.005 A 
ENDBRANCH   1  19
TORSDOF 4
ENDMDL
MODEL 3
REMARK VINA RESULT:      -7.7      1.323      3.553
REMARK  4 active torsions:
REMARK  status: ('A' for Active; 'I' for Inactive)
REMARK    1  A    between atoms: C_3  and  C_1 
REMARK    2  A    between atoms: N_10  and  C_3 
REMARK    3  A    between atoms: C_13  and  C_3 
REMARK    4  A    between atoms: C_5  and  N_10 
ROOT
ATOM      1  C   UNL d   1     -49.266  12.888  23.056  0.00  0.00     0.086 C 
ENDROOT
BRANCH   1   2
ATOM      2  C   UNL d   1     -49.821  13.470  23.276  0.00  0.00     0.037 A 
ATOM      3  C   UNL d   1     -50.600  13.315  23.545  0.00  0.00     0.083 A 
ATOM      4  N   UNL d   1     -50.953  14.002  23.698  0.00  0.00    -0.245 NA
ATOM      5  C   UNL d   1     -50.939  12.571  23.633  0.00  0.00     0.021 C 
ATOM      6  C   UNL d   1     -50.436  14.616  23.541  0.00  0.00     0.081 A 
ATOM      7  C   UNL d   1     -49.726  14.282  23.277  0.00  0.00     0.021 A 
ATOM      8  C   UNL d   1     -50.515  15.435  23.604  0.00  0.00     0.019 A 
ATOM      9  C   UNL d   1     -49.104  14.771  23.078  0.00  0.00     0.002 A 
ATOM     10  C   UNL d   1     -49.168  15.583  23.135  0.00  0.00     0.000 A 
ATOM     11  C   UNL d   1     -49.878  15.916  23.399  0.00  0.00     0.002 A 
ENDBRANCH   1   2
BRANCH   1  12
ATOM     12  N   UNL d   1     -48.818  12.519  23.628  0.00  0.00    -0.225 NA
BRANCH  12  13
ATOM     13  C   UNL d   1     -48.013  12.537  23.562  0.00  0.00     0.191 A 
ATOM     14  N   UNL d   1     -47.453  13.145  23.371  0.00  0.00    -0.107 NA
ATOM     15  O   UNL d   1     -46.701  12.823  23.393  0.00  0.00    -0.210 OA
ATOM     16  C   UNL d   1     -46.758  12.028  23.592  0.00  0.00     0.128 A 
ATOM     17  C   UNL d   1     -47.565  11.844  23.698  0.00  0.00     0.068 A 
ATOM     18  C   UNL d   1     -46.098  11.531  23.664  0.00  0.00     0.029 C 
ENDBRANCH  12  13
ENDBRANCH   1  12
BRANCH   1  19
ATOM     19  C   UNL d   1     -49.182  12.697  22.259  0.00  0.00     0.037 A 
ATOM     20  C   UNL d   1     -48.818  13.208  21.763  0.00  0.00     0.100 A 
ATOM     21  N   UNL d   1     -48.722  13.039  20.959  0.00  0.00    -0.242 NA
ATOM     22  C   UNL d   1     -49.017  12.311  20.672  0.00  0.00     0.099 A 
ATOM     23  C   UNL d   1     -49.392  11.789  21.191  0.00  0.00     0.021 A 
ATOM     24  C   UNL d   1     -49.481  11.965  21.978  0.00  0.00     0.005 A 
ENDBRANCH   1  19
TORSDOF 4
ENDMDL
MODEL 4
REMARK VINA RESULT:      -7.7      1.517      3.879
REMARK  4 active torsions:
REMARK  status: ('A' for Active; 'I' for Inactive)
REMARK    1  A    between atoms: C_3  and  C_1 
REMARK    2  A    between atoms: N_10  and  C_3 
REMARK    3  A    between atoms: C_13  and  C_3 
REMARK    4  A    between atoms: C_5  and  N_10 
ROOT
ATOM      1  C   UNL d   1     -48.258  13.180  22.813  0.00  0.00     0.086 C 
ENDROOT
BRANCH   1   2
ATOM      2  C   UNL d   1     -48.942  13.416  22.398  0.00  0.00     0.037 A 
ATOM      3  C   UNL d   1     -49.143  13.169  21.622  0.00  0.00     0.083 A 
ATOM      4  N   UNL d   1     -49.825  13.507  21.421  0.00  0.00    -0.245 NA
ATOM      5  C   UNL d   1     -48.701  12.660  21.150  0.00  0.00     0.021 C 
ATOM      6  C   UNL d   1     -50.091  13.974  22.037  0.00  0.00     0.081 A 
ATOM      7  C   UNL d   1     -49.537  13.917  22.650  0.00  0.00     0.021 A 
ATOM      8  C   UNL d   1     -50.763  14.445  22.123  0.00  0.00     0.019 A 
ATOM      9  C   UNL d   1     -49.662  14.331  23.342  0.00  0.00     0.002 A 
ATOM     10  C   UNL d   1     -50.322  14.800  23.441  0.00  0.00     0.000 A 
ATOM     11  C   UNL d   1     -50.876  14.857  22.828  0.00  0.00     0.002 A 
ENDBRANCH   1   2
BRANCH   1  12
ATOM     12  N   UNL d   1     -48.315  12.619  23.401  0.00  0.00    -0.225 NA
BRANCH  12  13
ATOM     13  C   UNL d   1     -48.021  11.879  23.262  0.00  0.00     0.191 A 
ATOM     14  N   UNL d   1     -48.234  11.253  22.730  0.00  0.00    -0.107 NA
ATOM     15  O   UNL d   1     -47.721  10.627  22.848  0.00  0.00    -0.210 OA
ATOM     16  C   UNL d   1     -47.186  10.828  23.437  0.00  0.00     0.128 A 
ATOM     17  C   UNL d   1     -47.364  11.600  23.698  0.00  0.00     0.068 A 
ATOM     18  C   UNL d   1     -46.585  10.318  23.698  0.00  0.00     0.029 C 
ENDBRANCH  12  13
ENDBRANCH   1  12
BRANCH   1  19
ATOM     19  C   UNL d   1     -47.535  13.522  22.618  0.00  0.00     0.037 A 
ATOM     20  C   UNL d   1     -47.166  13.315  21.939  0.00  0.00     0.100 A 
ATOM     21  N   UNL d   1     -46.440  13.644  21.721  0.00  0.00    -0.242 NA
ATOM     22  C   UNL d   1     -46.093  14.206  22.234  0.00  0.00     0.099 A 
ATOM     23  C   UNL d   1     -46.479  14.414  22.934  0.00  0.00     0.021 A 
ATOM     24  C   UNL d   1     -47.193  14.085  23.138  0.00  0.00     0.005 A 
ENDBRANCH   1  19
TORSDOF 4
ENDMDL
MODEL 5
REMARK VINA RESULT:      -7.2      8.747     10.418
REMARK  4 active torsions:
REMARK  status: ('A' for Active; 'I' for Inactive)
REMARK    1  A    between atoms: C_3  and  C_1 
REMARK    2  A    between atoms: N_10  and  C_3 
REMARK    3  A    between atoms: C_13  and  C_3 
REMARK    4  A    between atoms: C_5  and  N_10 
ROOT
ATOM      1  C   UNL d   1     -39.299  14.605  18.576  0.00  0.00     0.086 C 
ENDROOT
BRANCH   1   2
ATOM      2  C   UNL d   1     -39.728  14.701  19.284  0.00  0.00     0.037 A 
ATOM      3  C   UNL d   1     -40.493  14.388  19.429  0.00  0.00     0.083 A 
ATOM      4  N   UNL d   1     -40.714  14.594  20.156  0.00  0.00    -0.245 NA
ATOM      5  C   UNL d   1     -40.938  13.940  18.900  0.00  0.00     0.021 C 
ATOM      6  C   UNL d   1     -40.122  15.036  20.507  0.00  0.00     0.081 A 
ATOM      7  C   UNL d   1     -39.504  15.103  19.960  0.00  0.00     0.021 A 
ATOM      8  C   UNL d   1     -40.062  15.387  21.250  0.00  0.00     0.019 A 
ATOM      9  C   UNL d   1     -38.833  15.521  20.164  0.00  0.00     0.002 A 
ATOM     10  C   UNL d   1     -38.760  15.873  20.895  0.00  0.00     0.000 A 
ATOM     11  C   UNL d   1     -39.378  15.806  21.442  0.00  0.00     0.002 A 
ENDBRANCH   1   2
BRANCH   1  12
ATOM     12  N   UNL d   1     -38.646  14.118  18.561  0.00  0.00    -0.225 NA
BRANCH  12  13
ATOM     13  C   UNL d   1     -38.714  13.389  18.218  0.00  0.00     0.191 A 
ATOM     14  N   UNL d   1     -39.290  13.031  17.708  0.00  0.00    -0.107 NA
ATOM     15  O   UNL d   1     -39.051  12.266  17.542  0.00  0.00    -0.210 OA
ATOM     16  C   UNL d   1     -38.341  12.120  17.927  0.00  0.00     0.128 A 
ATOM     17  C   UNL d   1     -38.126  12.808  18.346  0.00  0.00     0.068 A 
ATOM     18  C   UNL d   1     -37.940  11.395  17.879  0.00  0.00     0.029 C 
ENDBRANCH  12  13
ENDBRANCH   1  12
BRANCH   1  19
ATOM     19  C   UNL d   1     -39.545  15.009  17.901  0.00  0.00     0.037 A 
ATOM     20  C   UNL d   1     -40.286  14.901  17.621  0.00  0.00     0.100 A 
ATOM     21  N   UNL d   1     -40.557  15.295  16.946  0.00  0.00    -0.242 NA
ATOM     22  C   UNL d   1     -40.031  15.816  16.557  0.00  0.00     0.099 A 
ATOM     23  C   UNL d   1     -39.267  15.922  16.853  0.00  0.00     0.021 A 
ATOM     24  C   UNL d   1     -39.012  15.530  17.517  0.00  0.00     0.005 A 
ENDBRANCH   1  19
TORSDOF 4
ENDMDL
MODEL 6
REMARK VINA RESULT:      -7.0      9.293     10.356
REMARK  4 active torsions:
REMARK  status: ('A' for Active; 'I' for Inactive)
REMARK    1  A    between atoms: C_3  and  C_1 
REMARK    2  A    between atoms: N_10  and  C_3 
REMARK    3  A    between atoms: C_13  and  C_3 
REMARK    4  A    between atoms: C_5  and  N_10 
ROOT
ATOM      1  C   UNL d   1     -39.301  14.397  18.475  0.00  0.00     0.086 C 
ENDROOT
BRANCH   1   2
ATOM      2  C   UNL d   1     -38.903  14.795  19.090  0.00  0.00     0.037 A 
ATOM      3  C   UNL d   1     -38.319  15.387  18.981  0.00  0.00     0.083 A 
ATOM      4  N   UNL d   1     -38.073  15.629  19.688  0.00  0.00    -0.245 NA
ATOM      5  C   UNL d   1     -38.047  15.667  18.256  0.00  0.00     0.021 C 
ATOM      6  C   UNL d   1     -38.473  15.219  20.272  0.00  0.00     0.081 A 
ATOM      7  C   UNL d   1     -38.994  14.696  19.897  0.00  0.00     0.021 A 
ATOM      8  C   UNL d   1     -38.435  15.252  21.095  0.00  0.00     0.019 A 
ATOM      9  C   UNL d   1     -39.469  14.212  20.349  0.00  0.00     0.002 A 
ATOM     10  C   UNL d   1     -39.442  14.233  21.165  0.00  0.00     0.000 A 
ATOM     11  C   UNL d   1     -38.921  14.756  21.540  0.00  0.00     0.002 A 
ENDBRANCH   1   2
BRANCH   1  12
ATOM     12  N   UNL d   1     -40.090  14.548  18.340  0.00  0.00    -0.225 NA
BRANCH  12  13
ATOM     13  C   UNL d   1     -40.294  15.014  17.711  0.00  0.00     0.191 A 
ATOM     14  N   UNL d   1     -39.849  15.449  17.134  0.00  0.00    -0.107 NA
ATOM     15  O   UNL d   1     -40.373  15.820  16.627  0.00  0.00    -0.210 OA
ATOM     16  C   UNL d   1     -41.140  15.638  16.857  0.00  0.00     0.128 A 
ATOM     17  C   UNL d   1     -41.099  15.140  17.526  0.00  0.00     0.068 A 
ATOM     18  C   UNL d   1     -41.811  15.922  16.462  0.00  0.00     0.029 C 
ENDBRANCH  12  13
ENDBRANCH   1  12
BRANCH   1  19
ATOM     19  C   UNL d   1     -38.886  13.855  18.015  0.00  0.00     0.037 A 
ATOM     20  C   UNL d   1     -38.369  14.114  17.463  0.00  0.00     0.100 A 
ATOM     21  N   UNL d   1     -37.940  13.590  16.989  0.00  0.00    -0.242 NA
ATOM     22  C   UNL d   1     -38.060  12.770  17.100  0.00  0.00     0.099 A 
ATOM     23  C   UNL d   1     -38.596  12.510  17.672  0.00  0.00     0.021 A 
ATOM     24  C   UNL d   1     -39.012  13.034  18.133  0.00  0.00     0.005 A 
ENDBRANCH   1  19
TORSDOF 4
ENDMDL
MODEL 7
REMARK VINA RESULT:      -6.8      1.307      3.083
REMARK  4 active torsions:
REMARK  status: ('A' for Active; 'I' for Inactive)
REMARK    1  A    between atoms: C_3  and  C_1 
REMARK    2  A    between atoms: N_10  and  C_3 
REMARK    3  A    between atoms: C_13  and  C_3 
REMARK    4  A    between atoms: C_5  and  N_10 
ROOT
ATOM      1  C   UNL d   1     -48.458  13.755  22.956  0.00  0.00     0.086 C 
ENDROOT
BRANCH   1   2
ATOM      2  C   UNL d   1     -48.787  13.120  22.526  0.00  0.00     0.037 A 
ATOM      3  C   UNL d   1     -48.847  13.085  21.690  0.00  0.00     0.083 A 
ATOM      4  N   UNL d   1     -49.187  12.404  21.492  0.00  0.00    -0.245 NA
ATOM      5  C   UNL d   1     -48.592  13.666  21.165  0.00  0.00     0.021 C 
ATOM      6  C   UNL d   1     -49.359  11.977  22.168  0.00  0.00     0.081 A 
ATOM      7  C   UNL d   1     -49.108  12.427  22.816  0.00  0.00     0.021 A 
ATOM      8  C   UNL d   1     -49.710  11.240  22.281  0.00  0.00     0.019 A 
ATOM      9  C   UNL d   1     -49.212  12.133  23.570  0.00  0.00     0.002 A 
ATOM     10  C   UNL d   1     -49.558  11.405  23.698  0.00  0.00     0.000 A 
ATOM     11  C   UNL d   1     -49.809  10.956  23.049  0.00  0.00     0.002 A 
ENDBRANCH   1   2
BRANCH   1  12
ATOM     12  N   UNL d   1     -47.759  13.649  23.361  0.00  0.00    -0.225 NA
BRANCH  12  13
ATOM     13  C   UNL d   1     -47.066  13.855  22.999  0.00  0.00     0.191 A 
ATOM     14  N   UNL d   1     -46.758  14.584  22.692  0.00  0.00    -0.107 NA
ATOM     15  O   UNL d   1     -46.013  14.443  22.385  0.00  0.00    -0.210 OA
ATOM     16  C   UNL d   1     -45.830  13.649  22.484  0.00  0.00     0.128 A 
ATOM     17  C   UNL d   1     -46.476  13.279  22.862  0.00  0.00     0.068 A 
ATOM     18  C   UNL d   1     -45.114  13.313  22.235  0.00  0.00     0.029 C 
ENDBRANCH  12  13
ENDBRANCH   1  12
BRANCH   1  19
ATOM     19  C   UNL d   1     -48.850  14.479  22.963  0.00  0.00     0.037 A 
ATOM     20  C   UNL d   1     -48.922  14.900  22.287  0.00  0.00     0.100 A 
ATOM     21  N   UNL d   1     -49.311  15.629  22.268  0.00  0.00    -0.242 NA
ATOM     22  C   UNL d   1     -49.633  15.922  22.983  0.00  0.00     0.099 A 
ATOM     23  C   UNL d   1     -49.554  15.481  23.677  0.00  0.00     0.021 A 
ATOM     24  C   UNL d   1     -49.170  14.766  23.684  0.00  0.00     0.005 A 
ENDBRANCH   1  19
TORSDOF 4
ENDMDL
MODEL 8
REMARK VINA RESULT:      -6.7      8.227     10.109
REMARK  4 active torsions:
REMARK  status: ('A' for Active; 'I' for Inactive)
REMARK    1  A    between atoms: C_3  and  C_1 
REMARK    2  A    between atoms: N_10  and  C_3 
REMARK    3  A    between atoms: C_13  and  C_3 
REMARK    4  A    between atoms: C_5  and  N_10 
ROOT
ATOM      1  C   UNL d   1     -39.272  14.418  20.175  0.00  0.00     0.086 C 
ENDROOT
BRANCH   1   2
ATOM      2  C   UNL d   1     -38.922  14.707  19.475  0.00  0.00     0.037 A 
ATOM      3  C   UNL d   1     -38.466  15.409  19.419  0.00  0.00     0.083 A 
ATOM      4  N   UNL d   1     -38.232  15.497  18.672  0.00  0.00    -0.245 NA
ATOM      5  C   UNL d   1     -38.293  15.921  20.040  0.00  0.00     0.021 C 
ATOM      6  C   UNL d   1     -38.516  14.875  18.222  0.00  0.00     0.081 A 
ATOM      7  C   UNL d   1     -38.948  14.380  18.725  0.00  0.00     0.021 A 
ATOM      8  C   UNL d   1     -38.439  14.693  17.422  0.00  0.00     0.019 A 
ATOM      9  C   UNL d   1     -39.299  13.709  18.422  0.00  0.00     0.002 A 
ATOM     10  C   UNL d   1     -39.231  13.516  17.632  0.00  0.00     0.000 A 
ATOM     11  C   UNL d   1     -38.798  14.011  17.129  0.00  0.00     0.002 A 
ENDBRANCH   1   2
BRANCH   1  12
ATOM     12  N   UNL d   1     -38.931  13.791  20.568  0.00  0.00    -0.225 NA
BRANCH  12  13
ATOM     13  C   UNL d   1     -38.580  13.926  21.283  0.00  0.00     0.191 A 
ATOM     14  N   UNL d   1     -38.182  14.593  21.625  0.00  0.00    -0.107 NA
ATOM     15  O   UNL d   1     -37.942  14.393  22.381  0.00  0.00    -0.210 OA
ATOM     16  C   UNL d   1     -38.170  13.620  22.537  0.00  0.00     0.128 A 
ATOM     17  C   UNL d   1     -38.565  13.325  21.864  0.00  0.00     0.068 A 
ATOM     18  C   UNL d   1     -38.015  13.237  23.256  0.00  0.00     0.029 C 
ENDBRANCH  12  13
ENDBRANCH   1  12
BRANCH   1  19
ATOM     19  C   UNL d   1     -39.959  14.776  20.455  0.00  0.00     0.037 A 
ATOM     20  C   UNL d   1     -39.944  15.541  20.686  0.00  0.00     0.100 A 
ATOM     21  N   UNL d   1     -40.621  15.922  20.971  0.00  0.00    -0.242 NA
ATOM     22  C   UNL d   1     -41.331  15.483  21.013  0.00  0.00     0.099 A 
ATOM     23  C   UNL d   1     -41.338  14.693  20.772  0.00  0.00     0.021 A 
ATOM     24  C   UNL d   1     -40.668  14.329  20.493  0.00  0.00     0.005 A 
ENDBRANCH   1  19
TORSDOF 4
ENDMDL
MODEL 9
REMARK VINA RESULT:      -6.4      9.484     11.137
REMARK  4 active torsions:
REMARK  status: ('A' for Active; 'I' for Inactive)
REMARK    1  A    between atoms: C_3  and  C_1 
REMARK    2  A    between atoms: N_10  and  C_3 
REMARK    3  A    between atoms: C_13  and  C_3 
REMARK    4  A    between atoms: C_5  and  N_10 
ROOT
ATOM      1  C   UNL d   1     -38.893  14.723  17.879  0.00  0.00     0.086 C 
ENDROOT
BRANCH   1   2
ATOM      2  C   UNL d   1     -38.658  14.310  17.193  0.00  0.00     0.037 A 
ATOM      3  C   UNL d   1     -38.611  13.476  17.125  0.00  0.00     0.083 A 
ATOM      4  N   UNL d   1     -38.369  13.297  16.398  0.00  0.00    -0.245 NA
ATOM      5  C   UNL d   1     -38.787  12.934  17.720  0.00  0.00     0.021 C 
ATOM      6  C   UNL d   1     -38.252  13.985  15.972  0.00  0.00     0.081 A 
ATOM      7  C   UNL d   1     -38.433  14.621  16.470  0.00  0.00     0.021 A 
ATOM      8  C   UNL d   1     -38.004  14.119  15.197  0.00  0.00     0.019 A 
ATOM      9  C   UNL d   1     -38.364  15.383  16.188  0.00  0.00     0.002 A 
ATOM     10  C   UNL d   1     -38.121  15.530  15.423  0.00  0.00     0.000 A 
ATOM     11  C   UNL d   1     -37.940  14.895  14.925  0.00  0.00     0.002 A 
ENDBRANCH   1   2
BRANCH   1  12
ATOM     12  N   UNL d   1     -38.330  14.988  18.404  0.00  0.00    -0.225 NA
BRANCH  12  13
ATOM     13  C   UNL d   1     -38.321  14.680  19.152  0.00  0.00     0.191 A 
ATOM     14  N   UNL d   1     -38.519  13.922  19.477  0.00  0.00    -0.107 NA
ATOM     15  O   UNL d   1     -38.394  13.945  20.285  0.00  0.00    -0.210 OA
ATOM     16  C   UNL d   1     -38.124  14.692  20.492  0.00  0.00     0.128 A 
ATOM     17  C   UNL d   1     -38.076  15.152  19.797  0.00  0.00     0.068 A 
ATOM     18  C   UNL d   1     -37.941  14.909  21.271  0.00  0.00     0.029 C 
ENDBRANCH  12  13
ENDBRANCH   1  12
BRANCH   1  19
ATOM     19  C   UNL d   1     -39.696  14.854  18.011  0.00  0.00     0.037 A 
ATOM     20  C   UNL d   1     -40.192  14.233  18.101  0.00  0.00     0.100 A 
ATOM     21  N   UNL d   1     -41.001  14.339  18.235  0.00  0.00    -0.242 NA
ATOM     22  C   UNL d   1     -41.294  15.121  18.274  0.00  0.00     0.099 A 
ATOM     23  C   UNL d   1     -40.775  15.757  18.179  0.00  0.00     0.021 A 
ATOM     24  C   UNL d   1     -39.982  15.641  18.048  0.00  0.00     0.005 A 
ENDBRANCH   1  19
TORSDOF 4
ENDMDL
