MODEL 1
REMARK VINA RESULT:      32.2      0.000      0.000
REMARK  9 active torsions:
REMARK  status: ('A' for Active; 'I' for Inactive)
REMARK    1  A    between atoms: N_4  and  C_1 
REMARK       I    between atoms: C_7  and  N_4 
REMARK    2  A    between atoms: C_13  and  C_7 
REMARK    3  A    between atoms: C_8  and  C_14 
REMARK    4  A    between atoms: O_12  and  C_8 
REMARK    5  A    between atoms: S_11  and  C_13 
REMARK    6  A    between atoms: C_14  and  S_11 
REMARK    7  A    between atoms: C_16  and  O_12 
REMARK    8  A    between atoms: C_17  and  C_16 
REMARK    9  A    between atoms: C_18  and  C_17 
ROOT
ATOM      1  C   UNL d   1     -50.528  26.734  33.649  0.00  0.00     0.127 C 
ENDROOT
BRANCH   1   2
ATOM      2  S   UNL d   1     -50.015  27.379  33.689  0.00  0.00    -0.089 SA
BRANCH   2   3
ATOM      3  C   UNL d   1     -49.425  27.401  34.265  0.00  0.00     0.103 C 
BRANCH   3   4
ATOM      4  C   UNL d   1     -48.862  27.999  34.258  0.00  0.00     0.307 C 
ATOM      5  O   UNL d   1     -48.754  28.455  33.585  0.00  0.00    -0.258 OA
BRANCH   4   6
ATOM      6  O   UNL d   1     -48.411  28.135  34.926  0.00  0.00    -0.271 OA
BRANCH   6   7
ATOM      7  C   UNL d   1     -48.090  28.882  35.067  0.00  0.00     0.126 C 
BRANCH   7   8
ATOM      8  C   UNL d   1     -47.802  29.072  35.816  0.00  0.00     0.027 C 
BRANCH   8   9
ATOM      9  C   UNL d   1     -47.775  29.860  36.059  0.00  0.00     0.002 C 
ATOM     10  C   UNL d   1     -47.355  30.411  35.632  0.00  0.00     0.000 C 
ENDBRANCH   8   9
ENDBRANCH   7   8
ENDBRANCH   6   7
ENDBRANCH   4   6
ENDBRANCH   3   4
ENDBRANCH   2   3
ENDBRANCH   1   2
BRANCH   1  11
ATOM     11  C   UNL d   1     -51.328  26.851  33.484  0.00  0.00     0.275 C 
ATOM     12  N   UNL d   1     -51.819  26.206  33.375  0.00  0.00    -0.187 NA
ATOM     13  O   UNL d   1     -51.630  27.617  33.430  0.00  0.00    -0.266 OA
BRANCH  12  14
ATOM     14  C   UNL d   1     -51.517  25.440  33.429  0.00  0.00     0.194 A 
ATOM     15  N   UNL d   1     -50.739  25.241  33.614  0.00  0.00    -0.107 NA
ATOM     16  O   UNL d   1     -50.684  24.419  33.607  0.00  0.00    -0.210 OA
ATOM     17  C   UNL d   1     -51.412  24.103  33.422  0.00  0.00     0.128 A 
ATOM     18  C   UNL d   1     -51.935  24.734  33.311  0.00  0.00     0.068 A 
ATOM     19  C   UNL d   1     -51.592  23.292  33.358  0.00  0.00     0.029 C 
ENDBRANCH  12  14
ENDBRANCH   1  11
TORSDOF 9
ENDMDL
MODEL 2
REMARK VINA RESULT:      34.8      3.285      6.244
REMARK  9 active torsions:
REMARK  status: ('A' for Active; 'I' for Inactive)
REMARK    1  A    between atoms: N_4  and  C_1 
REMARK       I    between atoms: C_7  and  N_4 
REMARK    2  A    between atoms: C_13  and  C_7 
REMARK    3  A    between atoms: C_8  and  C_14 
REMARK    4  A    between atoms: O_12  and  C_8 
REMARK    5  A    between atoms: S_11  and  C_13 
REMARK    6  A    between atoms: C_14  and  S_11 
REMARK    7  A    between atoms: C_16  and  O_12 
REMARK    8  A    between atoms: C_17  and  C_16 
REMARK    9  A    between atoms: C_18  and  C_17 
ROOT
ATOM      1  C   UNL d   1     -47.699  30.699  35.090  0.00  0.00     0.127 C 
ENDROOT
BRANCH   1   2
ATOM      2  S   UNL d   1     -47.703  29.875  35.142  0.00  0.00    -0.089 SA
BRANCH   2   3
ATOM      3  C   UNL d   1     -48.261  29.439  34.719  0.00  0.00     0.103 C 
BRANCH   3   4
ATOM      4  C   UNL d   1     -48.471  28.684  34.967  0.00  0.00     0.307 C 
ATOM      5  O   UNL d   1     -48.550  28.521  35.767  0.00  0.00    -0.258 OA
BRANCH   4   6
ATOM      6  O   UNL d   1     -48.600  28.098  34.412  0.00  0.00    -0.271 OA
BRANCH   6   7
ATOM      7  C   UNL d   1     -49.350  27.766  34.323  0.00  0.00     0.126 C 
BRANCH   7   8
ATOM      8  C   UNL d   1     -49.490  27.222  33.719  0.00  0.00     0.027 C 
BRANCH   8   9
ATOM      9  C   UNL d   1     -50.207  27.237  33.310  0.00  0.00     0.002 C 
ATOM     10  C   UNL d   1     -50.750  26.640  33.407  0.00  0.00     0.000 C 
ENDBRANCH   8   9
ENDBRANCH   7   8
ENDBRANCH   6   7
ENDBRANCH   4   6
ENDBRANCH   3   4
ENDBRANCH   2   3
ENDBRANCH   1   2
BRANCH   1  11
ATOM     11  C   UNL d   1     -47.239  31.144  35.611  0.00  0.00     0.275 C 
ATOM     12  N   UNL d   1     -47.029  31.909  35.415  0.00  0.00    -0.187 NA
ATOM     13  O   UNL d   1     -46.995  30.816  36.327  0.00  0.00    -0.266 OA
BRANCH  12  14
ATOM     14  C   UNL d   1     -47.273  32.237  34.699  0.00  0.00     0.194 A 
ATOM     15  N   UNL d   1     -46.839  32.243  33.998  0.00  0.00    -0.107 NA
ATOM     16  O   UNL d   1     -47.293  32.625  33.426  0.00  0.00    -0.210 OA
ATOM     17  C   UNL d   1     -48.001  32.857  33.758  0.00  0.00     0.128 A 
ATOM     18  C   UNL d   1     -47.994  32.618  34.549  0.00  0.00     0.068 A 
ATOM     19  C   UNL d   1     -48.615  33.261  33.366  0.00  0.00     0.029 C 
ENDBRANCH  12  14
ENDBRANCH   1  11
TORSDOF 9
ENDMDL
