MODEL 1
REMARK VINA RESULT:      36.9      0.000      0.000
REMARK  6 active torsions:
REMARK  status: ('A' for Active; 'I' for Inactive)
REMARK    1  A    between atoms: C_16  and  N_1 
REMARK    2  A    between atoms: C_11  and  C_2 
REMARK    3  A    between atoms: S_15  and  C_3 
REMARK    4  A    between atoms: C_8  and  C_11 
REMARK    5  A    between atoms: C_13  and  C_17 
REMARK       I    between atoms: N_14  and  C_13 
REMARK    6  A    between atoms: C_17  and  S_15 
ROOT
ATOM      1  N   UNL d   1      46.468 -18.286  43.154  0.00  0.00    -0.269 N 
ATOM      2  C   UNL d   1      46.530 -18.269  42.333  0.00  0.00     0.172 A 
ATOM      3  C   UNL d   1      46.443 -17.517  43.414  0.00  0.00     0.201 A 
ATOM      4  N   UNL d   1      46.542 -17.484  42.100  0.00  0.00    -0.128 NA
ATOM      5  N   UNL d   1      46.487 -17.013  42.777  0.00  0.00    -0.121 NA
ENDROOT
BRANCH   2   6
ATOM      6  C   UNL d   1      46.566 -18.964  41.912  0.00  0.00     0.059 C 
BRANCH   6   7
ATOM      7  C   UNL d   1      46.463 -18.951  41.095  0.00  0.00     0.094 A 
ATOM      8  C   UNL d   1      46.595 -19.631  40.653  0.00  0.00     0.082 A 
ATOM      9  C   UNL d   1      46.491 -19.616  39.833  0.00  0.00     0.285 A 
ATOM     10  O   UNL d   1      46.625 -20.311  39.374  0.00  0.00    -0.265 OA
ATOM     11  N   UNL d   1      46.252 -18.905  39.466  0.00  0.00    -0.152 NA
ATOM     12  C   UNL d   1      46.122 -18.231  39.908  0.00  0.00     0.371 A 
ATOM     13  N   UNL d   1      46.229 -18.253  40.734  0.00  0.00    -0.191 NA
ATOM     14  O   UNL d   1      45.886 -17.532  39.534  0.00  0.00    -0.242 OA
ENDBRANCH   6   7
ENDBRANCH   2   6
BRANCH   1  15
ATOM     15  C   UNL d   1      46.435 -18.940  43.649  0.00  0.00     0.067 A 
ATOM     16  C   UNL d   1      46.635 -18.859  44.450  0.00  0.00     0.018 A 
ATOM     17  C   UNL d   1      46.602 -19.522  44.955  0.00  0.00     0.002 A 
ATOM     18  C   UNL d   1      46.372 -20.254  44.651  0.00  0.00     0.000 A 
ATOM     19  C   UNL d   1      46.173 -20.329  43.850  0.00  0.00     0.002 A 
ATOM     20  C   UNL d   1      46.206 -19.672  43.353  0.00  0.00     0.018 A 
ENDBRANCH   1  15
BRANCH   3  21
ATOM     21  S   UNL d   1      46.381 -17.283  44.223  0.00  0.00    -0.043 SA
BRANCH  21  22
ATOM     22  C   UNL d   1      46.379 -16.470  44.417  0.00  0.00     0.099 C 
BRANCH  22  23
ATOM     23  C   UNL d   1      45.666 -16.101  44.620  0.00  0.00     0.271 C 
ATOM     24  N   UNL d   1      45.630 -15.274  44.659  0.00  0.00    -0.272 N 
ATOM     25  C   UNL d   1      46.209 -14.689  44.525  0.00  0.00     0.083 A 
ATOM     26  C   UNL d   1      44.922 -14.895  44.862  0.00  0.00     0.083 A 
ATOM     27  C   UNL d   1      45.854 -13.954  44.646  0.00  0.00     0.021 A 
ATOM     28  C   UNL d   1      45.061 -14.084  44.853  0.00  0.00     0.021 A 
ATOM     29  O   UNL d   1      44.988 -16.551  44.786  0.00  0.00    -0.266 OA
ENDBRANCH  22  23
ENDBRANCH  21  22
ENDBRANCH   3  21
TORSDOF 6
ENDMDL
