MODEL 1
REMARK VINA RESULT:      71.4      0.000      0.000
REMARK  6 active torsions:
REMARK  status: ('A' for Active; 'I' for Inactive)
REMARK    1  A    between atoms: N_5  and  S_1 
REMARK    2  A    between atoms: C_8  and  S_1 
REMARK    3  A    between atoms: C_2  and  C_14 
REMARK    4  A    between atoms: C_7  and  N_5 
REMARK    5  A    between atoms: C_6  and  C_7 
REMARK       I    between atoms: N_11  and  C_6 
REMARK    6  A    between atoms: C_19  and  N_11 
ROOT
ATOM      1  C   UNL d   1     -48.461  29.017  34.891  0.00  0.00     0.298 C 
ATOM      2  N   UNL d   1     -48.267  28.301  34.556  0.00  0.00    -0.207 NA
ATOM      3  O   UNL d   1     -49.253  29.209  35.043  0.00  0.00    -0.264 OA
ENDROOT
BRANCH   2   4
ATOM      4  C   UNL d   1     -48.862  27.762  34.366  0.00  0.00     0.085 A 
ATOM      5  C   UNL d   1     -49.457  27.609  34.913  0.00  0.00     0.019 A 
ATOM      6  C   UNL d   1     -50.065  27.067  34.735  0.00  0.00     0.004 A 
ATOM      7  C   UNL d   1     -50.070  26.680  34.009  0.00  0.00     0.024 A 
ATOM      8  C   UNL d   1     -49.473  26.832  33.459  0.00  0.00     0.004 A 
ATOM      9  C   UNL d   1     -48.869  27.369  33.631  0.00  0.00     0.019 A 
BRANCH   7  10
ATOM     10  C   UNL d   1     -50.680  26.142  33.844  0.00  0.00     0.111 A 
ATOM     11  N   UNL d   1     -50.551  25.337  33.751  0.00  0.00    -0.239 NA
ATOM     12  C   UNL d   1     -51.276  24.973  33.593  0.00  0.00     0.088 A 
ATOM     13  C   UNL d   1     -51.483  24.189  33.454  0.00  0.00     0.020 A 
ATOM     14  C   UNL d   1     -51.856  25.560  33.589  0.00  0.00     0.049 A 
ATOM     15  C   UNL d   1     -52.270  23.991  33.310  0.00  0.00     0.002 A 
ATOM     16  C   UNL d   1     -52.849  24.579  33.306  0.00  0.00     0.001 A 
ATOM     17  C   UNL d   1     -52.642  25.364  33.445  0.00  0.00     0.008 A 
ATOM     18  S   UNL d   1     -51.485  26.284  33.745  0.00  0.00    -0.066 SA
ENDBRANCH   7  10
ENDBRANCH   2   4
BRANCH   1  19
ATOM     19  C   UNL d   1     -47.871  29.562  35.084  0.00  0.00     0.151 C 
ATOM     20  C   UNL d   1     -47.308  29.388  35.659  0.00  0.00     0.027 C 
BRANCH  19  21
ATOM     21  N   UNL d   1     -47.652  30.326  34.839  0.00  0.00    -0.153 NA
BRANCH  21  22
ATOM     22  S   UNL d   1     -47.369  30.865  35.391  0.00  0.00     0.285 S 
ATOM     23  O   UNL d   1     -47.338  30.274  35.945  0.00  0.00    -0.198 OA
ATOM     24  O   UNL d   1     -47.087  31.397  35.940  0.00  0.00    -0.198 OA
BRANCH  22  25
ATOM     25  C   UNL d   1     -47.403  31.463  34.817  0.00  0.00     0.106 A 
ATOM     26  C   UNL d   1     -48.099  31.894  34.703  0.00  0.00     0.024 A 
ATOM     27  C   UNL d   1     -48.121  32.495  34.120  0.00  0.00     0.059 A 
ATOM     28 CL   UNL d   1     -48.820  32.927  34.007  0.00  0.00    -0.082 Cl
ATOM     29  C   UNL d   1     -47.454  32.655  33.664  0.00  0.00     0.011 A 
ATOM     30  C   UNL d   1     -46.762  32.224  33.780  0.00  0.00     0.002 A 
ATOM     31  C   UNL d   1     -46.740  31.622  34.363  0.00  0.00     0.013 A 
ENDBRANCH  22  25
ENDBRANCH  21  22
ENDBRANCH  19  21
ENDBRANCH   1  19
TORSDOF 6
ENDMDL
