MODEL 1
REMARK VINA RESULT:      -2.9      0.000      0.000
REMARK  7 active torsions:
REMARK  status: ('A' for Active; 'I' for Inactive)
REMARK    1  A    between atoms: C_3  and  C_1 
REMARK    2  A    between atoms: O_13  and  C_1 
REMARK       I    between atoms: C_2  and  N_7 
REMARK    3  A    between atoms: C_4  and  C_2 
REMARK    4  A    between atoms: C_6  and  C_4 
REMARK    5  A    between atoms: C_5  and  C_6 
REMARK    6  A    between atoms: O_14  and  C_5 
REMARK    7  A    between atoms: N_7  and  C_9 
ROOT
ATOM      1  C   UNL d   1      32.780  20.769 -21.557  0.00  0.00     0.063 A 
ATOM      2  C   UNL d   1      32.780  19.946 -21.661  0.00  0.00     0.023 A 
ATOM      3  C   UNL d   1      33.011  19.630 -22.384  0.00  0.00     0.059 A 
ATOM      4  C   UNL d   1      33.010  21.270 -22.171  0.00  0.00     0.006 A 
ATOM      5  C   UNL d   1      33.239  20.949 -22.889  0.00  0.00     0.002 A 
ATOM      6  C   UNL d   1      33.241  20.131 -22.998  0.00  0.00     0.017 A 
ENDROOT
BRANCH   3   7
ATOM      7  N   UNL d   1      33.014  18.814 -22.497  0.00  0.00    -0.321 N 
ATOM      8  C   UNL d   1      32.546  18.476 -23.071  0.00  0.00     0.258 C 
ATOM      9  O   UNL d   1      32.073  18.960 -23.533  0.00  0.00    -0.267 OA
ATOM     10  H   UNL d   1      33.491  18.339 -22.030  0.00  0.00     0.169 HD
BRANCH   8  11
ATOM     11  C   UNL d   1      32.553  17.671 -23.178  0.00  0.00     0.067 C 
BRANCH  11  12
ATOM     12  C   UNL d   1      31.948  17.312 -23.594  0.00  0.00     0.072 C 
BRANCH  12  13
ATOM     13  C   UNL d   1      31.808  16.503 -23.514  0.00  0.00     0.178 C 
ATOM     14  O   UNL d   1      32.371  15.965 -23.781  0.00  0.00    -0.646 OA
BRANCH  13  15
ATOM     15  O   UNL d   1      31.109  16.229 -23.168  0.00  0.00    -0.773 OA
ATOM     16  H   UNL d   1      30.385  16.401 -23.531  0.00  0.00     0.167 HD
ENDBRANCH  13  15
ENDBRANCH  12  13
ENDBRANCH  11  12
ENDBRANCH   8  11
ENDBRANCH   3   7
BRANCH   1  17
ATOM     17  C   UNL d   1      32.547  21.083 -20.830  0.00  0.00     0.178 C 
ATOM     18  O   UNL d   1      33.110  21.358 -20.293  0.00  0.00    -0.646 OA
BRANCH  17  19
ATOM     19  O   UNL d   1      31.745  21.120 -20.641  0.00  0.00    -0.773 OA
ATOM     20  H   UNL d   1      31.502  21.422 -19.913  0.00  0.00     0.167 HD
ENDBRANCH  17  19
ENDBRANCH   1  17
TORSDOF 7
ENDMDL
MODEL 2
REMARK VINA RESULT:      -2.9      0.923      4.254
REMARK  7 active torsions:
REMARK  status: ('A' for Active; 'I' for Inactive)
REMARK    1  A    between atoms: C_3  and  C_1 
REMARK    2  A    between atoms: O_13  and  C_1 
REMARK       I    between atoms: C_2  and  N_7 
REMARK    3  A    between atoms: C_4  and  C_2 
REMARK    4  A    between atoms: C_6  and  C_4 
REMARK    5  A    between atoms: C_5  and  C_6 
REMARK    6  A    between atoms: O_14  and  C_5 
REMARK    7  A    between atoms: N_7  and  C_9 
ROOT
ATOM      1  C   UNL d   1      31.851  16.888 -23.817  0.00  0.00     0.063 A 
ATOM      2  C   UNL d   1      31.861  17.678 -23.567  0.00  0.00     0.023 A 
ATOM      3  C   UNL d   1      32.558  18.110 -23.617  0.00  0.00     0.059 A 
ATOM      4  C   UNL d   1      32.534  16.534 -24.115  0.00  0.00     0.006 A 
ATOM      5  C   UNL d   1      33.226  16.968 -24.163  0.00  0.00     0.002 A 
ATOM      6  C   UNL d   1      33.241  17.756 -23.915  0.00  0.00     0.017 A 
ENDROOT
BRANCH   3   7
ATOM      7  N   UNL d   1      32.578  18.896 -23.371  0.00  0.00    -0.321 N 
ATOM      8  C   UNL d   1      32.905  19.095 -22.652  0.00  0.00     0.258 C 
ATOM      9  O   UNL d   1      33.214  18.501 -22.179  0.00  0.00    -0.267 OA
ATOM     10  H   UNL d   1      32.267  19.482 -23.852  0.00  0.00     0.169 HD
BRANCH   8  11
ATOM     11  C   UNL d   1      32.922  19.871 -22.415  0.00  0.00     0.067 C 
BRANCH  11  12
ATOM     12  C   UNL d   1      33.020  20.051 -21.624  0.00  0.00     0.072 C 
BRANCH  12  13
ATOM     13  C   UNL d   1      32.792  20.788 -21.331  0.00  0.00     0.178 C 
ATOM     14  O   UNL d   1      32.974  21.468 -21.758  0.00  0.00    -0.646 OA
BRANCH  13  15
ATOM     15  O   UNL d   1      32.384  20.848 -20.616  0.00  0.00    -0.773 OA
ATOM     16  H   UNL d   1      32.019  21.565 -20.419  0.00  0.00     0.167 HD
ENDBRANCH  13  15
ENDBRANCH  12  13
ENDBRANCH  11  12
ENDBRANCH   8  11
ENDBRANCH   3   7
BRANCH   1  17
ATOM     17  C   UNL d   1      31.148  16.458 -23.765  0.00  0.00     0.178 C 
ATOM     18  O   UNL d   1      30.761  16.202 -24.447  0.00  0.00    -0.646 OA
BRANCH  17  19
ATOM     19  O   UNL d   1      30.832  16.284 -23.023  0.00  0.00    -0.773 OA
ATOM     20  H   UNL d   1      30.056  16.012 -22.954  0.00  0.00     0.167 HD
ENDBRANCH  17  19
ENDBRANCH   1  17
TORSDOF 7
ENDMDL
MODEL 3
REMARK VINA RESULT:      -2.9      2.109      3.257
REMARK  7 active torsions:
REMARK  status: ('A' for Active; 'I' for Inactive)
REMARK    1  A    between atoms: C_3  and  C_1 
REMARK    2  A    between atoms: O_13  and  C_1 
REMARK       I    between atoms: C_2  and  N_7 
REMARK    3  A    between atoms: C_4  and  C_2 
REMARK    4  A    between atoms: C_6  and  C_4 
REMARK    5  A    between atoms: C_5  and  C_6 
REMARK    6  A    between atoms: O_14  and  C_5 
REMARK    7  A    between atoms: N_7  and  C_9 
ROOT
ATOM      1  C   UNL d   1      32.699  18.408 -23.653  0.00  0.00     0.063 A 
ATOM      2  C   UNL d   1      32.052  17.935 -23.443  0.00  0.00     0.023 A 
ATOM      3  C   UNL d   1      31.790  17.353 -23.961  0.00  0.00     0.059 A 
ATOM      4  C   UNL d   1      33.081  18.299 -24.377  0.00  0.00     0.006 A 
ATOM      5  C   UNL d   1      32.817  17.718 -24.889  0.00  0.00     0.002 A 
ATOM      6  C   UNL d   1      32.173  17.244 -24.684  0.00  0.00     0.017 A 
ENDROOT
BRANCH   3   7
ATOM      7  N   UNL d   1      31.149  16.878 -23.761  0.00  0.00    -0.321 N 
ATOM      8  C   UNL d   1      30.428  16.981 -24.127  0.00  0.00     0.258 C 
ATOM      9  O   UNL d   1      30.354  17.566 -24.696  0.00  0.00    -0.267 OA
ATOM     10  H   UNL d   1      31.234  16.296 -23.190  0.00  0.00     0.169 HD
BRANCH   8  11
ATOM     11  C   UNL d   1      29.798  16.510 -23.926  0.00  0.00     0.067 C 
BRANCH  11  12
ATOM     12  C   UNL d   1      29.038  16.756 -24.094  0.00  0.00     0.072 C 
BRANCH  12  13
ATOM     13  C   UNL d   1      28.397  16.448 -23.676  0.00  0.00     0.178 C 
ATOM     14  O   UNL d   1      28.135  15.684 -23.839  0.00  0.00    -0.646 OA
BRANCH  13  15
ATOM     15  O   UNL d   1      28.016  16.898 -23.098  0.00  0.00    -0.773 OA
ATOM     16  H   UNL d   1      27.991  17.722 -23.179  0.00  0.00     0.167 HD
ENDBRANCH  13  15
ENDBRANCH  12  13
ENDBRANCH  11  12
ENDBRANCH   8  11
ENDBRANCH   3   7
BRANCH   1  17
ATOM     17  C   UNL d   1      32.958  18.992 -23.130  0.00  0.00     0.178 C 
ATOM     18  O   UNL d   1      33.241  19.713 -23.414  0.00  0.00    -0.646 OA
BRANCH  17  19
ATOM     19  O   UNL d   1      32.933  18.850 -22.318  0.00  0.00    -0.773 OA
ATOM     20  H   UNL d   1      32.282  18.471 -21.981  0.00  0.00     0.167 HD
ENDBRANCH  17  19
ENDBRANCH   1  17
TORSDOF 7
ENDMDL
MODEL 4
REMARK VINA RESULT:      -2.5      2.230      4.964
REMARK  7 active torsions:
REMARK  status: ('A' for Active; 'I' for Inactive)
REMARK    1  A    between atoms: C_3  and  C_1 
REMARK    2  A    between atoms: O_13  and  C_1 
REMARK       I    between atoms: C_2  and  N_7 
REMARK    3  A    between atoms: C_4  and  C_2 
REMARK    4  A    between atoms: C_6  and  C_4 
REMARK    5  A    between atoms: C_5  and  C_6 
REMARK    6  A    between atoms: O_14  and  C_5 
REMARK    7  A    between atoms: N_7  and  C_9 
ROOT
ATOM      1  C   UNL d   1      29.081  16.083 -23.959  0.00  0.00     0.063 A 
ATOM      2  C   UNL d   1      29.762  16.404 -23.614  0.00  0.00     0.023 A 
ATOM      3  C   UNL d   1      30.492  16.288 -23.975  0.00  0.00     0.059 A 
ATOM      4  C   UNL d   1      29.129  15.648 -24.658  0.00  0.00     0.006 A 
ATOM      5  C   UNL d   1      29.858  15.535 -25.014  0.00  0.00     0.002 A 
ATOM      6  C   UNL d   1      30.540  15.853 -24.674  0.00  0.00     0.017 A 
ENDROOT
BRANCH   3   7
ATOM      7  N   UNL d   1      31.174  16.604 -23.641  0.00  0.00    -0.321 N 
ATOM      8  C   UNL d   1      31.474  17.313 -23.906  0.00  0.00     0.258 C 
ATOM      9  O   UNL d   1      31.085  17.706 -24.510  0.00  0.00    -0.267 OA
ATOM     10  H   UNL d   1      31.556  16.202 -23.037  0.00  0.00     0.169 HD
BRANCH   8  11
ATOM     11  C   UNL d   1      32.148  17.620 -23.572  0.00  0.00     0.067 C 
BRANCH  11  12
ATOM     12  C   UNL d   1      32.334  18.407 -23.686  0.00  0.00     0.072 C 
BRANCH  12  13
ATOM     13  C   UNL d   1      32.889  18.780 -23.202  0.00  0.00     0.178 C 
ATOM     14  O   UNL d   1      33.241  19.480 -23.453  0.00  0.00    -0.646 OA
BRANCH  13  15
ATOM     15  O   UNL d   1      33.092  18.456 -22.470  0.00  0.00    -0.773 OA
ATOM     16  H   UNL d   1      32.710  18.730 -21.788  0.00  0.00     0.167 HD
ENDBRANCH  13  15
ENDBRANCH  12  13
ENDBRANCH  11  12
ENDBRANCH   8  11
ENDBRANCH   3   7
BRANCH   1  17
ATOM     17  C   UNL d   1      28.350  16.202 -23.593  0.00  0.00     0.178 C 
ATOM     18  O   UNL d   1      27.777  15.608 -23.598  0.00  0.00    -0.646 OA
BRANCH  17  19
ATOM     19  O   UNL d   1      28.194  16.922 -23.221  0.00  0.00    -0.773 OA
ATOM     20  H   UNL d   1      27.985  17.584 -23.666  0.00  0.00     0.167 HD
ENDBRANCH  17  19
ENDBRANCH   1  17
TORSDOF 7
ENDMDL
MODEL 5
REMARK VINA RESULT:      -2.3      1.658      2.686
REMARK  7 active torsions:
REMARK  status: ('A' for Active; 'I' for Inactive)
REMARK    1  A    between atoms: C_3  and  C_1 
REMARK    2  A    between atoms: O_13  and  C_1 
REMARK       I    between atoms: C_2  and  N_7 
REMARK    3  A    between atoms: C_4  and  C_2 
REMARK    4  A    between atoms: C_6  and  C_4 
REMARK    5  A    between atoms: C_5  and  C_6 
REMARK    6  A    between atoms: O_14  and  C_5 
REMARK    7  A    between atoms: N_7  and  C_9 
ROOT
ATOM      1  C   UNL d   1      32.810  22.756 -19.925  0.00  0.00     0.063 A 
ATOM      2  C   UNL d   1      33.049  22.009 -20.194  0.00  0.00     0.023 A 
ATOM      3  C   UNL d   1      33.005  21.834 -20.996  0.00  0.00     0.059 A 
ATOM      4  C   UNL d   1      32.528  23.322 -20.455  0.00  0.00     0.006 A 
ATOM      5  C   UNL d   1      32.486  23.143 -21.253  0.00  0.00     0.002 A 
ATOM      6  C   UNL d   1      32.723  22.400 -21.525  0.00  0.00     0.017 A 
ENDROOT
BRANCH   3   7
ATOM      7  N   UNL d   1      33.240  21.095 -21.272  0.00  0.00    -0.321 N 
ATOM      8  C   UNL d   1      32.686  20.548 -21.509  0.00  0.00     0.258 C 
ATOM      9  O   UNL d   1      31.891  20.744 -21.467  0.00  0.00    -0.267 OA
ATOM     10  H   UNL d   1      34.037  20.908 -21.310  0.00  0.00     0.169 HD
BRANCH   8  11
ATOM     11  C   UNL d   1      32.923  19.820 -21.781  0.00  0.00     0.067 C 
BRANCH  11  12
ATOM     12  C   UNL d   1      32.908  19.662 -22.583  0.00  0.00     0.072 C 
BRANCH  12  13
ATOM     13  C   UNL d   1      32.879  18.884 -22.855  0.00  0.00     0.178 C 
ATOM     14  O   UNL d   1      32.586  18.728 -23.608  0.00  0.00    -0.646 OA
BRANCH  13  15
ATOM     15  O   UNL d   1      33.142  18.262 -22.379  0.00  0.00    -0.773 OA
ATOM     16  H   UNL d   1      33.844  18.351 -21.949  0.00  0.00     0.167 HD
ENDBRANCH  13  15
ENDBRANCH  12  13
ENDBRANCH  11  12
ENDBRANCH   8  11
ENDBRANCH   3   7
BRANCH   1  17
ATOM     17  C   UNL d   1      32.856  22.928 -19.119  0.00  0.00     0.178 C 
ATOM     18  O   UNL d   1      32.987  23.701 -18.862  0.00  0.00    -0.646 OA
BRANCH  17  19
ATOM     19  O   UNL d   1      32.770  22.320 -18.568  0.00  0.00    -0.773 OA
ATOM     20  H   UNL d   1      33.371  22.161 -18.026  0.00  0.00     0.167 HD
ENDBRANCH  17  19
ENDBRANCH   1  17
TORSDOF 7
ENDMDL
MODEL 6
REMARK VINA RESULT:      -2.3      1.510      2.283
REMARK  7 active torsions:
REMARK  status: ('A' for Active; 'I' for Inactive)
REMARK    1  A    between atoms: C_3  and  C_1 
REMARK    2  A    between atoms: O_13  and  C_1 
REMARK       I    between atoms: C_2  and  N_7 
REMARK    3  A    between atoms: C_4  and  C_2 
REMARK    4  A    between atoms: C_6  and  C_4 
REMARK    5  A    between atoms: C_5  and  C_6 
REMARK    6  A    between atoms: O_14  and  C_5 
REMARK    7  A    between atoms: N_7  and  C_9 
ROOT
ATOM      1  C   UNL d   1      32.382  22.568 -21.240  0.00  0.00     0.063 A 
ATOM      2  C   UNL d   1      32.611  22.004 -21.803  0.00  0.00     0.023 A 
ATOM      3  C   UNL d   1      33.009  21.327 -21.559  0.00  0.00     0.059 A 
ATOM      4  C   UNL d   1      32.549  22.455 -20.440  0.00  0.00     0.006 A 
ATOM      5  C   UNL d   1      32.945  21.779 -20.202  0.00  0.00     0.002 A 
ATOM      6  C   UNL d   1      33.176  21.214 -20.759  0.00  0.00     0.017 A 
ENDROOT
BRANCH   3   7
ATOM      7  N   UNL d   1      33.241  20.761 -22.110  0.00  0.00    -0.321 N 
ATOM      8  C   UNL d   1      32.834  20.059 -22.177  0.00  0.00     0.258 C 
ATOM      9  O   UNL d   1      32.190  19.926 -21.687  0.00  0.00    -0.267 OA
ATOM     10  H   UNL d   1      33.886  20.904 -22.595  0.00  0.00     0.169 HD
BRANCH   8  11
ATOM     11  C   UNL d   1      33.067  19.504 -22.722  0.00  0.00     0.067 C 
BRANCH  11  12
ATOM     12  C   UNL d   1      32.542  18.926 -22.962  0.00  0.00     0.072 C 
BRANCH  12  13
ATOM     13  C   UNL d   1      32.717  18.445 -23.609  0.00  0.00     0.178 C 
ATOM     14  O   UNL d   1      32.535  18.706 -24.369  0.00  0.00    -0.646 OA
BRANCH  13  15
ATOM     15  O   UNL d   1      33.072  17.708 -23.502  0.00  0.00    -0.773 OA
ATOM     16  H   UNL d   1      32.792  17.058 -23.931  0.00  0.00     0.167 HD
ENDBRANCH  13  15
ENDBRANCH  12  13
ENDBRANCH  11  12
ENDBRANCH   8  11
ENDBRANCH   3   7
BRANCH   1  17
ATOM     17  C   UNL d   1      31.982  23.246 -21.490  0.00  0.00     0.178 C 
ATOM     18  O   UNL d   1      32.261  23.685 -22.130  0.00  0.00    -0.646 OA
BRANCH  17  19
ATOM     19  O   UNL d   1      31.300  23.485 -21.093  0.00  0.00    -0.773 OA
ATOM     20  H   UNL d   1      30.903  24.171 -21.322  0.00  0.00     0.167 HD
ENDBRANCH  17  19
ENDBRANCH   1  17
TORSDOF 7
ENDMDL
MODEL 7
REMARK VINA RESULT:      -2.0      4.053      4.914
REMARK  7 active torsions:
REMARK  status: ('A' for Active; 'I' for Inactive)
REMARK    1  A    between atoms: C_3  and  C_1 
REMARK    2  A    between atoms: O_13  and  C_1 
REMARK       I    between atoms: C_2  and  N_7 
REMARK    3  A    between atoms: C_4  and  C_2 
REMARK    4  A    between atoms: C_6  and  C_4 
REMARK    5  A    between atoms: C_5  and  C_6 
REMARK    6  A    between atoms: O_14  and  C_5 
REMARK    7  A    between atoms: N_7  and  C_9 
ROOT
ATOM      1  C   UNL d   1      28.523  17.120 -23.854  0.00  0.00     0.063 A 
ATOM      2  C   UNL d   1      29.276  16.893 -24.116  0.00  0.00     0.023 A 
ATOM      3  C   UNL d   1      29.509  16.108 -24.049  0.00  0.00     0.059 A 
ATOM      4  C   UNL d   1      28.008  16.564 -23.527  0.00  0.00     0.006 A 
ATOM      5  C   UNL d   1      28.244  15.783 -23.463  0.00  0.00     0.002 A 
ATOM      6  C   UNL d   1      28.994  15.553 -23.722  0.00  0.00     0.017 A 
ENDROOT
BRANCH   3   7
ATOM      7  N   UNL d   1      30.255  15.873 -24.307  0.00  0.00    -0.321 N 
ATOM      8  C   UNL d   1      30.837  15.685 -23.769  0.00  0.00     0.258 C 
ATOM      9  O   UNL d   1      30.667  15.733 -22.969  0.00  0.00    -0.267 OA
ATOM     10  H   UNL d   1      30.414  15.829 -25.109  0.00  0.00     0.169 HD
BRANCH   8  11
ATOM     11  C   UNL d   1      31.571  15.454 -24.029  0.00  0.00     0.067 C 
BRANCH  11  12
ATOM     12  C   UNL d   1      32.236  15.664 -23.603  0.00  0.00     0.072 C 
BRANCH  12  13
ATOM     13  C   UNL d   1      32.879  16.018 -23.980  0.00  0.00     0.178 C 
ATOM     14  O   UNL d   1      33.160  15.701 -24.686  0.00  0.00    -0.646 OA
BRANCH  13  15
ATOM     15  O   UNL d   1      33.241  16.686 -23.656  0.00  0.00    -0.773 OA
ATOM     16  H   UNL d   1      33.433  17.321 -24.152  0.00  0.00     0.167 HD
ENDBRANCH  13  15
ENDBRANCH  12  13
ENDBRANCH  11  12
ENDBRANCH   8  11
ENDBRANCH   3   7
BRANCH   1  17
ATOM     17  C   UNL d   1      28.293  17.910 -23.923  0.00  0.00     0.178 C 
ATOM     18  O   UNL d   1      28.381  18.311 -24.638  0.00  0.00    -0.646 OA
BRANCH  17  19
ATOM     19  O   UNL d   1      27.973  18.299 -23.269  0.00  0.00    -0.773 OA
ATOM     20  H   UNL d   1      27.279  18.023 -22.919  0.00  0.00     0.167 HD
ENDBRANCH  17  19
ENDBRANCH   1  17
TORSDOF 7
ENDMDL
MODEL 8
REMARK VINA RESULT:      -0.7      3.620      5.892
REMARK  7 active torsions:
REMARK  status: ('A' for Active; 'I' for Inactive)
REMARK    1  A    between atoms: C_3  and  C_1 
REMARK    2  A    between atoms: O_13  and  C_1 
REMARK       I    between atoms: C_2  and  N_7 
REMARK    3  A    between atoms: C_4  and  C_2 
REMARK    4  A    between atoms: C_6  and  C_4 
REMARK    5  A    between atoms: C_5  and  C_6 
REMARK    6  A    between atoms: O_14  and  C_5 
REMARK    7  A    between atoms: N_7  and  C_9 
ROOT
ATOM      1  C   UNL d   1      32.606  22.371 -21.754  0.00  0.00     0.063 A 
ATOM      2  C   UNL d   1      32.509  22.870 -21.099  0.00  0.00     0.023 A 
ATOM      3  C   UNL d   1      32.592  22.563 -20.341  0.00  0.00     0.059 A 
ATOM      4  C   UNL d   1      32.784  21.572 -21.650  0.00  0.00     0.006 A 
ATOM      5  C   UNL d   1      32.866  21.271 -20.893  0.00  0.00     0.002 A 
ATOM      6  C   UNL d   1      32.770  21.764 -20.237  0.00  0.00     0.017 A 
ENDROOT
BRANCH   3   7
ATOM      7  N   UNL d   1      32.497  23.050 -19.684  0.00  0.00    -0.321 N 
ATOM      8  C   UNL d   1      32.751  22.806 -18.949  0.00  0.00     0.258 C 
ATOM      9  O   UNL d   1      33.101  22.069 -18.876  0.00  0.00    -0.267 OA
ATOM     10  H   UNL d   1      32.146  23.785 -19.768  0.00  0.00     0.169 HD
BRANCH   8  11
ATOM     11  C   UNL d   1      32.655  23.291 -18.304  0.00  0.00     0.067 C 
BRANCH  11  12
ATOM     12  C   UNL d   1      32.554  22.963 -17.563  0.00  0.00     0.072 C 
BRANCH  12  13
ATOM     13  C   UNL d   1      32.539  23.444 -16.892  0.00  0.00     0.178 C 
ATOM     14  O   UNL d   1      31.816  23.702 -16.595  0.00  0.00    -0.646 OA
BRANCH  13  15
ATOM     15  O   UNL d   1      33.241  23.667 -16.519  0.00  0.00    -0.773 OA
ATOM     16  H   UNL d   1      33.444  23.314 -15.798  0.00  0.00     0.167 HD
ENDBRANCH  13  15
ENDBRANCH  12  13
ENDBRANCH  11  12
ENDBRANCH   8  11
ENDBRANCH   3   7
BRANCH   1  17
ATOM     17  C   UNL d   1      32.522  22.683 -22.514  0.00  0.00     0.178 C 
ATOM     18  O   UNL d   1      32.840  22.290 -23.166  0.00  0.00    -0.646 OA
BRANCH  17  19
ATOM     19  O   UNL d   1      32.116  23.394 -22.619  0.00  0.00    -0.773 OA
ATOM     20  H   UNL d   1      31.651  23.702 -22.011  0.00  0.00     0.167 HD
ENDBRANCH  17  19
ENDBRANCH   1  17
TORSDOF 7
ENDMDL
MODEL 9
REMARK VINA RESULT:      -0.1      2.054      4.516
REMARK  7 active torsions:
REMARK  status: ('A' for Active; 'I' for Inactive)
REMARK    1  A    between atoms: C_3  and  C_1 
REMARK    2  A    between atoms: O_13  and  C_1 
REMARK       I    between atoms: C_2  and  N_7 
REMARK    3  A    between atoms: C_4  and  C_2 
REMARK    4  A    between atoms: C_6  and  C_4 
REMARK    5  A    between atoms: C_5  and  C_6 
REMARK    6  A    between atoms: O_14  and  C_5 
REMARK    7  A    between atoms: N_7  and  C_9 
ROOT
ATOM      1  C   UNL d   1      31.231  17.240 -24.384  0.00  0.00     0.063 A 
ATOM      2  C   UNL d   1      31.482  17.999 -24.601  0.00  0.00     0.023 A 
ATOM      3  C   UNL d   1      32.239  18.248 -24.401  0.00  0.00     0.059 A 
ATOM      4  C   UNL d   1      31.734  16.733 -23.970  0.00  0.00     0.006 A 
ATOM      5  C   UNL d   1      32.488  16.986 -23.773  0.00  0.00     0.002 A 
ATOM      6  C   UNL d   1      32.742  17.742 -23.987  0.00  0.00     0.017 A 
ENDROOT
BRANCH   3   7
ATOM      7  N   UNL d   1      32.498  19.000 -24.613  0.00  0.00    -0.321 N 
ATOM      8  C   UNL d   1      32.989  19.422 -24.118  0.00  0.00     0.258 C 
ATOM      9  O   UNL d   1      33.220  19.085 -23.408  0.00  0.00    -0.267 OA
ATOM     10  H   UNL d   1      32.261  19.328 -25.325  0.00  0.00     0.169 HD
BRANCH   8  11
ATOM     11  C   UNL d   1      33.241  20.164 -24.331  0.00  0.00     0.067 C 
BRANCH  11  12
ATOM     12  C   UNL d   1      33.073  20.803 -23.851  0.00  0.00     0.072 C 
BRANCH  12  13
ATOM     13  C   UNL d   1      33.028  21.563 -24.167  0.00  0.00     0.178 C 
ATOM     14  O   UNL d   1      33.011  21.662 -24.984  0.00  0.00    -0.646 OA
BRANCH  13  15
ATOM     15  O   UNL d   1      33.001  22.224 -23.672  0.00  0.00    -0.773 OA
ATOM     16  H   UNL d   1      32.430  22.256 -23.074  0.00  0.00     0.167 HD
ENDBRANCH  13  15
ENDBRANCH  12  13
ENDBRANCH  11  12
ENDBRANCH   8  11
ENDBRANCH   3   7
BRANCH   1  17
ATOM     17  C   UNL d   1      30.469  16.993 -24.587  0.00  0.00     0.178 C 
ATOM     18  O   UNL d   1      29.809  17.408 -24.318  0.00  0.00    -0.646 OA
BRANCH  17  19
ATOM     19  O   UNL d   1      30.370  16.327 -25.063  0.00  0.00    -0.773 OA
ATOM     20  H   UNL d   1      30.617  15.585 -24.798  0.00  0.00     0.167 HD
ENDBRANCH  17  19
ENDBRANCH   1  17
TORSDOF 7
ENDMDL
