MODEL 1
REMARK VINA RESULT:      65.3      0.000      0.000
REMARK  4 active torsions:
REMARK  status: ('A' for Active; 'I' for Inactive)
REMARK    1  A    between atoms: N_6  and  S_1 
REMARK    2  A    between atoms: C_10  and  S_1 
REMARK    3  A    between atoms: S_2  and  C_11 
REMARK    4  A    between atoms: N_7  and  S_2 
REMARK       I    between atoms: C_14  and  N_6 
REMARK       I    between atoms: C_15  and  N_7 
ROOT
ATOM      1  C   UNL d   1      13.987  14.097  -3.038  0.00  0.00     0.040 A 
ATOM      2  C   UNL d   1      14.531  14.935  -2.161  0.00  0.00     0.040 A 
ATOM      3  C   UNL d   1      14.198  14.877  -2.916  0.00  0.00     0.196 A 
ATOM      4  C   UNL d   1      14.520  14.184  -1.829  0.00  0.00     0.003 A 
ATOM      5  C   UNL d   1      14.187  13.665  -2.364  0.00  0.00     0.003 A 
ATOM      6  C   UNL d   1      13.483  12.902  -3.651  0.00  0.00     0.105 A 
ATOM      7  C   UNL d   1      15.135  15.452  -0.991  0.00  0.00     0.105 A 
ATOM      8  C   UNL d   1      13.630  13.707  -3.690  0.00  0.00     0.016 A 
ATOM      9  C   UNL d   1      14.840  15.577  -1.742  0.00  0.00     0.016 A 
ATOM     10  C   UNL d   1      14.819  14.066  -1.070  0.00  0.00     0.001 A 
ATOM     11  C   UNL d   1      14.035  12.851  -2.330  0.00  0.00     0.001 A 
ATOM     12  O   UNL d   1      14.100  15.506  -3.446  0.00  0.00    -0.287 OA
ATOM     13  C   UNL d   1      15.129  14.703  -0.646  0.00  0.00     0.013 A 
ATOM     14  C   UNL d   1      13.682  12.467  -2.976  0.00  0.00     0.013 A 
ENDROOT
BRANCH   6  15
ATOM     15  S   UNL d   1      13.133  12.515  -4.289  0.00  0.00     0.288 S 
ATOM     16  O   UNL d   1      13.491  11.810  -4.046  0.00  0.00    -0.198 OA
ATOM     17  O   UNL d   1      12.769  13.215  -4.541  0.00  0.00    -0.198 OA
BRANCH  15  18
ATOM     18  N   UNL d   1      12.783  12.104  -4.935  0.00  0.00    -0.118 NA
ATOM     19  C   UNL d   1      13.111  12.176  -5.689  0.00  0.00     0.289 C 
ATOM     20  O   UNL d   1      13.784  12.652  -5.809  0.00  0.00    -0.265 OA
ATOM     21  C   UNL d   1      12.778  11.781  -6.318  0.00  0.00     0.068 C 
ENDBRANCH  15  18
ENDBRANCH   6  15
BRANCH   7  22
ATOM     22  S   UNL d   1      15.444  16.094  -0.571  0.00  0.00     0.288 S 
ATOM     23  O   UNL d   1      16.163  15.994  -0.964  0.00  0.00    -0.198 OA
ATOM     24  O   UNL d   1      14.724  16.195  -0.178  0.00  0.00    -0.198 OA
BRANCH  22  25
ATOM     25  N   UNL d   1      15.693  16.744  -0.120  0.00  0.00    -0.118 NA
ATOM     26  C   UNL d   1      15.752  17.486  -0.469  0.00  0.00     0.289 C 
ATOM     27  O   UNL d   1      16.002  18.133  -0.015  0.00  0.00    -0.265 OA
ATOM     28  C   UNL d   1      15.566  17.589  -1.261  0.00  0.00     0.068 C 
ENDBRANCH  22  25
ENDBRANCH   7  22
TORSDOF 4
ENDMDL
