MODEL 1
REMARK VINA RESULT:      35.8      0.000      0.000
REMARK  7 active torsions:
REMARK  status: ('A' for Active; 'I' for Inactive)
REMARK    1  A    between atoms: C_9  and  N_1 
REMARK    2  A    between atoms: O_18  and  C_6 
REMARK    3  A    between atoms: C_7  and  C_8 
REMARK    4  A    between atoms: C_8  and  O_12 
REMARK    5  A    between atoms: O_12  and  C_9 
REMARK    6  A    between atoms: O_20  and  C_10 
REMARK    7  A    between atoms: O_19  and  C_11 
ROOT
ATOM      1  C   UNL d   1      45.132 -17.189  38.967  0.00  0.00     0.302 C 
ATOM      2  O   UNL d   1      44.389 -17.347  39.294  0.00  0.00    -0.259 OA
ENDROOT
BRANCH   1   3
ATOM      3  C   UNL d   1      45.200 -16.685  38.316  0.00  0.00     0.068 A 
ATOM      4  C   UNL d   1      44.561 -16.623  37.770  0.00  0.00     0.032 A 
ATOM      5  C   UNL d   1      44.645 -16.119  37.133  0.00  0.00     0.118 A 
ATOM      6  C   UNL d   1      45.331 -15.679  37.017  0.00  0.00     0.138 A 
ATOM      7  C   UNL d   1      45.949 -15.748  37.559  0.00  0.00     0.118 A 
ATOM      8  C   UNL d   1      45.880 -16.250  38.205  0.00  0.00     0.032 A 
BRANCH   5   9
ATOM      9  O   UNL d   1      44.015 -16.050  36.582  0.00  0.00    -0.326 OA
ATOM     10  C   UNL d   1      43.281 -15.764  36.836  0.00  0.00     0.181 C 
ENDBRANCH   5   9
BRANCH   6  11
ATOM     11  O   UNL d   1      45.394 -15.172  36.360  0.00  0.00    -0.324 OA
ATOM     12  C   UNL d   1      45.332 -14.357  36.440  0.00  0.00     0.182 C 
ENDBRANCH   6  11
BRANCH   7  13
ATOM     13  O   UNL d   1      46.647 -15.303  37.444  0.00  0.00    -0.326 OA
ATOM     14  C   UNL d   1      46.635 -14.488  37.498  0.00  0.00     0.181 C 
ENDBRANCH   7  13
ENDBRANCH   1   3
BRANCH   1  15
ATOM     15  O   UNL d   1      45.809 -17.535  39.290  0.00  0.00    -0.251 OA
BRANCH  15  16
ATOM     16  C   UNL d   1      45.956 -17.470  40.101  0.00  0.00     0.233 C 
BRANCH  16  17
ATOM     17  N   UNL d   1      46.128 -18.148  40.546  0.00  0.00    -0.150 N 
ATOM     18  N   UNL d   1      46.463 -18.809  40.179  0.00  0.00    -0.055 NA
ATOM     19  N   UNL d   1      46.633 -19.481  40.623  0.00  0.00    -0.130 NA
ATOM     20  C   UNL d   1      46.471 -19.497  41.426  0.00  0.00     0.109 A 
ATOM     21  C   UNL d   1      46.137 -18.836  41.793  0.00  0.00     0.077 A 
ATOM     22  C   UNL d   1      46.641 -20.169  41.870  0.00  0.00     0.021 A 
ATOM     23  C   UNL d   1      45.960 -18.152  41.361  0.00  0.00     0.285 A 
ATOM     24  C   UNL d   1      45.973 -18.850  42.602  0.00  0.00     0.006 A 
ATOM     25  O   UNL d   1      45.628 -17.498  41.724  0.00  0.00    -0.265 OA
ATOM     26  C   UNL d   1      46.143 -19.523  43.045  0.00  0.00     0.000 A 
ATOM     27  C   UNL d   1      46.480 -20.187  42.677  0.00  0.00     0.002 A 
ENDBRANCH  16  17
ENDBRANCH  15  16
ENDBRANCH   1  15
TORSDOF 7
ENDMDL
MODEL 2
REMARK VINA RESULT:      38.6      1.513      5.550
REMARK  7 active torsions:
REMARK  status: ('A' for Active; 'I' for Inactive)
REMARK    1  A    between atoms: C_9  and  N_1 
REMARK    2  A    between atoms: O_18  and  C_6 
REMARK    3  A    between atoms: C_7  and  C_8 
REMARK    4  A    between atoms: C_8  and  O_12 
REMARK    5  A    between atoms: O_12  and  C_9 
REMARK    6  A    between atoms: O_20  and  C_10 
REMARK    7  A    between atoms: O_19  and  C_11 
ROOT
ATOM      1  C   UNL d   1      45.009 -17.756  40.707  0.00  0.00     0.302 C 
ATOM      2  O   UNL d   1      44.205 -17.588  40.808  0.00  0.00    -0.259 OA
ENDROOT
BRANCH   1   3
ATOM      3  C   UNL d   1      45.418 -18.185  41.282  0.00  0.00     0.068 A 
ATOM      4  C   UNL d   1      45.719 -18.949  41.094  0.00  0.00     0.032 A 
ATOM      5  C   UNL d   1      46.121 -19.359  41.675  0.00  0.00     0.118 A 
ATOM      6  C   UNL d   1      46.234 -19.045  42.427  0.00  0.00     0.138 A 
ATOM      7  C   UNL d   1      45.934 -18.297  42.599  0.00  0.00     0.118 A 
ATOM      8  C   UNL d   1      45.527 -17.871  42.026  0.00  0.00     0.032 A 
BRANCH   5   9
ATOM      9  O   UNL d   1      46.426 -20.122  41.499  0.00  0.00    -0.326 OA
ATOM     10  C   UNL d   1      46.646 -20.304  40.723  0.00  0.00     0.181 C 
ENDBRANCH   5   9
BRANCH   6  11
ATOM     11  O   UNL d   1      46.647 -19.482  43.003  0.00  0.00    -0.324 OA
ATOM     12  C   UNL d   1      46.305 -20.128  43.377  0.00  0.00     0.182 C 
ENDBRANCH   6  11
BRANCH   7  13
ATOM     13  O   UNL d   1      46.046 -17.974  43.362  0.00  0.00    -0.326 OA
ATOM     14  C   UNL d   1      45.446 -17.565  43.734  0.00  0.00     0.181 C 
ENDBRANCH   7  13
ENDBRANCH   1   3
BRANCH   1  15
ATOM     15  O   UNL d   1      45.404 -17.494  40.032  0.00  0.00    -0.251 OA
BRANCH  15  16
ATOM     16  C   UNL d   1      45.000 -17.441  39.313  0.00  0.00     0.233 C 
BRANCH  16  17
ATOM     17  N   UNL d   1      45.235 -16.885  38.745  0.00  0.00    -0.150 N 
ATOM     18  N   UNL d   1      45.977 -16.523  38.804  0.00  0.00    -0.055 NA
ATOM     19  N   UNL d   1      46.208 -15.971  38.238  0.00  0.00    -0.130 NA
ATOM     20  C   UNL d   1      45.707 -15.778  37.620  0.00  0.00     0.109 A 
ATOM     21  C   UNL d   1      44.965 -16.140  37.561  0.00  0.00     0.077 A 
ATOM     22  C   UNL d   1      45.938 -15.226  37.055  0.00  0.00     0.021 A 
ATOM     23  C   UNL d   1      44.718 -16.697  38.121  0.00  0.00     0.285 A 
ATOM     24  C   UNL d   1      44.459 -15.947  36.939  0.00  0.00     0.006 A 
ATOM     25  O   UNL d   1      43.983 -17.055  38.063  0.00  0.00    -0.265 OA
ATOM     26  C   UNL d   1      44.691 -15.395  36.374  0.00  0.00     0.000 A 
ATOM     27  C   UNL d   1      45.436 -15.032  36.433  0.00  0.00     0.002 A 
ENDBRANCH  16  17
ENDBRANCH  15  16
ENDBRANCH   1  15
TORSDOF 7
ENDMDL
