MODEL 1
REMARK VINA RESULT:     -10.6      0.000      0.000
REMARK  3 active torsions:
REMARK  status: ('A' for Active; 'I' for Inactive)
REMARK    1  A    between atoms: C_6  and  C_1 
REMARK    2  A    between atoms: N_7  and  C_2 
REMARK    3  A    between atoms: C_9  and  C_5 
REMARK       I    between atoms: N_8  and  C_6 
ROOT
ATOM      1  C   UNL d   1      53.152  32.373  53.459  0.00  0.00     0.106 A 
ATOM      2  C   UNL d   1      53.166  30.974  53.703  0.00  0.00     0.180 A 
ATOM      3  N   UNL d   1      53.709  31.312  54.197  0.00  0.00    -0.222 NA
ATOM      4  S   UNL d   1      52.831  31.572  53.266  0.00  0.00    -0.044 SA
ATOM      5  C   UNL d   1      53.713  32.107  54.071  0.00  0.00     0.094 A 
ENDROOT
BRANCH   1   6
ATOM      6  C   UNL d   1      52.877  33.049  53.070  0.00  0.00     0.272 C 
ATOM      7  N   UNL d   1      52.081  33.286  53.152  0.00  0.00    -0.272 N 
ATOM      8  C   UNL d   1      51.320  33.165  53.474  0.00  0.00     0.083 A 
ATOM      9  C   UNL d   1      52.227  33.928  52.656  0.00  0.00     0.083 A 
ATOM     10  C   UNL d   1      50.708  33.689  53.296  0.00  0.00     0.019 A 
ATOM     11  C   UNL d   1      50.850  34.342  52.794  0.00  0.00     0.003 A 
ATOM     12  C   UNL d   1      51.607  34.460  52.476  0.00  0.00     0.019 A 
ATOM     13  O   UNL d   1      53.384  33.498  52.597  0.00  0.00    -0.266 OA
ENDBRANCH   1   6
BRANCH   5  14
ATOM     14  C   UNL d   1      54.132  32.731  54.392  0.00  0.00     0.018 A 
ATOM     15  C   UNL d   1      54.787  33.016  54.032  0.00  0.00     0.002 A 
ATOM     16  C   UNL d   1      55.190  33.620  54.346  0.00  0.00     0.000 A 
ATOM     17  C   UNL d   1      54.946  33.954  55.030  0.00  0.00     0.000 A 
ATOM     18  C   UNL d   1      54.289  33.682  55.407  0.00  0.00     0.000 A 
ATOM     19  C   UNL d   1      53.887  33.069  55.081  0.00  0.00     0.002 A 
ENDBRANCH   5  14
BRANCH   2  20
ATOM     20  N   UNL d   1      53.147  30.188  53.813  0.00  0.00    -0.280 N 
ATOM     21  C   UNL d   1      53.333  29.865  54.555  0.00  0.00     0.109 A 
ATOM     22  C   UNL d   1      53.314  29.052  54.669  0.00  0.00     0.142 A 
ATOM     23  O   UNL d   1      53.108  28.552  54.043  0.00  0.00    -0.300 OA
ATOM     24  C   UNL d   1      52.920  28.869  53.296  0.00  0.00     0.142 A 
ATOM     25  C   UNL d   1      52.939  29.687  53.181  0.00  0.00     0.109 A 
ENDBRANCH   2  20
TORSDOF 3
ENDMDL
MODEL 2
REMARK VINA RESULT:     -10.1      1.061      3.589
REMARK  3 active torsions:
REMARK  status: ('A' for Active; 'I' for Inactive)
REMARK    1  A    between atoms: C_6  and  C_1 
REMARK    2  A    between atoms: N_7  and  C_2 
REMARK    3  A    between atoms: C_9  and  C_5 
REMARK       I    between atoms: N_8  and  C_6 
ROOT
ATOM      1  C   UNL d   1      53.194  32.349  53.420  0.00  0.00     0.106 A 
ATOM      2  C   UNL d   1      52.106  33.175  53.032  0.00  0.00     0.180 A 
ATOM      3  N   UNL d   1      52.559  33.598  53.551  0.00  0.00    -0.222 NA
ATOM      4  S   UNL d   1      52.456  32.447  52.942  0.00  0.00    -0.044 SA
ATOM      5  C   UNL d   1      53.182  33.142  53.781  0.00  0.00     0.094 A 
ENDROOT
BRANCH   1   6
ATOM      6  C   UNL d   1      53.626  31.644  53.399  0.00  0.00     0.272 C 
ATOM      7  N   UNL d   1      53.270  30.927  53.635  0.00  0.00    -0.272 N 
ATOM      8  C   UNL d   1      52.606  30.508  53.919  0.00  0.00     0.083 A 
ATOM      9  C   UNL d   1      53.976  30.531  53.474  0.00  0.00     0.083 A 
ATOM     10  C   UNL d   1      52.653  29.693  54.041  0.00  0.00     0.019 A 
ATOM     11  C   UNL d   1      53.364  29.287  53.880  0.00  0.00     0.003 A 
ATOM     12  C   UNL d   1      54.023  29.705  53.598  0.00  0.00     0.019 A 
ATOM     13  O   UNL d   1      54.413  31.640  53.147  0.00  0.00    -0.266 OA
ENDBRANCH   1   6
BRANCH   5  14
ATOM     14  C   UNL d   1      53.815  33.258  54.285  0.00  0.00     0.018 A 
ATOM     15  C   UNL d   1      54.521  33.512  54.006  0.00  0.00     0.002 A 
ATOM     16  C   UNL d   1      55.132  33.623  54.496  0.00  0.00     0.000 A 
ATOM     17  C   UNL d   1      55.050  33.482  55.279  0.00  0.00     0.000 A 
ATOM     18  C   UNL d   1      54.348  33.226  55.578  0.00  0.00     0.000 A 
ATOM     19  C   UNL d   1      53.734  33.116  55.072  0.00  0.00     0.002 A 
ENDBRANCH   5  14
BRANCH   2  20
ATOM     20  N   UNL d   1      51.485  33.609  52.794  0.00  0.00    -0.280 N 
ATOM     21  C   UNL d   1      50.805  33.662  53.267  0.00  0.00     0.109 A 
ATOM     22  C   UNL d   1      50.164  34.111  53.021  0.00  0.00     0.142 A 
ATOM     23  O   UNL d   1      50.194  34.513  52.298  0.00  0.00    -0.300 OA
ATOM     24  C   UNL d   1      50.873  34.464  51.818  0.00  0.00     0.142 A 
ATOM     25  C   UNL d   1      51.518  34.012  52.066  0.00  0.00     0.109 A 
ENDBRANCH   2  20
TORSDOF 3
ENDMDL
MODEL 3
REMARK VINA RESULT:      -9.7      1.440      3.934
REMARK  3 active torsions:
REMARK  status: ('A' for Active; 'I' for Inactive)
REMARK    1  A    between atoms: C_6  and  C_1 
REMARK    2  A    between atoms: N_7  and  C_2 
REMARK    3  A    between atoms: C_9  and  C_5 
REMARK       I    between atoms: N_8  and  C_6 
ROOT
ATOM      1  C   UNL d   1      53.116  32.917  53.265  0.00  0.00     0.106 A 
ATOM      2  C   UNL d   1      51.873  33.468  52.852  0.00  0.00     0.180 A 
ATOM      3  N   UNL d   1      51.797  32.663  52.841  0.00  0.00    -0.222 NA
ATOM      4  S   UNL d   1      52.630  33.637  53.095  0.00  0.00    -0.044 SA
ATOM      5  C   UNL d   1      52.495  32.335  53.074  0.00  0.00     0.094 A 
ENDROOT
BRANCH   1   6
ATOM      6  C   UNL d   1      53.900  32.980  53.518  0.00  0.00     0.272 C 
ATOM      7  N   UNL d   1      54.075  33.323  54.258  0.00  0.00    -0.272 N 
ATOM      8  C   UNL d   1      53.820  33.685  54.967  0.00  0.00     0.083 A 
ATOM      9  C   UNL d   1      54.878  33.196  54.121  0.00  0.00     0.083 A 
ATOM     10  C   UNL d   1      54.372  33.916  55.534  0.00  0.00     0.019 A 
ATOM     11  C   UNL d   1      55.187  33.790  55.401  0.00  0.00     0.003 A 
ATOM     12  C   UNL d   1      55.438  33.431  54.696  0.00  0.00     0.019 A 
ATOM     13  O   UNL d   1      54.519  32.704  53.045  0.00  0.00    -0.266 OA
ENDBRANCH   1   6
BRANCH   5  14
ATOM     14  C   UNL d   1      52.757  31.567  53.172  0.00  0.00     0.018 A 
ATOM     15  C   UNL d   1      53.117  31.176  52.575  0.00  0.00     0.002 A 
ATOM     16  C   UNL d   1      53.369  30.432  52.674  0.00  0.00     0.000 A 
ATOM     17  C   UNL d   1      53.265  30.062  53.375  0.00  0.00     0.000 A 
ATOM     18  C   UNL d   1      52.904  30.439  53.987  0.00  0.00     0.000 A 
ATOM     19  C   UNL d   1      52.652  31.193  53.877  0.00  0.00     0.002 A 
ENDBRANCH   5  14
BRANCH   2  20
ATOM     20  N   UNL d   1      51.193  33.810  52.625  0.00  0.00    -0.280 N 
ATOM     21  C   UNL d   1      50.617  34.007  53.188  0.00  0.00     0.109 A 
ATOM     22  C   UNL d   1      49.914  34.361  52.954  0.00  0.00     0.142 A 
ATOM     23  O   UNL d   1      49.779  34.522  52.154  0.00  0.00    -0.300 OA
ATOM     24  C   UNL d   1      50.353  34.327  51.583  0.00  0.00     0.142 A 
ATOM     25  C   UNL d   1      51.060  33.971  51.819  0.00  0.00     0.109 A 
ENDBRANCH   2  20
TORSDOF 3
ENDMDL
MODEL 4
REMARK VINA RESULT:      -8.8      0.803      2.680
REMARK  3 active torsions:
REMARK  status: ('A' for Active; 'I' for Inactive)
REMARK    1  A    between atoms: C_6  and  C_1 
REMARK    2  A    between atoms: N_7  and  C_2 
REMARK    3  A    between atoms: C_9  and  C_5 
REMARK       I    between atoms: N_8  and  C_6 
ROOT
ATOM      1  C   UNL d   1      53.466  32.502  53.510  0.00  0.00     0.106 A 
ATOM      2  C   UNL d   1      53.139  31.123  53.419  0.00  0.00     0.180 A 
ATOM      3  N   UNL d   1      52.484  31.543  53.198  0.00  0.00    -0.222 NA
ATOM      4  S   UNL d   1      53.720  31.661  53.604  0.00  0.00    -0.044 SA
ATOM      5  C   UNL d   1      52.654  32.329  53.244  0.00  0.00     0.094 A 
ENDROOT
BRANCH   1   6
ATOM      6  C   UNL d   1      53.984  33.127  53.673  0.00  0.00     0.272 C 
ATOM      7  N   UNL d   1      54.265  33.246  54.449  0.00  0.00    -0.272 N 
ATOM      8  C   UNL d   1      54.289  33.019  55.253  0.00  0.00     0.083 A 
ATOM      9  C   UNL d   1      54.698  33.896  54.187  0.00  0.00     0.083 A 
ATOM     10  C   UNL d   1      54.747  33.447  55.789  0.00  0.00     0.019 A 
ATOM     11  C   UNL d   1      55.188  34.107  55.529  0.00  0.00     0.003 A 
ATOM     12  C   UNL d   1      55.163  34.329  54.730  0.00  0.00     0.019 A 
ATOM     13  O   UNL d   1      54.228  33.638  53.072  0.00  0.00    -0.266 OA
ENDBRANCH   1   6
BRANCH   5  14
ATOM     14  C   UNL d   1      52.229  33.011  53.096  0.00  0.00     0.018 A 
ATOM     15  C   UNL d   1      52.314  33.407  52.406  0.00  0.00     0.002 A 
ATOM     16  C   UNL d   1      51.902  34.067  52.265  0.00  0.00     0.000 A 
ATOM     17  C   UNL d   1      51.393  34.348  52.815  0.00  0.00     0.000 A 
ATOM     18  C   UNL d   1      51.294  33.963  53.515  0.00  0.00     0.000 A 
ATOM     19  C   UNL d   1      51.717  33.295  53.648  0.00  0.00     0.002 A 
ENDBRANCH   5  14
BRANCH   2  20
ATOM     20  N   UNL d   1      52.991  30.344  53.380  0.00  0.00    -0.280 N 
ATOM     21  C   UNL d   1      52.717  30.006  52.673  0.00  0.00     0.109 A 
ATOM     22  C   UNL d   1      52.564  29.200  52.632  0.00  0.00     0.142 A 
ATOM     23  O   UNL d   1      52.683  28.723  53.298  0.00  0.00    -0.300 OA
ATOM     24  C   UNL d   1      52.957  29.056  54.010  0.00  0.00     0.142 A 
ATOM     25  C   UNL d   1      53.111  29.866  54.051  0.00  0.00     0.109 A 
ENDBRANCH   2  20
TORSDOF 3
ENDMDL
MODEL 5
REMARK VINA RESULT:      -8.8      1.228      3.869
REMARK  3 active torsions:
REMARK  status: ('A' for Active; 'I' for Inactive)
REMARK    1  A    between atoms: C_6  and  C_1 
REMARK    2  A    between atoms: N_7  and  C_2 
REMARK    3  A    between atoms: C_9  and  C_5 
REMARK       I    between atoms: N_8  and  C_6 
ROOT
ATOM      1  C   UNL d   1      53.187  32.329  53.403  0.00  0.00     0.106 A 
ATOM      2  C   UNL d   1      54.093  33.067  54.210  0.00  0.00     0.180 A 
ATOM      3  N   UNL d   1      53.457  33.544  54.061  0.00  0.00    -0.222 NA
ATOM      4  S   UNL d   1      53.957  32.358  53.837  0.00  0.00    -0.044 SA
ATOM      5  C   UNL d   1      52.933  33.139  53.603  0.00  0.00     0.094 A 
ENDROOT
BRANCH   1   6
ATOM      6  C   UNL d   1      52.953  31.652  52.990  0.00  0.00     0.272 C 
ATOM      7  N   UNL d   1      52.984  30.904  53.359  0.00  0.00    -0.272 N 
ATOM      8  C   UNL d   1      53.156  30.434  54.028  0.00  0.00     0.083 A 
ATOM      9  C   UNL d   1      52.696  30.558  52.668  0.00  0.00     0.083 A 
ATOM     10  C   UNL d   1      53.039  29.618  54.000  0.00  0.00     0.019 A 
ATOM     11  C   UNL d   1      52.748  29.261  53.303  0.00  0.00     0.003 A 
ATOM     12  C   UNL d   1      52.578  29.731  52.640  0.00  0.00     0.019 A 
ATOM     13  O   UNL d   1      52.687  31.706  52.209  0.00  0.00    -0.266 OA
ENDBRANCH   1   6
BRANCH   5  14
ATOM     14  C   UNL d   1      52.205  33.319  53.279  0.00  0.00     0.018 A 
ATOM     15  C   UNL d   1      51.527  33.138  53.664  0.00  0.00     0.002 A 
ATOM     16  C   UNL d   1      50.824  33.314  53.348  0.00  0.00     0.000 A 
ATOM     17  C   UNL d   1      50.782  33.677  52.637  0.00  0.00     0.000 A 
ATOM     18  C   UNL d   1      51.453  33.868  52.234  0.00  0.00     0.000 A 
ATOM     19  C   UNL d   1      52.161  33.685  52.564  0.00  0.00     0.002 A 
ENDBRANCH   5  14
BRANCH   2  20
ATOM     20  N   UNL d   1      54.623  33.449  54.661  0.00  0.00    -0.280 N 
ATOM     21  C   UNL d   1      54.505  33.513  55.481  0.00  0.00     0.109 A 
ATOM     22  C   UNL d   1      55.053  33.909  55.947  0.00  0.00     0.142 A 
ATOM     23  O   UNL d   1      55.725  34.245  55.601  0.00  0.00    -0.300 OA
ATOM     24  C   UNL d   1      55.849  34.185  54.779  0.00  0.00     0.142 A 
ATOM     25  C   UNL d   1      55.298  33.787  54.310  0.00  0.00     0.109 A 
ENDBRANCH   2  20
TORSDOF 3
ENDMDL
