MODEL 1
REMARK VINA RESULT:      79.5      0.000      0.000
REMARK  7 active torsions:
REMARK  status: ('A' for Active; 'I' for Inactive)
REMARK    1  A    between atoms: C_3  and  S_1 
REMARK    2  A    between atoms: N_8  and  S_1 
REMARK    3  A    between atoms: C_4  and  N_2 
REMARK    4  A    between atoms: N_5  and  C_19 
REMARK    5  A    between atoms: C_14  and  N_8 
REMARK    6  A    between atoms: O_21  and  C_11 
REMARK    7  A    between atoms: C_19  and  C_14 
ROOT
ATOM      1  N   UNL d   1     -57.492 -98.777 -44.763  0.00  0.00    -0.300 N 
ATOM      2  N   UNL d   1     -55.953 -98.773 -44.157  0.00  0.00    -0.299 N 
ATOM      3  C   UNL d   1     -57.370 -98.757 -43.949  0.00  0.00     0.100 A 
ATOM      4  C   UNL d   1     -56.841 -98.795 -45.281  0.00  0.00     0.100 A 
ATOM      5  C   UNL d   1     -56.602 -98.755 -43.647  0.00  0.00     0.100 A 
ATOM      6  C   UNL d   1     -56.077 -98.793 -44.980  0.00  0.00     0.100 A 
ENDROOT
BRANCH   2   7
ATOM      7  C   UNL d   1     -55.186 -98.771 -43.855  0.00  0.00     0.102 C 
BRANCH   7   8
ATOM      8  C   UNL d   1     -55.034 -99.049 -43.090  0.00  0.00     0.131 C 
BRANCH   8   9
ATOM      9  N   UNL d   1     -54.741 -99.801 -42.973  0.00  0.00    -0.155 NA
BRANCH   9  10
ATOM     10  S   UNL d   1     -54.971-100.236 -42.312  0.00  0.00     0.285 S 
ATOM     11  O   UNL d   1     -55.187-100.865 -42.804  0.00  0.00    -0.198 OA
ATOM     12  O   UNL d   1     -54.756 -99.607 -41.820  0.00  0.00    -0.198 OA
BRANCH  10  13
ATOM     13  C   UNL d   1     -55.204-100.678 -41.658  0.00  0.00     0.105 A 
ATOM     14  C   UNL d   1     -54.958-100.456 -40.902  0.00  0.00     0.013 A 
ATOM     15  C   UNL d   1     -55.186-100.892 -40.242  0.00  0.00     0.001 A 
ATOM     16  C   UNL d   1     -55.667-101.559 -40.346  0.00  0.00     0.000 A 
ATOM     17  C   UNL d   1     -55.911-101.778 -41.103  0.00  0.00     0.001 A 
ATOM     18  C   UNL d   1     -55.894-101.993 -39.687  0.00  0.00     0.000 C 
ATOM     19  C   UNL d   1     -55.675-101.332 -41.755  0.00  0.00     0.013 A 
ENDBRANCH  10  13
ENDBRANCH   9  10
ENDBRANCH   8   9
ENDBRANCH   7   8
ENDBRANCH   2   7
BRANCH   1  20
ATOM     20  C   UNL d   1     -58.260 -98.780 -45.066  0.00  0.00     0.086 A 
ATOM     21  C   UNL d   1     -58.912 -98.806 -44.557  0.00  0.00     0.110 A 
ATOM     22  C   UNL d   1     -59.684 -98.808 -44.861  0.00  0.00     0.026 A 
ATOM     23  C   UNL d   1     -59.795 -98.784 -45.671  0.00  0.00     0.002 A 
ATOM     24  C   UNL d   1     -59.148 -98.758 -46.189  0.00  0.00     0.002 A 
ATOM     25  C   UNL d   1     -58.388 -98.755 -45.890  0.00  0.00     0.019 A 
BRANCH  21  26
ATOM     26  O   UNL d   1     -58.786 -98.830 -43.729  0.00  0.00    -0.327 OA
ATOM     27  C   UNL d   1     -59.322 -99.246 -43.252  0.00  0.00     0.181 C 
ENDBRANCH  21  26
ENDBRANCH   1  20
TORSDOF 7
ENDMDL
