MODEL 1
REMARK VINA RESULT:      47.7      0.000      0.000
REMARK  3 active torsions:
REMARK  status: ('A' for Active; 'I' for Inactive)
REMARK    1  A    between atoms: S_12  and  C_6 
REMARK    2  A    between atoms: C_10  and  C_14 
REMARK       I    between atoms: N_11  and  C_10 
REMARK    3  A    between atoms: C_14  and  S_12 
ROOT
ATOM      1  C   UNL d   1      13.712  13.764  -4.840  0.00  0.00     0.155 A 
ATOM      2  C   UNL d   1      13.758  14.030  -4.057  0.00  0.00     0.107 A 
ATOM      3  N   UNL d   1      13.149  12.532  -4.384  0.00  0.00    -0.250 N 
ATOM      4  C   UNL d   1      13.410  13.020  -5.003  0.00  0.00     0.285 A 
ATOM      5  N   UNL d   1      13.498  13.544  -3.438  0.00  0.00    -0.220 NA
ATOM      6  C   UNL d   1      13.195  12.798  -3.611  0.00  0.00     0.182 A 
ATOM      7  N   UNL d   1      14.007  14.357  -5.330  0.00  0.00    -0.239 NA
ATOM      8  C   UNL d   1      14.080  14.787  -4.058  0.00  0.00     0.037 A 
ATOM      9  C   UNL d   1      14.237  14.994  -4.851  0.00  0.00     0.083 A 
ATOM     10  O   UNL d   1      13.360  12.745  -5.785  0.00  0.00    -0.265 OA
ATOM     11  C   UNL d   1      12.843  11.779  -4.547  0.00  0.00     0.104 C 
ATOM     12  C   UNL d   1      14.254  15.318  -3.455  0.00  0.00     0.003 A 
ATOM     13  C   UNL d   1      14.566  15.731  -5.031  0.00  0.00     0.019 A 
ATOM     14  C   UNL d   1      14.584  16.056  -3.634  0.00  0.00     0.000 A 
ATOM     15  C   UNL d   1      14.737  16.258  -4.418  0.00  0.00     0.002 A 
ENDROOT
BRANCH   6  16
ATOM     16  S   UNL d   1      12.935  12.311  -2.996  0.00  0.00    -0.044 SA
BRANCH  16  17
ATOM     17  C   UNL d   1      13.471  11.842  -2.581  0.00  0.00     0.099 C 
BRANCH  17  18
ATOM     18  C   UNL d   1      13.472  11.846  -1.758  0.00  0.00     0.271 C 
ATOM     19  N   UNL d   1      14.185  11.872  -1.357  0.00  0.00    -0.272 N 
ATOM     20  C   UNL d   1      14.198  11.876  -0.533  0.00  0.00     0.083 A 
ATOM     21  C   UNL d   1      14.896  11.895  -1.776  0.00  0.00     0.083 A 
ATOM     22  C   UNL d   1      14.909  11.903  -0.136  0.00  0.00     0.019 A 
ATOM     23  C   UNL d   1      15.619  11.926  -0.542  0.00  0.00     0.003 A 
ATOM     24  C   UNL d   1      15.616  11.922  -1.368  0.00  0.00     0.019 A 
ATOM     25  O   UNL d   1      12.771  11.823  -1.335  0.00  0.00    -0.266 OA
ENDBRANCH  17  18
ENDBRANCH  16  17
ENDBRANCH   6  16
TORSDOF 3
ENDMDL
MODEL 2
REMARK VINA RESULT:      48.5      2.011      4.229
REMARK  3 active torsions:
REMARK  status: ('A' for Active; 'I' for Inactive)
REMARK    1  A    between atoms: S_12  and  C_6 
REMARK    2  A    between atoms: C_10  and  C_14 
REMARK       I    between atoms: N_11  and  C_10 
REMARK    3  A    between atoms: C_14  and  S_12 
ROOT
ATOM      1  C   UNL d   1      14.074  12.472  -2.117  0.00  0.00     0.155 A 
ATOM      2  C   UNL d   1      13.920  13.176  -2.526  0.00  0.00     0.107 A 
ATOM      3  N   UNL d   1      14.682  13.220  -1.062  0.00  0.00    -0.250 N 
ATOM      4  C   UNL d   1      14.452  12.493  -1.390  0.00  0.00     0.285 A 
ATOM      5  N   UNL d   1      14.149  13.903  -2.198  0.00  0.00    -0.220 NA
ATOM      6  C   UNL d   1      14.528  13.915  -1.468  0.00  0.00     0.182 A 
ATOM      7  N   UNL d   1      13.789  11.845  -2.570  0.00  0.00    -0.239 NA
ATOM      8  C   UNL d   1      13.540  12.990  -3.230  0.00  0.00     0.037 A 
ATOM      9  C   UNL d   1      13.456  12.160  -3.261  0.00  0.00     0.083 A 
ATOM     10  O   UNL d   1      14.611  11.792  -0.974  0.00  0.00    -0.265 OA
ATOM     11  C   UNL d   1      15.064  13.244  -0.327  0.00  0.00     0.104 C 
ATOM     12  C   UNL d   1      13.257  13.452  -3.849  0.00  0.00     0.003 A 
ATOM     13  C   UNL d   1      13.090  11.803  -3.912  0.00  0.00     0.019 A 
ATOM     14  C   UNL d   1      12.891  13.096  -4.499  0.00  0.00     0.000 A 
ATOM     15  C   UNL d   1      12.809  12.276  -4.528  0.00  0.00     0.002 A 
ENDROOT
BRANCH   6  16
ATOM     16  S   UNL d   1      14.757  14.638  -1.140  0.00  0.00    -0.044 SA
BRANCH  16  17
ATOM     17  C   UNL d   1      15.167  15.190  -1.594  0.00  0.00     0.099 C 
BRANCH  17  18
ATOM     18  C   UNL d   1      15.204  15.976  -1.354  0.00  0.00     0.271 C 
ATOM     19  N   UNL d   1      15.112  16.570  -1.910  0.00  0.00    -0.272 N 
ATOM     20  C   UNL d   1      15.147  17.361  -1.682  0.00  0.00     0.083 A 
ATOM     21  C   UNL d   1      14.983  16.380  -2.703  0.00  0.00     0.083 A 
ATOM     22  C   UNL d   1      15.054  17.951  -2.237  0.00  0.00     0.019 A 
ATOM     23  C   UNL d   1      14.926  17.773  -3.025  0.00  0.00     0.003 A 
ATOM     24  C   UNL d   1      14.890  16.983  -3.263  0.00  0.00     0.019 A 
ATOM     25  O   UNL d   1      15.332  16.173  -0.570  0.00  0.00    -0.266 OA
ENDBRANCH  17  18
ENDBRANCH  16  17
ENDBRANCH   6  16
TORSDOF 3
ENDMDL
