MODEL 1
REMARK VINA RESULT:      35.4      0.000      0.000
REMARK  3 active torsions:
REMARK  status: ('A' for Active; 'I' for Inactive)
REMARK    1  A    between atoms: N_3  and  C_1 
REMARK    2  A    between atoms: O_4  and  C_2 
REMARK    3  A    between atoms: C_7  and  O_4 
ROOT
ATOM      1  C   UNL d   1     -55.837 -99.836 -44.390  0.00  0.00     0.205 A 
ATOM      2  C   UNL d   1     -56.627 -99.734 -44.237  0.00  0.00     0.209 A 
ATOM      3  N   UNL d   1     -57.106-100.384 -44.166  0.00  0.00    -0.198 NA
ATOM      4  C   UNL d   1     -55.519-100.595 -44.474  0.00  0.00     0.211 A 
ATOM      5  N   UNL d   1     -55.997-101.243 -44.403  0.00  0.00    -0.202 NA
ATOM      6  C   UNL d   1     -56.782-101.149 -44.251  0.00  0.00     0.202 A 
ATOM      7  N   UNL d   1     -54.715-100.707 -44.630  0.00  0.00    -0.125 N 
ENDROOT
BRANCH   2   8
ATOM      8  O   UNL d   1     -56.976 -98.971 -44.147  0.00  0.00    -0.288 OA
BRANCH   8   9
ATOM      9  C   UNL d   1     -57.801 -98.900 -44.170  0.00  0.00     0.102 A 
ATOM     10  C   UNL d   1     -58.224 -98.827 -43.475  0.00  0.00     0.023 A 
ATOM     11  C   UNL d   1     -59.049 -98.755 -43.504  0.00  0.00     0.002 A 
ATOM     12  C   UNL d   1     -57.866 -98.821 -42.750  0.00  0.00     0.002 C 
ATOM     13  C   UNL d   1     -59.445 -98.758 -44.228  0.00  0.00     0.000 A 
ATOM     14  C   UNL d   1     -59.012 -98.832 -44.926  0.00  0.00     0.002 A 
ATOM     15  C   UNL d   1     -58.175 -98.905 -44.911  0.00  0.00     0.025 A 
ATOM     16  C   UNL d   1     -59.408 -98.836 -45.682  0.00  0.00     0.000 C 
ENDBRANCH   8   9
ENDBRANCH   2   8
BRANCH   1  17
ATOM     17  N   UNL d   1     -55.350 -99.178 -44.462  0.00  0.00    -0.107 N 
ATOM     18  O   UNL d   1     -55.352 -98.758 -45.141  0.00  0.00    -0.531 OA
ATOM     19  O   UNL d   1     -54.870 -98.965 -43.838  0.00  0.00    -0.531 OA
ENDBRANCH   1  17
TORSDOF 3
ENDMDL
MODEL 2
REMARK VINA RESULT:      37.7      1.461      3.424
REMARK  3 active torsions:
REMARK  status: ('A' for Active; 'I' for Inactive)
REMARK    1  A    between atoms: N_3  and  C_1 
REMARK    2  A    between atoms: O_4  and  C_2 
REMARK    3  A    between atoms: C_7  and  O_4 
ROOT
ATOM      1  C   UNL d   1     -58.091 -98.976 -44.332  0.00  0.00     0.205 A 
ATOM      2  C   UNL d   1     -57.318 -98.994 -44.580  0.00  0.00     0.209 A 
ATOM      3  N   UNL d   1     -57.150 -98.894 -45.366  0.00  0.00    -0.198 NA
ATOM      4  C   UNL d   1     -58.703 -98.857 -44.874  0.00  0.00     0.211 A 
ATOM      5  N   UNL d   1     -58.535 -98.757 -45.659  0.00  0.00    -0.202 NA
ATOM      6  C   UNL d   1     -57.771 -98.774 -45.911  0.00  0.00     0.202 A 
ATOM      7  N   UNL d   1     -59.494 -98.837 -44.631  0.00  0.00    -0.125 N 
ENDROOT
BRANCH   2   8
ATOM      8  O   UNL d   1     -56.675 -99.114 -44.047  0.00  0.00    -0.288 OA
BRANCH   8   9
ATOM      9  C   UNL d   1     -56.122 -99.709 -44.210  0.00  0.00     0.102 A 
ATOM     10  C   UNL d   1     -55.334 -99.517 -44.314  0.00  0.00     0.023 A 
ATOM     11  C   UNL d   1     -54.786-100.115 -44.477  0.00  0.00     0.002 A 
ATOM     12  C   UNL d   1     -55.065 -98.756 -44.263  0.00  0.00     0.002 C 
ATOM     13  C   UNL d   1     -55.028-100.902 -44.535  0.00  0.00     0.000 A 
ATOM     14  C   UNL d   1     -55.824-101.089 -44.430  0.00  0.00     0.002 A 
ATOM     15  C   UNL d   1     -56.392-100.491 -44.264  0.00  0.00     0.025 A 
ATOM     16  C   UNL d   1     -56.089-101.898 -44.487  0.00  0.00     0.000 C 
ENDBRANCH   8   9
ENDBRANCH   2   8
BRANCH   1  17
ATOM     17  N   UNL d   1     -58.264 -99.077 -43.536  0.00  0.00    -0.107 N 
ATOM     18  O   UNL d   1     -57.724 -98.869 -42.984  0.00  0.00    -0.531 OA
ATOM     19  O   UNL d   1     -58.986 -99.389 -43.319  0.00  0.00    -0.531 OA
ENDBRANCH   1  17
TORSDOF 3
ENDMDL
