MODEL 1
REMARK VINA RESULT:      33.9      0.000      0.000
REMARK  7 active torsions:
REMARK  status: ('A' for Active; 'I' for Inactive)
REMARK    1  A    between atoms: N_6  and  C_1 
REMARK    2  A    between atoms: N_8  and  C_2 
REMARK    3  A    between atoms: N_10  and  C_7 
REMARK    4  A    between atoms: C_13  and  N_8 
REMARK    5  A    between atoms: C_14  and  N_10 
REMARK    6  A    between atoms: C_15  and  C_13 
REMARK    7  A    between atoms: C_16  and  C_14 
ROOT
ATOM      1  C   UNL d   1      13.472  13.030  -3.960  0.00  0.00     0.201 A 
ATOM      2  C   UNL d   1      13.851  13.003  -3.223  0.00  0.00     0.206 A 
ATOM      3  N   UNL d   1      13.962  13.703  -2.800  0.00  0.00    -0.038 NA
ATOM      4  N   UNL d   1      13.325  14.446  -3.837  0.00  0.00    -0.036 NA
ATOM      5  C   UNL d   1      13.210  13.750  -4.267  0.00  0.00     0.227 A 
ATOM      6  C   UNL d   1      13.700  14.422  -3.106  0.00  0.00     0.753 A 
ATOM      7  N   UNL d   1      12.828  13.764  -5.013  0.00  0.00    -0.125 N 
ENDROOT
BRANCH   2   8
ATOM      8  N   UNL d   1      14.119  12.266  -2.910  0.00  0.00    -0.223 NA
BRANCH   8   9
ATOM      9  C   UNL d   1      13.693  11.894  -2.313  0.00  0.00     0.101 C 
BRANCH   9  10
ATOM     10  C   UNL d   1      13.998  11.864  -1.547  0.00  0.00     0.019 A 
ATOM     11  C   UNL d   1      13.487  11.869  -0.900  0.00  0.00     0.002 A 
ATOM     12  C   UNL d   1      13.793  11.839  -0.131  0.00  0.00     0.000 A 
ATOM     13  C   UNL d   1      14.609  11.804  -0.014  0.00  0.00     0.000 A 
ATOM     14  C   UNL d   1      15.118  11.800  -0.660  0.00  0.00     0.000 A 
ATOM     15  C   UNL d   1      14.811  11.830  -1.429  0.00  0.00     0.002 A 
ENDBRANCH   9  10
ENDBRANCH   8   9
ENDBRANCH   2   8
BRANCH   1  16
ATOM     16  N   UNL d   1      13.359  12.307  -4.393  0.00  0.00    -0.107 N 
ATOM     17  O   UNL d   1      12.775  11.782  -4.148  0.00  0.00    -0.531 OA
ATOM     18  O   UNL d   1      13.829  12.132  -5.053  0.00  0.00    -0.531 OA
ENDBRANCH   1  16
BRANCH   6  19
ATOM     19  N   UNL d   1      13.815  15.118  -2.678  0.00  0.00    -0.058 NA
BRANCH  19  20
ATOM     20  C   UNL d   1      14.529  15.533  -2.748  0.00  0.00     0.118 C 
BRANCH  20  21
ATOM     21  C   UNL d   1      14.830  15.944  -2.099  0.00  0.00     0.020 A 
ATOM     22  C   UNL d   1      14.989  16.744  -2.157  0.00  0.00     0.002 A 
ATOM     23  C   UNL d   1      15.289  17.155  -1.508  0.00  0.00     0.000 A 
ATOM     24  C   UNL d   1      15.429  16.756  -0.800  0.00  0.00     0.000 A 
ATOM     25  C   UNL d   1      15.268  15.949  -0.743  0.00  0.00     0.000 A 
ATOM     26  C   UNL d   1      14.969  15.546  -1.390  0.00  0.00     0.002 A 
ENDBRANCH  20  21
ENDBRANCH  19  20
ENDBRANCH   6  19
TORSDOF 7
ENDMDL
MODEL 2
REMARK VINA RESULT:      36.3      1.071      3.533
REMARK  7 active torsions:
REMARK  status: ('A' for Active; 'I' for Inactive)
REMARK    1  A    between atoms: N_6  and  C_1 
REMARK    2  A    between atoms: N_8  and  C_2 
REMARK    3  A    between atoms: N_10  and  C_7 
REMARK    4  A    between atoms: C_13  and  N_8 
REMARK    5  A    between atoms: C_14  and  N_10 
REMARK    6  A    between atoms: C_15  and  C_13 
REMARK    7  A    between atoms: C_16  and  C_14 
ROOT
ATOM      1  C   UNL d   1      13.238  13.026  -4.706  0.00  0.00     0.201 A 
ATOM      2  C   UNL d   1      13.496  13.475  -4.058  0.00  0.00     0.206 A 
ATOM      3  N   UNL d   1      13.565  13.115  -3.319  0.00  0.00    -0.038 NA
ATOM      4  N   UNL d   1      13.124  11.875  -3.868  0.00  0.00    -0.036 NA
ATOM      5  C   UNL d   1      13.052  12.228  -4.611  0.00  0.00     0.227 A 
ATOM      6  C   UNL d   1      13.379  12.316  -3.224  0.00  0.00     0.753 A 
ATOM      7  N   UNL d   1      12.792  11.785  -5.274  0.00  0.00    -0.125 N 
ENDROOT
BRANCH   2   8
ATOM      8  N   UNL d   1      13.687  14.292  -4.155  0.00  0.00    -0.223 NA
BRANCH   8   9
ATOM      9  C   UNL d   1      13.531  14.825  -3.549  0.00  0.00     0.101 C 
BRANCH   9  10
ATOM     10  C   UNL d   1      14.060  15.438  -3.393  0.00  0.00     0.019 A 
ATOM     11  C   UNL d   1      14.460  15.463  -2.673  0.00  0.00     0.002 A 
ATOM     12  C   UNL d   1      14.991  16.079  -2.516  0.00  0.00     0.000 A 
ATOM     13  C   UNL d   1      15.118  16.666  -3.082  0.00  0.00     0.000 A 
ATOM     14  C   UNL d   1      14.719  16.640  -3.800  0.00  0.00     0.000 A 
ATOM     15  C   UNL d   1      14.188  16.023  -3.956  0.00  0.00     0.002 A 
ENDBRANCH   9  10
ENDBRANCH   8   9
ENDBRANCH   2   8
BRANCH   1  16
ATOM     16  N   UNL d   1      13.169  13.401  -5.466  0.00  0.00    -0.107 N 
ATOM     17  O   UNL d   1      12.939  14.190  -5.502  0.00  0.00    -0.531 OA
ATOM     18  O   UNL d   1      13.329  12.979  -6.162  0.00  0.00    -0.531 OA
ENDBRANCH   1  16
BRANCH   6  19
ATOM     19  N   UNL d   1      13.450  11.963  -2.482  0.00  0.00    -0.058 NA
BRANCH  19  20
ATOM     20  C   UNL d   1      14.201  11.780  -2.182  0.00  0.00     0.118 C 
BRANCH  20  21
ATOM     21  C   UNL d   1      14.440  12.094  -1.457  0.00  0.00     0.020 A 
ATOM     22  C   UNL d   1      13.882  12.301  -0.895  0.00  0.00     0.002 A 
ATOM     23  C   UNL d   1      14.121  12.614  -0.171  0.00  0.00     0.000 A 
ATOM     24  C   UNL d   1      14.925  12.718  -0.014  0.00  0.00     0.000 A 
ATOM     25  C   UNL d   1      15.485  12.509  -0.582  0.00  0.00     0.000 A 
ATOM     26  C   UNL d   1      15.243  12.198  -1.300  0.00  0.00     0.002 A 
ENDBRANCH  20  21
ENDBRANCH  19  20
ENDBRANCH   6  19
TORSDOF 7
ENDMDL
