MODEL 1
REMARK VINA RESULT:      -0.9      0.000      0.000
REMARK  5 active torsions:
REMARK  status: ('A' for Active; 'I' for Inactive)
REMARK    1  A    between atoms: C_8  and  C_1 
REMARK    2  A    between atoms: N_4  and  C_2 
REMARK       I    between atoms: C_6  and  N_4 
REMARK    3  A    between atoms: C_9  and  C_6 
REMARK    4  A    between atoms: O_20  and  C_15 
REMARK    5  A    between atoms: C_21  and  O_20 
ROOT
ATOM      1  C   UNL d   1      30.792  17.234 -24.454  0.00  0.00     0.177 A 
ATOM      2  C   UNL d   1      31.574  17.475 -24.343  0.00  0.00     0.114 A 
ATOM      3  O   UNL d   1      30.797  16.455 -24.755  0.00  0.00    -0.301 OA
ATOM      4  C   UNL d   1      32.069  16.857 -24.571  0.00  0.00     0.043 A 
ATOM      5  C   UNL d   1      31.577  16.216 -24.829  0.00  0.00     0.102 A 
ATOM      6  C   UNL d   1      32.885  16.778 -24.582  0.00  0.00     0.004 A 
ATOM      7  C   UNL d   1      31.927  15.522 -25.089  0.00  0.00     0.025 A 
ATOM      8  C   UNL d   1      33.241  16.075 -24.846  0.00  0.00     0.000 A 
ATOM      9  C   UNL d   1      32.772  15.453 -25.097  0.00  0.00     0.002 A 
ENDROOT
BRANCH   2  10
ATOM     10  N   UNL d   1      31.804  18.235 -24.045  0.00  0.00    -0.206 NA
ATOM     11  C   UNL d   1      32.339  18.281 -23.417  0.00  0.00     0.279 C 
ATOM     12  O   UNL d   1      32.655  17.605 -23.073  0.00  0.00    -0.265 OA
BRANCH  11  13
ATOM     13  C   UNL d   1      32.564  19.022 -23.126  0.00  0.00     0.058 A 
ATOM     14  C   UNL d   1      32.670  19.635 -23.644  0.00  0.00     0.007 A 
ATOM     15  C   UNL d   1      32.899  20.392 -23.346  0.00  0.00     0.025 A 
ATOM     16  C   UNL d   1      33.009  20.491 -22.540  0.00  0.00     0.100 A 
ATOM     17  C   UNL d   1      32.902  19.862 -22.002  0.00  0.00     0.025 A 
ATOM     18  C   UNL d   1      32.672  19.105 -22.299  0.00  0.00     0.007 A 
BRANCH  16  19
ATOM     19  O   UNL d   1      33.238  21.247 -22.243  0.00  0.00    -0.305 OA
BRANCH  19  20
ATOM     20  C   UNL d   1      33.012  21.478 -21.484  0.00  0.00     0.123 C 
ATOM     21  C   UNL d   1      33.055  22.266 -21.266  0.00  0.00     0.029 C 
ENDBRANCH  19  20
ENDBRANCH  16  19
ENDBRANCH  11  13
ENDBRANCH   2  10
BRANCH   1  22
ATOM     22  C   UNL d   1      30.140  17.708 -24.286  0.00  0.00     0.321 C 
ATOM     23  O   UNL d   1      29.934  18.335 -24.807  0.00  0.00    -0.261 OA
ATOM     24  N   UNL d   1      29.680  17.571 -23.600  0.00  0.00    -0.101 N 
ENDBRANCH   1  22
TORSDOF 5
ENDMDL
MODEL 2
REMARK VINA RESULT:      -0.3      1.714      2.506
REMARK  5 active torsions:
REMARK  status: ('A' for Active; 'I' for Inactive)
REMARK    1  A    between atoms: C_8  and  C_1 
REMARK    2  A    between atoms: N_4  and  C_2 
REMARK       I    between atoms: C_6  and  N_4 
REMARK    3  A    between atoms: C_9  and  C_6 
REMARK    4  A    between atoms: O_20  and  C_15 
REMARK    5  A    between atoms: C_21  and  O_20 
ROOT
ATOM      1  C   UNL d   1      32.714  19.119 -24.208  0.00  0.00     0.177 A 
ATOM      2  C   UNL d   1      32.967  19.050 -23.425  0.00  0.00     0.114 A 
ATOM      3  O   UNL d   1      32.606  18.351 -24.518  0.00  0.00    -0.301 OA
ATOM      4  C   UNL d   1      33.020  18.249 -23.241  0.00  0.00     0.043 A 
ATOM      5  C   UNL d   1      32.793  17.811 -23.930  0.00  0.00     0.102 A 
ATOM      6  C   UNL d   1      33.239  17.853 -22.556  0.00  0.00     0.004 A 
ATOM      7  C   UNL d   1      32.794  16.992 -23.903  0.00  0.00     0.025 A 
ATOM      8  C   UNL d   1      33.241  17.023 -22.528  0.00  0.00     0.000 A 
ATOM      9  C   UNL d   1      33.022  16.594 -23.190  0.00  0.00     0.002 A 
ENDROOT
BRANCH   2  10
ATOM     10  N   UNL d   1      33.137  19.708 -22.917  0.00  0.00    -0.206 NA
ATOM     11  C   UNL d   1      32.577  19.947 -22.359  0.00  0.00     0.279 C 
ATOM     12  O   UNL d   1      31.856  19.562 -22.284  0.00  0.00    -0.265 OA
BRANCH  11  13
ATOM     13  C   UNL d   1      32.744  20.588 -21.863  0.00  0.00     0.058 A 
ATOM     14  C   UNL d   1      33.047  20.450 -21.126  0.00  0.00     0.007 A 
ATOM     15  C   UNL d   1      33.217  21.105 -20.620  0.00  0.00     0.025 A 
ATOM     16  C   UNL d   1      33.071  21.867 -20.885  0.00  0.00     0.100 A 
ATOM     17  C   UNL d   1      32.759  22.015 -21.644  0.00  0.00     0.025 A 
ATOM     18  C   UNL d   1      32.589  21.360 -22.150  0.00  0.00     0.007 A 
BRANCH  16  19
ATOM     19  O   UNL d   1      33.241  22.521 -20.379  0.00  0.00    -0.305 OA
BRANCH  19  20
ATOM     20  C   UNL d   1      32.726  22.711 -19.764  0.00  0.00     0.123 C 
ATOM     21  C   UNL d   1      32.724  23.468 -19.450  0.00  0.00     0.029 C 
ENDBRANCH  19  20
ENDBRANCH  16  19
ENDBRANCH  11  13
ENDBRANCH   2  10
BRANCH   1  22
ATOM     22  C   UNL d   1      32.596  19.839 -24.589  0.00  0.00     0.321 C 
ATOM     23  O   UNL d   1      33.229  20.391 -24.644  0.00  0.00    -0.261 OA
ATOM     24  N   UNL d   1      31.851  20.029 -24.922  0.00  0.00    -0.101 N 
ENDBRANCH   1  22
TORSDOF 5
ENDMDL
MODEL 3
REMARK VINA RESULT:       0.6      1.812      5.070
REMARK  5 active torsions:
REMARK  status: ('A' for Active; 'I' for Inactive)
REMARK    1  A    between atoms: C_8  and  C_1 
REMARK    2  A    between atoms: N_4  and  C_2 
REMARK       I    between atoms: C_6  and  N_4 
REMARK    3  A    between atoms: C_9  and  C_6 
REMARK    4  A    between atoms: O_20  and  C_15 
REMARK    5  A    between atoms: C_21  and  O_20 
ROOT
ATOM      1  C   UNL d   1      32.792  21.485 -21.514  0.00  0.00     0.177 A 
ATOM      2  C   UNL d   1      33.018  21.210 -22.260  0.00  0.00     0.114 A 
ATOM      3  O   UNL d   1      32.681  22.311 -21.561  0.00  0.00    -0.301 OA
ATOM      4  C   UNL d   1      33.049  21.855 -22.773  0.00  0.00     0.043 A 
ATOM      5  C   UNL d   1      32.837  22.546 -22.330  0.00  0.00     0.102 A 
ATOM      6  C   UNL d   1      33.237  21.918 -23.569  0.00  0.00     0.004 A 
ATOM      7  C   UNL d   1      32.823  23.273 -22.707  0.00  0.00     0.025 A 
ATOM      8  C   UNL d   1      33.223  22.655 -23.951  0.00  0.00     0.000 A 
ATOM      9  C   UNL d   1      33.019  23.327 -23.530  0.00  0.00     0.002 A 
ENDROOT
BRANCH   2  10
ATOM     10  N   UNL d   1      33.183  20.399 -22.442  0.00  0.00    -0.206 NA
ATOM     11  C   UNL d   1      32.592  19.927 -22.774  0.00  0.00     0.279 C 
ATOM     12  O   UNL d   1      31.844  20.227 -22.933  0.00  0.00    -0.265 OA
BRANCH  11  13
ATOM     13  C   UNL d   1      32.753  19.135 -22.952  0.00  0.00     0.058 A 
ATOM     14  C   UNL d   1      32.664  18.875 -23.713  0.00  0.00     0.007 A 
ATOM     15  C   UNL d   1      32.829  18.067 -23.895  0.00  0.00     0.025 A 
ATOM     16  C   UNL d   1      33.075  17.562 -23.298  0.00  0.00     0.100 A 
ATOM     17  C   UNL d   1      33.169  17.825 -22.511  0.00  0.00     0.025 A 
ATOM     18  C   UNL d   1      33.004  18.634 -22.329  0.00  0.00     0.007 A 
BRANCH  16  19
ATOM     19  O   UNL d   1      33.240  16.754 -23.479  0.00  0.00    -0.305 OA
BRANCH  19  20
ATOM     20  C   UNL d   1      33.156  16.480 -24.252  0.00  0.00     0.123 C 
ATOM     21  C   UNL d   1      33.120  15.675 -24.399  0.00  0.00     0.029 C 
ENDBRANCH  19  20
ENDBRANCH  16  19
ENDBRANCH  11  13
ENDBRANCH   2  10
BRANCH   1  22
ATOM     22  C   UNL d   1      32.701  20.998 -20.857  0.00  0.00     0.321 C 
ATOM     23  O   UNL d   1      33.194  20.323 -20.765  0.00  0.00    -0.261 OA
ATOM     24  N   UNL d   1      32.121  21.169 -20.278  0.00  0.00    -0.101 N 
ENDBRANCH   1  22
TORSDOF 5
ENDMDL
MODEL 4
REMARK VINA RESULT:       1.3      1.091      1.286
REMARK  5 active torsions:
REMARK  status: ('A' for Active; 'I' for Inactive)
REMARK    1  A    between atoms: C_8  and  C_1 
REMARK    2  A    between atoms: N_4  and  C_2 
REMARK       I    between atoms: C_6  and  N_4 
REMARK    3  A    between atoms: C_9  and  C_6 
REMARK    4  A    between atoms: O_20  and  C_15 
REMARK    5  A    between atoms: C_21  and  O_20 
ROOT
ATOM      1  C   UNL d   1      31.161  17.339 -24.200  0.00  0.00     0.177 A 
ATOM      2  C   UNL d   1      31.863  17.609 -23.859  0.00  0.00     0.114 A 
ATOM      3  O   UNL d   1      31.117  16.512 -24.091  0.00  0.00    -0.301 OA
ATOM      4  C   UNL d   1      32.260  16.962 -23.538  0.00  0.00     0.043 A 
ATOM      5  C   UNL d   1      31.788  16.273 -23.685  0.00  0.00     0.102 A 
ATOM      6  C   UNL d   1      32.972  16.894 -23.138  0.00  0.00     0.004 A 
ATOM      7  C   UNL d   1      32.052  15.543 -23.423  0.00  0.00     0.025 A 
ATOM      8  C   UNL d   1      33.241  16.154 -22.871  0.00  0.00     0.000 A 
ATOM      9  C   UNL d   1      32.791  15.485 -23.010  0.00  0.00     0.002 A 
ENDROOT
BRANCH   2  10
ATOM     10  N   UNL d   1      32.112  18.420 -23.854  0.00  0.00    -0.206 NA
ATOM     11  C   UNL d   1      32.268  18.794 -23.133  0.00  0.00     0.279 C 
ATOM     12  O   UNL d   1      32.187  18.396 -22.419  0.00  0.00    -0.265 OA
BRANCH  11  13
ATOM     13  C   UNL d   1      32.511  19.584 -23.127  0.00  0.00     0.058 A 
ATOM     14  C   UNL d   1      32.746  19.920 -22.430  0.00  0.00     0.007 A 
ATOM     15  C   UNL d   1      32.995  20.728 -22.424  0.00  0.00     0.025 A 
ATOM     16  C   UNL d   1      32.993  21.155 -23.124  0.00  0.00     0.100 A 
ATOM     17  C   UNL d   1      32.751  20.813 -23.846  0.00  0.00     0.025 A 
ATOM     18  C   UNL d   1      32.503  20.005 -23.852  0.00  0.00     0.007 A 
BRANCH  16  19
ATOM     19  O   UNL d   1      33.241  21.962 -23.119  0.00  0.00    -0.305 OA
BRANCH  19  20
ATOM     20  C   UNL d   1      32.731  22.547 -22.842  0.00  0.00     0.123 C 
ATOM     21  C   UNL d   1      32.978  23.328 -22.820  0.00  0.00     0.029 C 
ENDBRANCH  19  20
ENDBRANCH  16  19
ENDBRANCH  11  13
ENDBRANCH   2  10
BRANCH   1  22
ATOM     22  C   UNL d   1      30.618  17.830 -24.576  0.00  0.00     0.321 C 
ATOM     23  O   UNL d   1      30.889  18.439 -25.087  0.00  0.00    -0.261 OA
ATOM     24  N   UNL d   1      29.796  17.727 -24.454  0.00  0.00    -0.101 N 
ENDBRANCH   1  22
TORSDOF 5
ENDMDL
