MODEL 1
REMARK VINA RESULT:      -8.8      0.000      0.000
REMARK  3 active torsions:
REMARK  status: ('A' for Active; 'I' for Inactive)
REMARK    1  A    between atoms: N_6  and  C_2 
REMARK    2  A    between atoms: C_8  and  C_5 
REMARK    3  A    between atoms: C_9  and  N_7 
ROOT
ATOM      1  N   UNL d   1      52.008  33.609  53.206  0.00  0.00    -0.281 N 
ATOM      2  N   UNL d   1      50.590  34.214  52.645  0.00  0.00    -0.301 N 
ATOM      3  C   UNL d   1      51.296  33.262  53.439  0.00  0.00     0.101 A 
ATOM      4  C   UNL d   1      52.008  34.261  52.691  0.00  0.00     0.101 A 
ATOM      5  C   UNL d   1      51.298  34.553  52.418  0.00  0.00     0.100 A 
ATOM      6  C   UNL d   1      50.595  33.565  53.158  0.00  0.00     0.100 A 
ENDROOT
BRANCH   1   7
ATOM      7  C   UNL d   1      52.722  33.303  53.491  0.00  0.00     0.183 A 
ATOM      8  N   UNL d   1      53.140  32.671  53.180  0.00  0.00    -0.183 NA
ATOM      9  C   UNL d   1      53.819  32.557  53.637  0.00  0.00     0.287 A 
ATOM     10  C   UNL d   1      53.813  33.130  54.235  0.00  0.00     0.090 A 
ATOM     11  O   UNL d   1      54.390  31.985  53.520  0.00  0.00    -0.265 OA
ATOM     12  S   UNL d   1      53.140  33.592  54.149  0.00  0.00    -0.045 SA
BRANCH  10  13
ATOM     13  C   UNL d   1      54.391  33.216  54.818  0.00  0.00     0.011 C 
ATOM     14  C   UNL d   1      55.061  33.682  54.681  0.00  0.00     0.001 C 
ATOM     15  C   UNL d   1      54.302  32.835  55.544  0.00  0.00     0.001 C 
ENDBRANCH  10  13
ENDBRANCH   1   7
BRANCH   2  16
ATOM     16  C   UNL d   1      49.874  34.517  52.362  0.00  0.00     0.064 A 
ATOM     17  C   UNL d   1      49.639  34.351  51.589  0.00  0.00     0.018 A 
ATOM     18  C   UNL d   1      48.922  34.656  51.309  0.00  0.00     0.002 A 
ATOM     19  C   UNL d   1      48.448  35.120  51.797  0.00  0.00     0.000 A 
ATOM     20  C   UNL d   1      48.692  35.281  52.573  0.00  0.00     0.002 A 
ATOM     21  C   UNL d   1      47.733  35.423  51.517  0.00  0.00     0.000 C 
ATOM     22  C   UNL d   1      49.409  34.978  52.856  0.00  0.00     0.018 A 
ENDBRANCH   2  16
TORSDOF 3
ENDMDL
MODEL 2
REMARK VINA RESULT:      -7.1      1.875      5.161
REMARK  3 active torsions:
REMARK  status: ('A' for Active; 'I' for Inactive)
REMARK    1  A    between atoms: N_6  and  C_2 
REMARK    2  A    between atoms: C_8  and  C_5 
REMARK    3  A    between atoms: C_9  and  N_7 
ROOT
ATOM      1  N   UNL d   1      50.543  34.246  52.574  0.00  0.00    -0.281 N 
ATOM      2  N   UNL d   1      51.955  33.832  53.298  0.00  0.00    -0.301 N 
ATOM      3  C   UNL d   1      51.258  34.485  52.238  0.00  0.00     0.101 A 
ATOM      4  C   UNL d   1      50.536  33.799  53.275  0.00  0.00     0.101 A 
ATOM      5  C   UNL d   1      51.243  33.599  53.625  0.00  0.00     0.100 A 
ATOM      6  C   UNL d   1      51.957  34.278  52.601  0.00  0.00     0.100 A 
ENDROOT
BRANCH   1   7
ATOM      7  C   UNL d   1      49.831  34.456  52.208  0.00  0.00     0.183 A 
ATOM      8  N   UNL d   1      49.553  34.181  51.488  0.00  0.00    -0.183 NA
ATOM      9  C   UNL d   1      48.822  34.537  51.337  0.00  0.00     0.287 A 
ATOM     10  C   UNL d   1      48.654  35.036  51.976  0.00  0.00     0.090 A 
ATOM     11  O   UNL d   1      48.354  34.417  50.679  0.00  0.00    -0.265 OA
ATOM     12  S   UNL d   1      49.272  34.990  52.514  0.00  0.00    -0.045 SA
BRANCH  10  13
ATOM     13  C   UNL d   1      47.976  35.500  52.051  0.00  0.00     0.011 C 
ATOM     14  C   UNL d   1      47.422  35.539  51.440  0.00  0.00     0.001 C 
ATOM     15  C   UNL d   1      47.849  35.930  52.744  0.00  0.00     0.001 C 
ENDBRANCH  10  13
ENDBRANCH   1   7
BRANCH   2  16
ATOM     16  C   UNL d   1      52.669  33.624  53.662  0.00  0.00     0.064 A 
ATOM     17  C   UNL d   1      53.072  32.951  53.409  0.00  0.00     0.018 A 
ATOM     18  C   UNL d   1      53.785  32.745  53.775  0.00  0.00     0.002 A 
ATOM     19  C   UNL d   1      54.090  33.207  54.385  0.00  0.00     0.000 A 
ATOM     20  C   UNL d   1      53.677  33.882  54.632  0.00  0.00     0.002 A 
ATOM     21  C   UNL d   1      54.801  33.001  54.749  0.00  0.00     0.000 C 
ATOM     22  C   UNL d   1      52.963  34.091  54.269  0.00  0.00     0.018 A 
ENDBRANCH   2  16
TORSDOF 3
ENDMDL
