MODEL 1
REMARK VINA RESULT:      -2.7      0.000      0.000
REMARK  5 active torsions:
REMARK  status: ('A' for Active; 'I' for Inactive)
REMARK    1  A    between atoms: C_11  and  N_2 
REMARK    2  A    between atoms: C_6  and  O_13 
REMARK    3  A    between atoms: C_12  and  C_7 
REMARK    4  A    between atoms: C_16  and  C_11 
REMARK    5  A    between atoms: O_13  and  C_16 
ROOT
ATOM      1  C   UNL d   1      32.481  18.341 -23.766  0.00  0.00     0.142 C 
ENDROOT
BRANCH   1   2
ATOM      2  O   UNL d   1      32.490  17.521 -23.819  0.00  0.00    -0.304 OA
BRANCH   2   3
ATOM      3  C   UNL d   1      31.785  17.116 -23.956  0.00  0.00     0.100 A 
ATOM      4  C   UNL d   1      31.755  16.299 -23.866  0.00  0.00     0.023 A 
ATOM      5  C   UNL d   1      31.058  15.888 -24.000  0.00  0.00     0.002 A 
ATOM      6  C   UNL d   1      30.375  16.306 -24.229  0.00  0.00     0.000 A 
ATOM      7  C   UNL d   1      30.403  17.126 -24.321  0.00  0.00     0.002 A 
ATOM      8  C   UNL d   1      31.108  17.532 -24.184  0.00  0.00     0.025 A 
ATOM      9  C   UNL d   1      29.728  17.539 -24.548  0.00  0.00     0.000 C 
BRANCH   4  10
ATOM     10  C   UNL d   1      32.433  15.888 -23.638  0.00  0.00     0.002 C 
ATOM     11  C   UNL d   1      32.502  15.585 -22.873  0.00  0.00     0.000 C 
ATOM     12  C   UNL d   1      33.050  15.775 -24.173  0.00  0.00     0.000 C 
ENDBRANCH   4  10
ENDBRANCH   2   3
ENDBRANCH   1   2
BRANCH   1  13
ATOM     13  C   UNL d   1      33.195  18.753 -23.727  0.00  0.00     0.112 C 
BRANCH  13  14
ATOM     14  N   UNL d   1      33.207  19.523 -23.444  0.00  0.00    -0.249 N 
ATOM     15  C   UNL d   1      33.230  20.107 -24.038  0.00  0.00     0.378 A 
ATOM     16  O   UNL d   1      33.241  20.852 -23.678  0.00  0.00    -0.258 OA
ATOM     17  O   UNL d   1      33.241  19.957 -24.848  0.00  0.00    -0.237 OA
ATOM     18  C   UNL d   1      33.224  20.735 -22.851  0.00  0.00     0.121 A 
ATOM     19  C   UNL d   1      33.224  21.261 -22.214  0.00  0.00     0.026 A 
ATOM     20  C   UNL d   1      33.203  19.914 -22.712  0.00  0.00     0.092 A 
ATOM     21  C   UNL d   1      33.205  20.974 -21.443  0.00  0.00     0.002 A 
ATOM     22  C   UNL d   1      33.184  20.161 -21.306  0.00  0.00     0.002 A 
ATOM     23  C   UNL d   1      33.183  19.627 -21.937  0.00  0.00     0.020 A 
ENDBRANCH  13  14
ENDBRANCH   1  13
TORSDOF 5
ENDMDL
MODEL 2
REMARK VINA RESULT:      -1.4      1.303      4.713
REMARK  5 active torsions:
REMARK  status: ('A' for Active; 'I' for Inactive)
REMARK    1  A    between atoms: C_11  and  N_2 
REMARK    2  A    between atoms: C_6  and  O_13 
REMARK    3  A    between atoms: C_12  and  C_7 
REMARK    4  A    between atoms: C_16  and  C_11 
REMARK    5  A    between atoms: O_13  and  C_16 
ROOT
ATOM      1  C   UNL d   1      32.737  20.607 -23.047  0.00  0.00     0.142 C 
ENDROOT
BRANCH   1   2
ATOM      2  O   UNL d   1      32.993  20.925 -22.333  0.00  0.00    -0.304 OA
BRANCH   2   3
ATOM      3  C   UNL d   1      32.841  21.718 -22.164  0.00  0.00     0.100 A 
ATOM      4  C   UNL d   1      32.625  21.943 -21.403  0.00  0.00     0.023 A 
ATOM      5  C   UNL d   1      32.472  22.729 -21.227  0.00  0.00     0.002 A 
ATOM      6  C   UNL d   1      32.538  23.303 -21.827  0.00  0.00     0.000 A 
ATOM      7  C   UNL d   1      32.754  23.079 -22.592  0.00  0.00     0.002 A 
ATOM      8  C   UNL d   1      32.906  22.286 -22.761  0.00  0.00     0.025 A 
ATOM      9  C   UNL d   1      32.819  23.646 -23.185  0.00  0.00     0.000 C 
BRANCH   4  10
ATOM     10  C   UNL d   1      32.561  21.372 -20.811  0.00  0.00     0.002 C 
ATOM     11  C   UNL d   1      31.826  21.051 -20.617  0.00  0.00     0.000 C 
ATOM     12  C   UNL d   1      33.233  21.116 -20.406  0.00  0.00     0.000 C 
ENDBRANCH   4  10
ENDBRANCH   2   3
ENDBRANCH   1   2
BRANCH   1  13
ATOM     13  C   UNL d   1      33.240  20.111 -23.474  0.00  0.00     0.112 C 
BRANCH  13  14
ATOM     14  N   UNL d   1      32.938  19.444 -23.843  0.00  0.00    -0.249 N 
ATOM     15  C   UNL d   1      32.794  19.538 -24.658  0.00  0.00     0.378 A 
ATOM     16  O   UNL d   1      32.493  18.828 -24.959  0.00  0.00    -0.258 OA
ATOM     17  O   UNL d   1      32.932  20.229 -25.086  0.00  0.00    -0.237 OA
ATOM     18  C   UNL d   1      32.447  18.284 -24.327  0.00  0.00     0.121 A 
ATOM     19  C   UNL d   1      32.194  17.499 -24.285  0.00  0.00     0.026 A 
ATOM     20  C   UNL d   1      32.723  18.668 -23.641  0.00  0.00     0.092 A 
ATOM     21  C   UNL d   1      32.215  17.097 -23.568  0.00  0.00     0.002 A 
ATOM     22  C   UNL d   1      32.488  17.477 -22.889  0.00  0.00     0.002 A 
ATOM     23  C   UNL d   1      32.743  18.264 -22.921  0.00  0.00     0.020 A 
ENDBRANCH  13  14
ENDBRANCH   1  13
TORSDOF 5
ENDMDL
MODEL 3
REMARK VINA RESULT:      -0.8      1.562      2.779
REMARK  5 active torsions:
REMARK  status: ('A' for Active; 'I' for Inactive)
REMARK    1  A    between atoms: C_11  and  N_2 
REMARK    2  A    between atoms: C_6  and  O_13 
REMARK    3  A    between atoms: C_12  and  C_7 
REMARK    4  A    between atoms: C_16  and  C_11 
REMARK    5  A    between atoms: O_13  and  C_16 
ROOT
ATOM      1  C   UNL d   1      32.697  19.547 -22.482  0.00  0.00     0.142 C 
ENDROOT
BRANCH   1   2
ATOM      2  O   UNL d   1      32.805  19.312 -23.262  0.00  0.00    -0.304 OA
BRANCH   2   3
ATOM      3  C   UNL d   1      32.838  18.508 -23.443  0.00  0.00     0.100 A 
ATOM      4  C   UNL d   1      32.687  18.252 -24.210  0.00  0.00     0.023 A 
ATOM      5  C   UNL d   1      32.717  17.454 -24.398  0.00  0.00     0.002 A 
ATOM      6  C   UNL d   1      32.902  16.900 -23.804  0.00  0.00     0.000 A 
ATOM      7  C   UNL d   1      33.054  17.156 -23.033  0.00  0.00     0.002 A 
ATOM      8  C   UNL d   1      33.022  17.960 -22.853  0.00  0.00     0.025 A 
ATOM      9  C   UNL d   1      33.238  16.609 -22.447  0.00  0.00     0.000 C 
BRANCH   4  10
ATOM     10  C   UNL d   1      32.503  18.803 -24.796  0.00  0.00     0.002 C 
ATOM     11  C   UNL d   1      31.733  18.860 -25.090  0.00  0.00     0.000 C 
ATOM     12  C   UNL d   1      33.088  19.302 -25.096  0.00  0.00     0.000 C 
ENDBRANCH   4  10
ENDBRANCH   2   3
ENDBRANCH   1   2
BRANCH   1  13
ATOM     13  C   UNL d   1      33.241  20.060 -22.134  0.00  0.00     0.112 C 
BRANCH  13  14
ATOM     14  N   UNL d   1      32.977  20.739 -21.755  0.00  0.00    -0.249 N 
ATOM     15  C   UNL d   1      32.790  20.632 -20.950  0.00  0.00     0.378 A 
ATOM     16  O   UNL d   1      32.534  21.354 -20.638  0.00  0.00    -0.258 OA
ATOM     17  O   UNL d   1      32.854  19.920 -20.540  0.00  0.00    -0.237 OA
ATOM     18  C   UNL d   1      32.559  21.920 -21.253  0.00  0.00     0.121 A 
ATOM     19  C   UNL d   1      32.372  22.724 -21.278  0.00  0.00     0.026 A 
ATOM     20  C   UNL d   1      32.833  21.535 -21.939  0.00  0.00     0.092 A 
ATOM     21  C   UNL d   1      32.456  23.144 -21.980  0.00  0.00     0.002 A 
ATOM     22  C   UNL d   1      32.727  22.763 -22.660  0.00  0.00     0.002 A 
ATOM     23  C   UNL d   1      32.917  21.958 -22.644  0.00  0.00     0.020 A 
ENDBRANCH  13  14
ENDBRANCH   1  13
TORSDOF 5
ENDMDL
MODEL 4
REMARK VINA RESULT:      -0.3      1.965      4.349
REMARK  5 active torsions:
REMARK  status: ('A' for Active; 'I' for Inactive)
REMARK    1  A    between atoms: C_11  and  N_2 
REMARK    2  A    between atoms: C_6  and  O_13 
REMARK    3  A    between atoms: C_12  and  C_7 
REMARK    4  A    between atoms: C_16  and  C_11 
REMARK    5  A    between atoms: O_13  and  C_16 
ROOT
ATOM      1  C   UNL d   1      30.837  16.929 -24.189  0.00  0.00     0.142 C 
ENDROOT
BRANCH   1   2
ATOM      2  O   UNL d   1      31.615  17.068 -24.416  0.00  0.00    -0.304 OA
BRANCH   2   3
ATOM      3  C   UNL d   1      32.152  17.360 -23.862  0.00  0.00     0.100 A 
ATOM      4  C   UNL d   1      32.703  16.856 -23.517  0.00  0.00     0.023 A 
ATOM      5  C   UNL d   1      33.241  17.137 -22.966  0.00  0.00     0.002 A 
ATOM      6  C   UNL d   1      33.227  17.943 -22.756  0.00  0.00     0.000 A 
ATOM      7  C   UNL d   1      32.675  18.451 -23.101  0.00  0.00     0.002 A 
ATOM      8  C   UNL d   1      32.137  18.160 -23.655  0.00  0.00     0.025 A 
ATOM      9  C   UNL d   1      32.662  19.247 -22.893  0.00  0.00     0.000 C 
BRANCH   4  10
ATOM     10  C   UNL d   1      32.714  16.058 -23.728  0.00  0.00     0.002 C 
ATOM     11  C   UNL d   1      32.396  15.487 -23.223  0.00  0.00     0.000 C 
ATOM     12  C   UNL d   1      33.044  15.822 -24.446  0.00  0.00     0.000 C 
ENDBRANCH   4  10
ENDBRANCH   2   3
ENDBRANCH   1   2
BRANCH   1  13
ATOM     13  C   UNL d   1      30.226  17.081 -24.722  0.00  0.00     0.112 C 
BRANCH  13  14
ATOM     14  N   UNL d   1      29.448  17.078 -24.461  0.00  0.00    -0.249 N 
ATOM     15  C   UNL d   1      29.018  17.764 -24.658  0.00  0.00     0.378 A 
ATOM     16  O   UNL d   1      28.248  17.689 -24.365  0.00  0.00    -0.258 OA
ATOM     17  O   UNL d   1      29.319  18.407 -25.077  0.00  0.00    -0.237 OA
ATOM     18  C   UNL d   1      28.194  16.949 -23.980  0.00  0.00     0.121 A 
ATOM     19  C   UNL d   1      27.574  16.570 -23.586  0.00  0.00     0.026 A 
ATOM     20  C   UNL d   1      28.936  16.576 -24.043  0.00  0.00     0.092 A 
ATOM     21  C   UNL d   1      27.691  15.825 -23.256  0.00  0.00     0.002 A 
ATOM     22  C   UNL d   1      28.426  15.456 -23.318  0.00  0.00     0.002 A 
ATOM     23  C   UNL d   1      29.052  15.828 -23.711  0.00  0.00     0.020 A 
ENDBRANCH  13  14
ENDBRANCH   1  13
TORSDOF 5
ENDMDL
