MODEL 1
REMARK VINA RESULT:      40.4      0.000      0.000
REMARK  4 active torsions:
REMARK  status: ('A' for Active; 'I' for Inactive)
REMARK    1  A    between atoms: C_7  and  C_3 
REMARK    2  A    between atoms: S_6  and  C_4 
REMARK    3  A    between atoms: C_9  and  S_6 
REMARK    4  A    between atoms: C_10  and  C_9 
ROOT
ATOM      1  O   UNL d   1     -50.934  25.493  33.327  0.00  0.00    -0.263 OA
ATOM      2  N   UNL d   1     -52.150  26.084  33.352  0.00  0.00    -0.120 NA
ATOM      3  C   UNL d   1     -51.752  25.344  33.337  0.00  0.00     0.205 A 
ATOM      4  C   UNL d   1     -50.820  26.317  33.335  0.00  0.00     0.236 A 
ATOM      5  N   UNL d   1     -51.566  26.670  33.351  0.00  0.00    -0.114 NA
ENDROOT
BRANCH   4   6
ATOM      6  S   UNL d   1     -50.097  26.705  33.329  0.00  0.00    -0.041 SA
BRANCH   6   7
ATOM      7  C   UNL d   1     -49.536  26.573  33.937  0.00  0.00     0.039 C 
BRANCH   7   8
ATOM      8  C   UNL d   1     -49.222  27.193  34.344  0.00  0.00     0.007 A 
ATOM      9  C   UNL d   1     -49.532  27.415  35.078  0.00  0.00     0.001 A 
ATOM     10  C   UNL d   1     -49.219  28.048  35.504  0.00  0.00     0.000 A 
ATOM     11  C   UNL d   1     -48.582  28.470  35.191  0.00  0.00     0.000 A 
ATOM     12  C   UNL d   1     -48.265  28.243  34.443  0.00  0.00     0.000 A 
ATOM     13  C   UNL d   1     -48.582  27.617  34.031  0.00  0.00     0.001 A 
ENDBRANCH   7   8
ENDBRANCH   6   7
ENDBRANCH   4   6
BRANCH   3  14
ATOM     14  C   UNL d   1     -52.151  24.628  33.334  0.00  0.00     0.046 A 
ATOM     15  C   UNL d   1     -52.980  24.624  33.329  0.00  0.00     0.024 A 
ATOM     16  C   UNL d   1     -53.385  23.909  33.326  0.00  0.00     0.099 A 
ATOM     17  N   UNL d   1     -52.959  23.189  33.328  0.00  0.00    -0.242 NA
ATOM     18  C   UNL d   1     -52.156  23.221  33.333  0.00  0.00     0.099 A 
ATOM     19  C   UNL d   1     -51.739  23.932  33.336  0.00  0.00     0.024 A 
ENDBRANCH   3  14
TORSDOF 4
ENDMDL
MODEL 2
REMARK VINA RESULT:      42.9      1.124      1.734
REMARK  4 active torsions:
REMARK  status: ('A' for Active; 'I' for Inactive)
REMARK    1  A    between atoms: C_7  and  C_3 
REMARK    2  A    between atoms: S_6  and  C_4 
REMARK    3  A    between atoms: C_9  and  S_6 
REMARK    4  A    between atoms: C_10  and  C_9 
ROOT
ATOM      1  O   UNL d   1     -49.861  26.489  33.947  0.00  0.00    -0.263 OA
ATOM      2  N   UNL d   1     -50.957  26.957  33.307  0.00  0.00    -0.120 NA
ATOM      3  C   UNL d   1     -50.575  26.262  33.588  0.00  0.00     0.205 A 
ATOM      4  C   UNL d   1     -49.794  27.316  33.892  0.00  0.00     0.236 A 
ATOM      5  N   UNL d   1     -50.466  27.593  33.501  0.00  0.00    -0.114 NA
ENDROOT
BRANCH   4   6
ATOM      6  S   UNL d   1     -49.172  27.770  34.176  0.00  0.00    -0.041 SA
BRANCH   6   7
ATOM      7  C   UNL d   1     -49.190  28.081  34.954  0.00  0.00     0.039 C 
BRANCH   7   8
ATOM      8  C   UNL d   1     -48.613  28.582  35.206  0.00  0.00     0.007 A 
ATOM      9  C   UNL d   1     -48.357  29.205  34.725  0.00  0.00     0.001 A 
ATOM     10  C   UNL d   1     -47.767  29.725  34.971  0.00  0.00     0.000 A 
ATOM     11  C   UNL d   1     -47.423  29.623  35.716  0.00  0.00     0.000 A 
ATOM     12  C   UNL d   1     -47.684  28.988  36.206  0.00  0.00     0.000 A 
ATOM     13  C   UNL d   1     -48.267  28.481  35.952  0.00  0.00     0.001 A 
ENDBRANCH   7   8
ENDBRANCH   6   7
ENDBRANCH   4   6
BRANCH   3  14
ATOM     14  C   UNL d   1     -50.898  25.514  33.496  0.00  0.00     0.046 A 
ATOM     15  C   UNL d   1     -51.722  25.421  33.507  0.00  0.00     0.024 A 
ATOM     16  C   UNL d   1     -52.050  24.674  33.415  0.00  0.00     0.099 A 
ATOM     17  N   UNL d   1     -51.552  24.010  33.312  0.00  0.00    -0.242 NA
ATOM     18  C   UNL d   1     -50.757  24.127  33.306  0.00  0.00     0.099 A 
ATOM     19  C   UNL d   1     -50.416  24.872  33.396  0.00  0.00     0.024 A 
ENDBRANCH   3  14
TORSDOF 4
ENDMDL
