MODEL 1
REMARK VINA RESULT:      -3.3      0.000      0.000
REMARK  3 active torsions:
REMARK  status: ('A' for Active; 'I' for Inactive)
REMARK    1  A    between atoms: N_5  and  C_2 
REMARK    2  A    between atoms: C_14  and  C_4 
REMARK       I    between atoms: C_7  and  N_5 
REMARK    3  A    between atoms: C_8  and  C_7 
ROOT
ATOM      1  S   UNL d   1      33.059  20.236 -22.490  0.00  0.00    -0.026 SA
ATOM      2  C   UNL d   1      33.138  20.531 -21.722  0.00  0.00     0.219 A 
ATOM      3  N   UNL d   1      33.223  19.190 -21.718  0.00  0.00    -0.139 NA
ATOM      4  C   UNL d   1      33.112  19.420 -22.479  0.00  0.00     0.135 A 
ATOM      5  N   UNL d   1      33.241  19.874 -21.238  0.00  0.00    -0.121 NA
ENDROOT
BRANCH   2   6
ATOM      6  N   UNL d   1      33.129  21.298 -21.404  0.00  0.00    -0.181 NA
ATOM      7  C   UNL d   1      32.446  21.574 -21.062  0.00  0.00     0.287 C 
ATOM      8  O   UNL d   1      31.754  21.119 -21.018  0.00  0.00    -0.265 OA
BRANCH   7   9
ATOM      9  C   UNL d   1      32.442  22.317 -20.756  0.00  0.00     0.087 A 
ATOM     10  S   UNL d   1      32.160  22.973 -21.143  0.00  0.00    -0.082 SA
ATOM     11  C   UNL d   1      32.258  23.630 -20.630  0.00  0.00     0.036 A 
ATOM     12  C   UNL d   1      32.591  23.364 -19.956  0.00  0.00     0.008 A 
ATOM     13  C   UNL d   1      32.715  22.568 -20.004  0.00  0.00     0.012 A 
ENDBRANCH   7   9
ENDBRANCH   2   6
BRANCH   4  14
ATOM     14  C   UNL d   1      33.057  18.921 -23.161  0.00  0.00     0.026 C 
ATOM     15  C   UNL d   1      33.223  19.191 -23.923  0.00  0.00     0.002 C 
ATOM     16  C   UNL d   1      32.824  18.124 -23.058  0.00  0.00     0.002 C 
ENDBRANCH   4  14
TORSDOF 3
ENDMDL
MODEL 2
REMARK VINA RESULT:      -2.8      2.745      4.555
REMARK  3 active torsions:
REMARK  status: ('A' for Active; 'I' for Inactive)
REMARK    1  A    between atoms: N_5  and  C_2 
REMARK    2  A    between atoms: C_14  and  C_4 
REMARK       I    between atoms: C_7  and  N_5 
REMARK    3  A    between atoms: C_8  and  C_7 
ROOT
ATOM      1  S   UNL d   1      32.786  23.563 -18.667  0.00  0.00    -0.026 SA
ATOM      2  C   UNL d   1      33.021  23.092 -19.305  0.00  0.00     0.219 A 
ATOM      3  N   UNL d   1      33.136  22.410 -18.153  0.00  0.00    -0.139 NA
ATOM      4  C   UNL d   1      32.859  23.141 -17.971  0.00  0.00     0.135 A 
ATOM      5  N   UNL d   1      33.241  22.369 -18.982  0.00  0.00    -0.121 NA
ENDROOT
BRANCH   2   6
ATOM      6  N   UNL d   1      33.064  23.225 -20.124  0.00  0.00    -0.181 NA
ATOM      7  C   UNL d   1      32.509  22.880 -20.606  0.00  0.00     0.287 C 
ATOM      8  O   UNL d   1      31.899  22.400 -20.313  0.00  0.00    -0.265 OA
BRANCH   7   9
ATOM      9  C   UNL d   1      32.553  23.010 -21.398  0.00  0.00     0.087 A 
ATOM     10  S   UNL d   1      32.999  22.569 -21.913  0.00  0.00    -0.082 SA
ATOM     11  C   UNL d   1      32.889  22.888 -22.681  0.00  0.00     0.036 A 
ATOM     12  C   UNL d   1      32.388  23.505 -22.617  0.00  0.00     0.008 A 
ATOM     13  C   UNL d   1      32.166  23.603 -21.848  0.00  0.00     0.012 A 
ENDBRANCH   7   9
ENDBRANCH   2   6
BRANCH   4  14
ATOM     14  C   UNL d   1      32.671  23.439 -17.201  0.00  0.00     0.026 C 
ATOM     15  C   UNL d   1      33.227  23.479 -16.592  0.00  0.00     0.002 C 
ATOM     16  C   UNL d   1      31.891  23.702 -17.052  0.00  0.00     0.002 C 
ENDBRANCH   4  14
TORSDOF 3
ENDMDL
MODEL 3
REMARK VINA RESULT:      -2.6      3.979      5.871
REMARK  3 active torsions:
REMARK  status: ('A' for Active; 'I' for Inactive)
REMARK    1  A    between atoms: N_5  and  C_2 
REMARK    2  A    between atoms: C_14  and  C_4 
REMARK       I    between atoms: C_7  and  N_5 
REMARK    3  A    between atoms: C_8  and  C_7 
ROOT
ATOM      1  S   UNL d   1      31.857  17.594 -23.624  0.00  0.00    -0.026 SA
ATOM      2  C   UNL d   1      31.607  16.861 -23.914  0.00  0.00     0.219 A 
ATOM      3  N   UNL d   1      32.791  17.197 -24.454  0.00  0.00    -0.139 NA
ATOM      4  C   UNL d   1      32.578  17.790 -23.957  0.00  0.00     0.135 A 
ATOM      5  N   UNL d   1      32.193  16.612 -24.435  0.00  0.00    -0.121 NA
ENDROOT
BRANCH   2   6
ATOM      6  N   UNL d   1      30.934  16.395 -23.775  0.00  0.00    -0.181 NA
ATOM      7  C   UNL d   1      30.219  16.639 -24.073  0.00  0.00     0.287 C 
ATOM      8  O   UNL d   1      30.133  17.338 -24.511  0.00  0.00    -0.265 OA
BRANCH   7   9
ATOM      9  C   UNL d   1      29.569  16.185 -23.937  0.00  0.00     0.087 A 
ATOM     10  S   UNL d   1      29.042  15.953 -24.509  0.00  0.00    -0.082 SA
ATOM     11  C   UNL d   1      28.451  15.490 -24.134  0.00  0.00     0.036 A 
ATOM     12  C   UNL d   1      28.629  15.453 -23.358  0.00  0.00     0.008 A 
ATOM     13  C   UNL d   1      29.304  15.867 -23.208  0.00  0.00     0.012 A 
ENDBRANCH   7   9
ENDBRANCH   2   6
BRANCH   4  14
ATOM     14  C   UNL d   1      33.009  18.501 -23.795  0.00  0.00     0.026 C 
ATOM     15  C   UNL d   1      33.209  18.733 -23.028  0.00  0.00     0.002 C 
ATOM     16  C   UNL d   1      33.241  18.986 -24.436  0.00  0.00     0.002 C 
ENDBRANCH   4  14
TORSDOF 3
ENDMDL
MODEL 4
REMARK VINA RESULT:      -2.5      3.982      5.369
REMARK  3 active torsions:
REMARK  status: ('A' for Active; 'I' for Inactive)
REMARK    1  A    between atoms: N_5  and  C_2 
REMARK    2  A    between atoms: C_14  and  C_4 
REMARK       I    between atoms: C_7  and  N_5 
REMARK    3  A    between atoms: C_8  and  C_7 
ROOT
ATOM      1  S   UNL d   1      30.247  16.454 -23.672  0.00  0.00    -0.026 SA
ATOM      2  C   UNL d   1      30.994  16.491 -24.025  0.00  0.00     0.219 A 
ATOM      3  N   UNL d   1      30.296  15.455 -24.519  0.00  0.00    -0.139 NA
ATOM      4  C   UNL d   1      29.829  15.821 -23.979  0.00  0.00     0.135 A 
ATOM      5  N   UNL d   1      31.025  15.865 -24.556  0.00  0.00    -0.121 NA
ENDROOT
BRANCH   2   6
ATOM      6  N   UNL d   1      31.641  17.005 -23.933  0.00  0.00    -0.181 NA
ATOM      7  C   UNL d   1      31.593  17.755 -24.243  0.00  0.00     0.287 C 
ATOM      8  O   UNL d   1      30.923  18.029 -24.647  0.00  0.00    -0.265 OA
BRANCH   7   9
ATOM      9  C   UNL d   1      32.221  18.249 -24.152  0.00  0.00     0.087 A 
ATOM     10  S   UNL d   1      32.632  18.587 -24.765  0.00  0.00    -0.082 SA
ATOM     11  C   UNL d   1      33.239  19.060 -24.431  0.00  0.00     0.036 A 
ATOM     12  C   UNL d   1      33.184  19.000 -23.638  0.00  0.00     0.008 A 
ATOM     13  C   UNL d   1      32.573  18.513 -23.439  0.00  0.00     0.012 A 
ENDBRANCH   7   9
ENDBRANCH   2   6
BRANCH   4  14
ATOM     14  C   UNL d   1      29.042  15.605 -23.753  0.00  0.00     0.026 C 
ATOM     15  C   UNL d   1      28.811  15.532 -22.964  0.00  0.00     0.002 C 
ATOM     16  C   UNL d   1      28.478  15.460 -24.353  0.00  0.00     0.002 C 
ENDBRANCH   4  14
TORSDOF 3
ENDMDL
MODEL 5
REMARK VINA RESULT:      -2.3      2.139      4.892
REMARK  3 active torsions:
REMARK  status: ('A' for Active; 'I' for Inactive)
REMARK    1  A    between atoms: N_5  and  C_2 
REMARK    2  A    between atoms: C_14  and  C_4 
REMARK       I    between atoms: C_7  and  N_5 
REMARK    3  A    between atoms: C_8  and  C_7 
ROOT
ATOM      1  S   UNL d   1      33.194  19.196 -22.332  0.00  0.00    -0.026 SA
ATOM      2  C   UNL d   1      33.211  18.816 -23.066  0.00  0.00     0.219 A 
ATOM      3  N   UNL d   1      33.241  20.150 -23.229  0.00  0.00    -0.139 NA
ATOM      4  C   UNL d   1      33.212  20.006 -22.440  0.00  0.00     0.135 A 
ATOM      5  N   UNL d   1      33.241  19.415 -23.629  0.00  0.00    -0.121 NA
ENDROOT
BRANCH   2   6
ATOM      6  N   UNL d   1      33.204  18.017 -23.293  0.00  0.00    -0.181 NA
ATOM      7  C   UNL d   1      32.494  17.667 -23.475  0.00  0.00     0.287 C 
ATOM      8  O   UNL d   1      31.774  18.077 -23.444  0.00  0.00    -0.265 OA
BRANCH   7   9
ATOM      9  C   UNL d   1      32.491  16.894 -23.695  0.00  0.00     0.087 A 
ATOM     10  S   UNL d   1      31.961  16.565 -24.214  0.00  0.00    -0.082 SA
ATOM     11  C   UNL d   1      32.152  15.751 -24.288  0.00  0.00     0.036 A 
ATOM     12  C   UNL d   1      32.782  15.607 -23.821  0.00  0.00     0.008 A 
ATOM     13  C   UNL d   1      33.011  16.284 -23.448  0.00  0.00     0.012 A 
ENDBRANCH   7   9
ENDBRANCH   2   6
BRANCH   4  14
ATOM     14  C   UNL d   1      33.202  20.579 -21.816  0.00  0.00     0.026 C 
ATOM     15  C   UNL d   1      33.197  20.366 -21.019  0.00  0.00     0.002 C 
ATOM     16  C   UNL d   1      33.196  21.391 -22.017  0.00  0.00     0.002 C 
ENDBRANCH   4  14
TORSDOF 3
ENDMDL
MODEL 6
REMARK VINA RESULT:      -2.2      0.984      3.982
REMARK  3 active torsions:
REMARK  status: ('A' for Active; 'I' for Inactive)
REMARK    1  A    between atoms: N_5  and  C_2 
REMARK    2  A    between atoms: C_14  and  C_4 
REMARK       I    between atoms: C_7  and  N_5 
REMARK    3  A    between atoms: C_8  and  C_7 
ROOT
ATOM      1  S   UNL d   1      33.093  21.746 -21.071  0.00  0.00    -0.026 SA
ATOM      2  C   UNL d   1      32.703  21.025 -21.178  0.00  0.00     0.219 A 
ATOM      3  N   UNL d   1      31.906  21.897 -20.538  0.00  0.00    -0.139 NA
ATOM      4  C   UNL d   1      32.602  22.270 -20.681  0.00  0.00     0.135 A 
ATOM      5  N   UNL d   1      31.958  21.120 -20.843  0.00  0.00    -0.121 NA
ENDROOT
BRANCH   2   6
ATOM      6  N   UNL d   1      32.923  20.305 -21.530  0.00  0.00    -0.181 NA
ATOM      7  C   UNL d   1      32.677  20.148 -22.288  0.00  0.00     0.287 C 
ATOM      8  O   UNL d   1      32.214  20.678 -22.726  0.00  0.00    -0.265 OA
BRANCH   7   9
ATOM      9  C   UNL d   1      32.893  19.451 -22.625  0.00  0.00     0.087 A 
ATOM     10  S   UNL d   1      33.030  19.347 -23.419  0.00  0.00    -0.082 SA
ATOM     11  C   UNL d   1      33.240  18.543 -23.535  0.00  0.00     0.036 A 
ATOM     12  C   UNL d   1      33.226  18.183 -22.823  0.00  0.00     0.008 A 
ATOM     13  C   UNL d   1      33.018  18.711 -22.251  0.00  0.00     0.012 A 
ENDBRANCH   7   9
ENDBRANCH   2   6
BRANCH   4  14
ATOM     14  C   UNL d   1      32.808  23.065 -20.474  0.00  0.00     0.026 C 
ATOM     15  C   UNL d   1      32.946  23.298 -19.694  0.00  0.00     0.002 C 
ATOM     16  C   UNL d   1      32.875  23.635 -21.083  0.00  0.00     0.002 C 
ENDBRANCH   4  14
TORSDOF 3
ENDMDL
MODEL 7
REMARK VINA RESULT:      -2.2      1.954      2.982
REMARK  3 active torsions:
REMARK  status: ('A' for Active; 'I' for Inactive)
REMARK    1  A    between atoms: N_5  and  C_2 
REMARK    2  A    between atoms: C_14  and  C_4 
REMARK       I    between atoms: C_7  and  N_5 
REMARK    3  A    between atoms: C_8  and  C_7 
ROOT
ATOM      1  S   UNL d   1      32.163  17.711 -23.513  0.00  0.00    -0.026 SA
ATOM      2  C   UNL d   1      32.698  17.953 -22.930  0.00  0.00     0.219 A 
ATOM      3  N   UNL d   1      33.025  16.732 -23.386  0.00  0.00    -0.139 NA
ATOM      4  C   UNL d   1      32.370  16.968 -23.785  0.00  0.00     0.135 A 
ATOM      5  N   UNL d   1      33.239  17.339 -22.851  0.00  0.00    -0.121 NA
ENDROOT
BRANCH   2   6
ATOM      6  N   UNL d   1      32.763  18.641 -22.469  0.00  0.00    -0.181 NA
ATOM      7  C   UNL d   1      32.983  19.335 -22.828  0.00  0.00     0.287 C 
ATOM      8  O   UNL d   1      33.146  19.386 -23.639  0.00  0.00    -0.265 OA
BRANCH   7   9
ATOM      9  C   UNL d   1      33.045  19.999 -22.378  0.00  0.00     0.087 A 
ATOM     10  S   UNL d   1      33.236  20.733 -22.666  0.00  0.00    -0.082 SA
ATOM     11  C   UNL d   1      33.240  21.265 -22.016  0.00  0.00     0.036 A 
ATOM     12  C   UNL d   1      33.056  20.849 -21.362  0.00  0.00     0.008 A 
ATOM     13  C   UNL d   1      32.932  20.075 -21.551  0.00  0.00     0.012 A 
ENDBRANCH   7   9
ENDBRANCH   2   6
BRANCH   4  14
ATOM     14  C   UNL d   1      31.952  16.538 -24.383  0.00  0.00     0.026 C 
ATOM     15  C   UNL d   1      31.150  16.354 -24.319  0.00  0.00     0.002 C 
ATOM     16  C   UNL d   1      32.370  16.290 -25.064  0.00  0.00     0.002 C 
ENDBRANCH   4  14
TORSDOF 3
ENDMDL
MODEL 8
REMARK VINA RESULT:      -2.0      1.222      4.202
REMARK  3 active torsions:
REMARK  status: ('A' for Active; 'I' for Inactive)
REMARK    1  A    between atoms: N_5  and  C_2 
REMARK    2  A    between atoms: C_14  and  C_4 
REMARK       I    between atoms: C_7  and  N_5 
REMARK    3  A    between atoms: C_8  and  C_7 
ROOT
ATOM      1  S   UNL d   1      32.950  22.399 -19.854  0.00  0.00    -0.026 SA
ATOM      2  C   UNL d   1      33.004  22.372 -20.679  0.00  0.00     0.219 A 
ATOM      3  N   UNL d   1      32.659  23.606 -20.274  0.00  0.00    -0.139 NA
ATOM      4  C   UNL d   1      32.740  23.153 -19.616  0.00  0.00     0.135 A 
ATOM      5  N   UNL d   1      32.822  23.129 -20.942  0.00  0.00    -0.121 NA
ENDROOT
BRANCH   2   6
ATOM      6  N   UNL d   1      33.193  21.768 -21.217  0.00  0.00    -0.181 NA
ATOM      7  C   UNL d   1      32.733  21.098 -21.231  0.00  0.00     0.287 C 
ATOM      8  O   UNL d   1      32.082  20.993 -20.729  0.00  0.00    -0.265 OA
BRANCH   7   9
ATOM      9  C   UNL d   1      32.918  20.515 -21.753  0.00  0.00     0.087 A 
ATOM     10  S   UNL d   1      33.074  19.746 -21.546  0.00  0.00    -0.082 SA
ATOM     11  C   UNL d   1      33.241  19.324 -22.252  0.00  0.00     0.036 A 
ATOM     12  C   UNL d   1      33.183  19.837 -22.860  0.00  0.00     0.008 A 
ATOM     13  C   UNL d   1      32.988  20.570 -22.586  0.00  0.00     0.012 A 
ENDBRANCH   7   9
ENDBRANCH   2   6
BRANCH   4  14
ATOM     14  C   UNL d   1      32.631  23.395 -18.812  0.00  0.00     0.026 C 
ATOM     15  C   UNL d   1      33.235  23.353 -18.251  0.00  0.00     0.002 C 
ATOM     16  C   UNL d   1      31.883  23.686 -18.578  0.00  0.00     0.002 C 
ENDBRANCH   4  14
TORSDOF 3
ENDMDL
MODEL 9
REMARK VINA RESULT:      -1.6      5.757      6.832
REMARK  3 active torsions:
REMARK  status: ('A' for Active; 'I' for Inactive)
REMARK    1  A    between atoms: N_5  and  C_2 
REMARK    2  A    between atoms: C_14  and  C_4 
REMARK       I    between atoms: C_7  and  N_5 
REMARK    3  A    between atoms: C_8  and  C_7 
ROOT
ATOM      1  S   UNL d   1      29.363  16.298 -23.937  0.00  0.00    -0.026 SA
ATOM      2  C   UNL d   1      29.859  16.025 -24.540  0.00  0.00     0.219 A 
ATOM      3  N   UNL d   1      28.625  15.509 -24.680  0.00  0.00    -0.139 NA
ATOM      4  C   UNL d   1      28.615  15.979 -24.029  0.00  0.00     0.135 A 
ATOM      5  N   UNL d   1      29.395  15.530 -25.006  0.00  0.00    -0.121 NA
ENDROOT
BRANCH   2   6
ATOM      6  N   UNL d   1      30.657  16.159 -24.723  0.00  0.00    -0.181 NA
ATOM      7  C   UNL d   1      31.228  15.895 -24.209  0.00  0.00     0.287 C 
ATOM      8  O   UNL d   1      31.045  15.496 -23.506  0.00  0.00    -0.265 OA
BRANCH   7   9
ATOM      9  C   UNL d   1      32.000  16.027 -24.390  0.00  0.00     0.087 A 
ATOM     10  S   UNL d   1      32.417  15.617 -24.953  0.00  0.00    -0.082 SA
ATOM     11  C   UNL d   1      33.197  15.926 -24.965  0.00  0.00     0.036 A 
ATOM     12  C   UNL d   1      33.235  16.507 -24.419  0.00  0.00     0.008 A 
ATOM     13  C   UNL d   1      32.522  16.591 -24.054  0.00  0.00     0.012 A 
ENDBRANCH   7   9
ENDBRANCH   2   6
BRANCH   4  14
ATOM     14  C   UNL d   1      27.957  16.131 -23.518  0.00  0.00     0.026 C 
ATOM     15  C   UNL d   1      27.830  16.866 -23.165  0.00  0.00     0.002 C 
ATOM     16  C   UNL d   1      27.416  15.512 -23.366  0.00  0.00     0.002 C 
ENDBRANCH   4  14
TORSDOF 3
ENDMDL
