MODEL 1
REMARK VINA RESULT:       7.8      0.000      0.000
REMARK  6 active torsions:
REMARK  status: ('A' for Active; 'I' for Inactive)
REMARK    1  A    between atoms: C_2  and  S_1 
REMARK    2  A    between atoms: C_13  and  S_1 
REMARK    3  A    between atoms: C_5  and  C_3 
REMARK    4  A    between atoms: C_16  and  C_5 
REMARK    5  A    between atoms: O_30  and  C_24 
REMARK    6  A    between atoms: C_33  and  O_30 
ROOT
ATOM      1  C   UNL d   1      32.809  22.109 -21.751  0.00  0.00     0.094 A 
ATOM      2  C   UNL d   1      32.717  22.682 -22.335  0.00  0.00     0.069 A 
ATOM      3  C   UNL d   1      32.844  22.332 -20.960  0.00  0.00     0.031 A 
ATOM      4  C   UNL d   1      32.786  23.129 -20.752  0.00  0.00     0.084 A 
ATOM      5  C   UNL d   1      32.936  21.759 -20.375  0.00  0.00     0.029 A 
ATOM      6  N   UNL d   1      32.693  23.702 -21.335  0.00  0.00    -0.244 NA
ATOM      7  C   UNL d   1      32.659  23.479 -22.127  0.00  0.00     0.103 A 
ATOM      8  C   UNL d   1      32.821  23.352 -19.960  0.00  0.00     0.046 A 
ATOM      9  C   UNL d   1      32.971  21.982 -19.584  0.00  0.00     0.123 A 
ATOM     10  C   UNL d   1      32.913  22.780 -19.376  0.00  0.00     0.124 A 
ATOM     11  O   UNL d   1      33.063  21.410 -19.000  0.00  0.00    -0.301 OA
ATOM     12  O   UNL d   1      32.948  23.002 -18.584  0.00  0.00    -0.301 OA
ATOM     13  C   UNL d   1      33.099  21.630 -18.196  0.00  0.00     0.149 A 
ATOM     14  C   UNL d   1      33.041  22.427 -17.988  0.00  0.00     0.149 A 
ENDROOT
BRANCH   1  15
ATOM     15  S   UNL d   1      32.867  21.312 -21.955  0.00  0.00     0.210 S 
ATOM     16  O   UNL d   1      32.510  21.099 -21.242  0.00  0.00    -0.217 OA
ATOM     17  O   UNL d   1      33.225  21.524 -22.667  0.00  0.00    -0.217 OA
BRANCH  15  18
ATOM     18  C   UNL d   1      32.929  20.516 -22.165  0.00  0.00     0.088 A 
ATOM     19  C   UNL d   1      32.957  20.302 -22.958  0.00  0.00     0.013 A 
ATOM     20  C   UNL d   1      33.019  19.501 -23.166  0.00  0.00     0.025 A 
ATOM     21  C   UNL d   1      33.052  18.924 -22.579  0.00  0.00     0.100 A 
ATOM     22  C   UNL d   1      33.024  19.135 -21.789  0.00  0.00     0.025 A 
ATOM     23  C   UNL d   1      32.962  19.940 -21.580  0.00  0.00     0.013 A 
BRANCH  21  24
ATOM     24  O   UNL d   1      33.115  18.120 -22.788  0.00  0.00    -0.305 OA
BRANCH  24  25
ATOM     25  C   UNL d   1      32.700  17.829 -23.437  0.00  0.00     0.123 C 
ATOM     26  C   UNL d   1      32.811  17.048 -23.677  0.00  0.00     0.029 C 
ENDBRANCH  24  25
ENDBRANCH  21  24
ENDBRANCH  15  18
ENDBRANCH   1  15
BRANCH   2  27
ATOM     27  C   UNL d   1      32.681  22.462 -23.139  0.00  0.00     0.198 C 
ATOM     28  O   UNL d   1      33.238  21.935 -23.443  0.00  0.00    -0.286 OA
BRANCH  27  29
ATOM     29  C   UNL d   1      32.090  22.771 -23.626  0.00  0.00     0.039 A 
ATOM     30  C   UNL d   1      31.465  23.211 -23.303  0.00  0.00     0.003 A 
ATOM     31  C   UNL d   1      30.874  23.520 -23.788  0.00  0.00     0.000 A 
ATOM     32  C   UNL d   1      30.898  23.395 -24.603  0.00  0.00     0.000 A 
ATOM     33  C   UNL d   1      31.534  22.948 -24.929  0.00  0.00     0.000 A 
ATOM     34  C   UNL d   1      30.311  23.701 -25.094  0.00  0.00     0.000 C 
ATOM     35  C   UNL d   1      32.125  22.638 -24.447  0.00  0.00     0.003 A 
ENDBRANCH  27  29
ENDBRANCH   2  27
TORSDOF 6
ENDMDL
MODEL 2
REMARK VINA RESULT:       8.1      3.677      6.790
REMARK  6 active torsions:
REMARK  status: ('A' for Active; 'I' for Inactive)
REMARK    1  A    between atoms: C_2  and  S_1 
REMARK    2  A    between atoms: C_13  and  S_1 
REMARK    3  A    between atoms: C_5  and  C_3 
REMARK    4  A    between atoms: C_16  and  C_5 
REMARK    5  A    between atoms: O_30  and  C_24 
REMARK    6  A    between atoms: C_33  and  O_30 
ROOT
ATOM      1  C   UNL d   1      30.837  17.145 -24.325  0.00  0.00     0.094 A 
ATOM      2  C   UNL d   1      31.160  16.403 -24.173  0.00  0.00     0.069 A 
ATOM      3  C   UNL d   1      30.029  17.223 -24.458  0.00  0.00     0.031 A 
ATOM      4  C   UNL d   1      29.542  16.556 -24.440  0.00  0.00     0.084 A 
ATOM      5  C   UNL d   1      29.707  17.965 -24.610  0.00  0.00     0.029 A 
ATOM      6  N   UNL d   1      29.863  15.814 -24.288  0.00  0.00    -0.244 NA
ATOM      7  C   UNL d   1      30.672  15.737 -24.154  0.00  0.00     0.103 A 
ATOM      8  C   UNL d   1      28.733  16.634 -24.573  0.00  0.00     0.046 A 
ATOM      9  C   UNL d   1      28.899  18.042 -24.743  0.00  0.00     0.123 A 
ATOM     10  C   UNL d   1      28.411  17.376 -24.725  0.00  0.00     0.124 A 
ATOM     11  O   UNL d   1      28.577  18.784 -24.895  0.00  0.00    -0.301 OA
ATOM     12  O   UNL d   1      27.602  17.453 -24.858  0.00  0.00    -0.301 OA
ATOM     13  C   UNL d   1      27.758  18.869 -25.031  0.00  0.00     0.149 A 
ATOM     14  C   UNL d   1      27.271  18.203 -25.012  0.00  0.00     0.149 A 
ENDROOT
BRANCH   1  15
ATOM     15  S   UNL d   1      31.321  17.813 -24.344  0.00  0.00     0.210 S 
ATOM     16  O   UNL d   1      31.900  17.387 -24.749  0.00  0.00    -0.217 OA
ATOM     17  O   UNL d   1      30.743  18.239 -23.939  0.00  0.00    -0.217 OA
BRANCH  15  18
ATOM     18  C   UNL d   1      31.800  18.485 -24.360  0.00  0.00     0.088 A 
ATOM     19  C   UNL d   1      31.978  18.879 -23.661  0.00  0.00     0.013 A 
ATOM     20  C   UNL d   1      32.460  19.555 -23.681  0.00  0.00     0.025 A 
ATOM     21  C   UNL d   1      32.757  19.828 -24.399  0.00  0.00     0.100 A 
ATOM     22  C   UNL d   1      32.581  19.438 -25.096  0.00  0.00     0.025 A 
ATOM     23  C   UNL d   1      32.097  18.759 -25.076  0.00  0.00     0.013 A 
BRANCH  21  24
ATOM     24  O   UNL d   1      33.241  20.506 -24.418  0.00  0.00    -0.305 OA
BRANCH  24  25
ATOM     25  C   UNL d   1      32.975  21.192 -24.788  0.00  0.00     0.123 C 
ATOM     26  C   UNL d   1      33.217  21.928 -24.507  0.00  0.00     0.029 C 
ENDBRANCH  24  25
ENDBRANCH  21  24
ENDBRANCH  15  18
ENDBRANCH   1  15
BRANCH   2  27
ATOM     27  C   UNL d   1      31.978  16.318 -24.037  0.00  0.00     0.198 C 
ATOM     28  O   UNL d   1      32.510  16.452 -24.654  0.00  0.00    -0.286 OA
BRANCH  27  29
ATOM     29  C   UNL d   1      32.253  16.103 -23.290  0.00  0.00     0.039 A 
ATOM     30  C   UNL d   1      32.965  15.684 -23.207  0.00  0.00     0.003 A 
ATOM     31  C   UNL d   1      33.240  15.468 -22.459  0.00  0.00     0.000 A 
ATOM     32  C   UNL d   1      32.810  15.666 -21.784  0.00  0.00     0.000 A 
ATOM     33  C   UNL d   1      32.086  16.091 -21.871  0.00  0.00     0.000 A 
ATOM     34  C   UNL d   1      33.079  15.453 -21.035  0.00  0.00     0.000 C 
ATOM     35  C   UNL d   1      31.809  16.308 -22.615  0.00  0.00     0.003 A 
ENDBRANCH  27  29
ENDBRANCH   2  27
TORSDOF 6
ENDMDL
