MODEL 1
REMARK VINA RESULT:      57.0      0.000      0.000
REMARK  5 active torsions:
REMARK  status: ('A' for Active; 'I' for Inactive)
REMARK    1  A    between atoms: N_9  and  S_1 
REMARK    2  A    between atoms: C_12  and  S_1 
REMARK    3  A    between atoms: C_6  and  C_15 
REMARK    4  A    between atoms: C_18  and  N_9 
REMARK       I    between atoms: C_16  and  N_17 
REMARK    5  A    between atoms: N_17  and  C_23 
ROOT
ATOM      1  C   UNL d   1     -50.811  25.017  33.322  0.00  0.00     0.021 A 
ATOM      2  C   UNL d   1     -50.255  26.344  33.312  0.00  0.00     0.094 A 
ATOM      3  C   UNL d   1     -50.912  25.844  33.320  0.00  0.00     0.021 A 
ATOM      4  C   UNL d   1     -50.051  24.703  33.316  0.00  0.00     0.002 A 
ATOM      5  C   UNL d   1     -49.394  25.190  33.308  0.00  0.00     0.002 A 
ATOM      6  C   UNL d   1     -49.494  26.017  33.306  0.00  0.00     0.020 A 
ENDROOT
BRANCH   2   7
ATOM      7  N   UNL d   1     -50.355  27.158  33.310  0.00  0.00    -0.158 NA
BRANCH   7   8
ATOM      8  S   UNL d   1     -49.897  27.626  33.804  0.00  0.00     0.285 S 
ATOM      9  O   UNL d   1     -49.694  26.956  34.239  0.00  0.00    -0.198 OA
ATOM     10  O   UNL d   1     -50.094  28.303  33.374  0.00  0.00    -0.198 OA
BRANCH   8  11
ATOM     11  C   UNL d   1     -49.433  28.101  34.304  0.00  0.00     0.105 A 
ATOM     12  C   UNL d   1     -49.227  28.859  34.054  0.00  0.00     0.015 A 
ATOM     13  C   UNL d   1     -48.763  29.352  34.540  0.00  0.00     0.020 A 
ATOM     14  C   UNL d   1     -48.509  29.071  35.281  0.00  0.00     0.085 A 
ATOM     15  C   UNL d   1     -48.716  28.313  35.530  0.00  0.00     0.020 A 
ATOM     16  C   UNL d   1     -49.182  27.827  35.035  0.00  0.00     0.015 A 
BRANCH  14  17
ATOM     17  N   UNL d   1     -48.059  29.542  35.758  0.00  0.00    -0.208 NA
ATOM     18  C   UNL d   1     -47.252  29.597  35.636  0.00  0.00     0.279 C 
ATOM     19  O   UNL d   1     -46.897  29.173  35.026  0.00  0.00    -0.265 OA
ATOM     20  C   UNL d   1     -46.799  30.070  36.115  0.00  0.00     0.068 C 
ENDBRANCH  14  17
ENDBRANCH   8  11
ENDBRANCH   7   8
ENDBRANCH   2   7
BRANCH   1  21
ATOM     21  C   UNL d   1     -51.478  24.529  33.330  0.00  0.00     0.102 A 
ATOM     22  N   UNL d   1     -52.230  24.886  33.313  0.00  0.00    -0.162 NA
ATOM     23  N   UNL d   1     -52.910  24.399  33.321  0.00  0.00    -0.189 N 
ATOM     24  C   UNL d   1     -53.705  24.584  33.308  0.00  0.00     0.224 A 
ATOM     25  C   UNL d   1     -52.835  23.570  33.345  0.00  0.00     0.187 A 
ATOM     26  N   UNL d   1     -54.127  23.889  33.325  0.00  0.00    -0.124 NA
ATOM     27  N   UNL d   1     -53.585  23.270  33.347  0.00  0.00    -0.127 NA
ATOM     28  C   UNL d   1     -52.069  23.234  33.362  0.00  0.00     0.042 A 
ATOM     29  C   UNL d   1     -51.395  23.718  33.354  0.00  0.00     0.024 A 
ENDBRANCH   1  21
TORSDOF 5
ENDMDL
