MODEL 1
REMARK VINA RESULT:      38.1      0.000      0.000
REMARK  7 active torsions:
REMARK  status: ('A' for Active; 'I' for Inactive)
REMARK    1  A    between atoms: N_3  and  S_1 
REMARK    2  A    between atoms: C_6  and  S_1 
REMARK    3  A    between atoms: N_2  and  C_5 
REMARK    4  A    between atoms: C_4  and  N_3 
REMARK    5  A    between atoms: C_5  and  C_4 
REMARK    6  A    between atoms: C_10  and  C_5 
REMARK    7  A    between atoms: O_26  and  C_20 
ROOT
ATOM      1  C   UNL d   1      46.366 -17.704  42.963  0.00  0.00     0.084 C 
ENDROOT
BRANCH   1   2
ATOM      2  N   UNL d   1      46.391 -18.361  43.462  0.00  0.00    -0.300 N 
ATOM      3  C   UNL d   1      46.240 -18.270  44.260  0.00  0.00     0.100 A 
ATOM      4  C   UNL d   1      46.265 -18.927  44.758  0.00  0.00     0.100 A 
ATOM      5  N   UNL d   1      46.442 -19.671  44.451  0.00  0.00    -0.299 N 
ATOM      6  C   UNL d   1      46.593 -19.758  43.644  0.00  0.00     0.100 A 
ATOM      7  C   UNL d   1      46.466 -20.330  44.953  0.00  0.00     0.100 C 
ATOM      8  C   UNL d   1      46.568 -19.105  43.154  0.00  0.00     0.100 A 
ENDBRANCH   1   2
BRANCH   1   9
ATOM      9  C   UNL d   1      46.621 -16.969  43.235  0.00  0.00     0.130 C 
BRANCH   9  10
ATOM     10  N   UNL d   1      46.072 -16.415  43.505  0.00  0.00    -0.155 NA
BRANCH  10  11
ATOM     11  S   UNL d   1      46.187 -16.037  44.230  0.00  0.00     0.285 S 
ATOM     12  O   UNL d   1      46.470 -16.746  44.549  0.00  0.00    -0.198 OA
ATOM     13  O   UNL d   1      46.302 -15.661  44.955  0.00  0.00    -0.198 OA
BRANCH  11  14
ATOM     14  C   UNL d   1      45.900 -15.325  43.897  0.00  0.00     0.105 A 
ATOM     15  C   UNL d   1      46.360 -14.904  43.376  0.00  0.00     0.015 A 
ATOM     16  C   UNL d   1      46.073 -14.196  43.046  0.00  0.00     0.025 A 
ATOM     17  C   UNL d   1      45.321 -13.927  43.250  0.00  0.00     0.094 A 
ATOM     18  C   UNL d   1      44.857 -14.365  43.786  0.00  0.00     0.025 A 
ATOM     19  C   UNL d   1      45.148 -15.056  44.102  0.00  0.00     0.015 A 
BRANCH  17  20
ATOM     20  O   UNL d   1      45.024 -13.219  42.926  0.00  0.00    -0.328 OA
ATOM     21  C   UNL d   1      44.562 -12.712  43.383  0.00  0.00     0.181 C 
ENDBRANCH  17  20
ENDBRANCH  11  14
ENDBRANCH  10  11
ENDBRANCH   9  10
ENDBRANCH   1   9
BRANCH   1  22
ATOM     22  C   UNL d   1      46.083 -17.784  42.183  0.00  0.00     0.018 A 
ATOM     23  C   UNL d   1      46.584 -17.638  41.545  0.00  0.00     0.004 A 
ATOM     24  C   UNL d   1      46.304 -17.718  40.774  0.00  0.00     0.030 A 
ATOM     25  C   UNL d   1      45.522 -17.943  40.640  0.00  0.00     0.140 A 
ATOM     26  C   UNL d   1      45.020 -18.089  41.279  0.00  0.00     0.030 A 
ATOM     27  F   UNL d   1      45.242 -18.023  39.869  0.00  0.00    -0.204 F 
ATOM     28  C   UNL d   1      45.300 -18.010  42.050  0.00  0.00     0.004 A 
ENDBRANCH   1  22
TORSDOF 7
ENDMDL
