MODEL 1
REMARK VINA RESULT:     -11.2      0.000      0.000
REMARK  3 active torsions:
REMARK  status: ('A' for Active; 'I' for Inactive)
REMARK       I    between atoms: C_6  and  N_1 
REMARK    1  A    between atoms: C_11  and  C_5 
REMARK    2  A    between atoms: C_12  and  C_6 
REMARK    3  A    between atoms: C_27  and  N_10 
ROOT
ATOM      1  N   UNL d   1      53.202  32.137  53.700  0.00  0.00    -0.264 N 
ATOM      2  C   UNL d   1      52.722  31.547  53.364  0.00  0.00     0.198 A 
ATOM      3  C   UNL d   1      52.828  32.865  53.567  0.00  0.00     0.138 A 
ATOM      4  N   UNL d   1      52.067  31.914  53.033  0.00  0.00    -0.243 NA
ATOM      5  C   UNL d   1      52.128  32.727  53.156  0.00  0.00     0.105 A 
ATOM      6  C   UNL d   1      53.908  32.021  54.087  0.00  0.00     0.263 C 
ATOM      7  C   UNL d   1      52.198  31.016  53.010  0.00  0.00     0.041 A 
ATOM      8  C   UNL d   1      53.403  31.274  53.720  0.00  0.00     0.041 A 
ATOM      9  S   UNL d   1      53.113  33.608  53.809  0.00  0.00    -0.058 SA
ATOM     10  N   UNL d   1      53.059  29.935  53.380  0.00  0.00    -0.303 N 
ATOM     11  O   UNL d   1      54.212  31.254  54.175  0.00  0.00    -0.267 OA
ATOM     12  C   UNL d   1      53.572  30.467  53.728  0.00  0.00     0.080 A 
ATOM     13  C   UNL d   1      52.377  30.207  53.023  0.00  0.00     0.080 A 
ENDROOT
BRANCH   6  14
ATOM     14  C   UNL d   1      54.322  32.662  54.391  0.00  0.00     0.056 A 
ATOM     15  C   UNL d   1      54.873  33.046  53.924  0.00  0.00     0.005 A 
ATOM     16  C   UNL d   1      55.291  33.690  54.226  0.00  0.00     0.000 A 
ATOM     17  C   UNL d   1      55.154  33.948  54.998  0.00  0.00     0.000 A 
ATOM     18  C   UNL d   1      54.594  33.557  55.470  0.00  0.00     0.000 A 
ATOM     19  C   UNL d   1      55.574  34.594  55.299  0.00  0.00     0.000 C 
ATOM     20  C   UNL d   1      54.180  32.916  55.166  0.00  0.00     0.005 A 
ENDBRANCH   6  14
BRANCH   5  21
ATOM     21  C   UNL d   1      51.587  33.296  52.911  0.00  0.00     0.020 A 
ATOM     22  C   UNL d   1      51.722  33.719  52.208  0.00  0.00     0.004 A 
ATOM     23  C   UNL d   1      51.169  34.299  51.960  0.00  0.00     0.030 A 
ATOM     24  C   UNL d   1      50.493  34.443  52.420  0.00  0.00     0.140 A 
ATOM     25  C   UNL d   1      50.366  34.024  53.109  0.00  0.00     0.030 A 
ATOM     26  F   UNL d   1      49.951  35.014  52.173  0.00  0.00    -0.204 F 
ATOM     27  C   UNL d   1      50.899  33.451  53.368  0.00  0.00     0.004 A 
ENDBRANCH   5  21
BRANCH  10  28
ATOM     28  C   UNL d   1      53.229  29.120  53.387  0.00  0.00     0.080 C 
ATOM     29  C   UNL d   1      53.184  28.698  54.097  0.00  0.00     0.021 C 
ENDBRANCH  10  28
TORSDOF 3
ENDMDL
MODEL 2
REMARK VINA RESULT:     -10.4      0.970      3.177
REMARK  3 active torsions:
REMARK  status: ('A' for Active; 'I' for Inactive)
REMARK       I    between atoms: C_6  and  N_1 
REMARK    1  A    between atoms: C_11  and  C_5 
REMARK    2  A    between atoms: C_12  and  C_6 
REMARK    3  A    between atoms: C_27  and  N_10 
ROOT
ATOM      1  N   UNL d   1      53.126  32.618  53.798  0.00  0.00    -0.264 N 
ATOM      2  C   UNL d   1      53.298  33.387  54.064  0.00  0.00     0.198 A 
ATOM      3  C   UNL d   1      52.435  32.661  53.343  0.00  0.00     0.138 A 
ATOM      4  N   UNL d   1      52.717  33.888  53.773  0.00  0.00    -0.243 NA
ATOM      5  C   UNL d   1      52.182  33.446  53.328  0.00  0.00     0.105 A 
ATOM      6  C   UNL d   1      53.557  31.946  53.956  0.00  0.00     0.263 C 
ATOM      7  C   UNL d   1      53.406  34.173  54.291  0.00  0.00     0.041 A 
ATOM      8  C   UNL d   1      53.826  32.814  54.306  0.00  0.00     0.041 A 
ATOM      9  S   UNL d   1      52.060  32.022  52.967  0.00  0.00    -0.058 SA
ATOM     10  N   UNL d   1      54.585  33.794  55.007  0.00  0.00    -0.303 N 
ATOM     11  O   UNL d   1      54.241  31.992  54.424  0.00  0.00    -0.267 OA
ATOM     12  C   UNL d   1      54.470  33.017  54.778  0.00  0.00     0.080 A 
ATOM     13  C   UNL d   1      54.057  34.367  54.766  0.00  0.00     0.080 A 
ENDROOT
BRANCH   6  14
ATOM     14  C   UNL d   1      53.318  31.221  53.653  0.00  0.00     0.056 A 
ATOM     15  C   UNL d   1      52.868  30.719  54.116  0.00  0.00     0.005 A 
ATOM     16  C   UNL d   1      52.626  29.990  53.815  0.00  0.00     0.000 A 
ATOM     17  C   UNL d   1      52.837  29.766  53.048  0.00  0.00     0.000 A 
ATOM     18  C   UNL d   1      53.293  30.278  52.581  0.00  0.00     0.000 A 
ATOM     19  C   UNL d   1      52.592  29.035  52.749  0.00  0.00     0.000 C 
ATOM     20  C   UNL d   1      53.532  31.003  52.884  0.00  0.00     0.005 A 
ENDBRANCH   6  14
BRANCH   5  21
ATOM     21  C   UNL d   1      51.519  33.736  52.940  0.00  0.00     0.020 A 
ATOM     22  C   UNL d   1      51.584  34.005  52.155  0.00  0.00     0.004 A 
ATOM     23  C   UNL d   1      50.905  34.301  51.761  0.00  0.00     0.030 A 
ATOM     24  C   UNL d   1      50.177  34.322  52.158  0.00  0.00     0.140 A 
ATOM     25  C   UNL d   1      50.120  34.056  52.928  0.00  0.00     0.030 A 
ATOM     26  F   UNL d   1      49.512  34.613  51.767  0.00  0.00    -0.204 F 
ATOM     27  C   UNL d   1      50.775  33.762  53.331  0.00  0.00     0.004 A 
ENDBRANCH   5  21
BRANCH  10  28
ATOM     28  C   UNL d   1      55.236  34.000  55.484  0.00  0.00     0.080 C 
ATOM     29  C   UNL d   1      55.939  34.255  55.131  0.00  0.00     0.021 C 
ENDBRANCH  10  28
TORSDOF 3
ENDMDL
MODEL 3
REMARK VINA RESULT:     -10.3      1.708      4.147
REMARK  3 active torsions:
REMARK  status: ('A' for Active; 'I' for Inactive)
REMARK       I    between atoms: C_6  and  N_1 
REMARK    1  A    between atoms: C_11  and  C_5 
REMARK    2  A    between atoms: C_12  and  C_6 
REMARK    3  A    between atoms: C_27  and  N_10 
ROOT
ATOM      1  N   UNL d   1      52.849  33.082  53.670  0.00  0.00    -0.264 N 
ATOM      2  C   UNL d   1      53.529  32.862  54.095  0.00  0.00     0.198 A 
ATOM      3  C   UNL d   1      52.535  32.394  53.331  0.00  0.00     0.138 A 
ATOM      4  N   UNL d   1      53.624  32.050  54.013  0.00  0.00    -0.243 NA
ATOM      5  C   UNL d   1      53.013  31.757  53.543  0.00  0.00     0.105 A 
ATOM      6  C   UNL d   1      52.548  33.834  53.600  0.00  0.00     0.263 C 
ATOM      7  C   UNL d   1      54.191  32.572  54.495  0.00  0.00     0.041 A 
ATOM      8  C   UNL d   1      53.353  33.657  54.118  0.00  0.00     0.041 A 
ATOM      9  S   UNL d   1      51.852  32.354  52.858  0.00  0.00    -0.058 SA
ATOM     10  N   UNL d   1      54.491  33.898  54.939  0.00  0.00    -0.303 N 
ATOM     11  O   UNL d   1      52.927  34.470  53.974  0.00  0.00    -0.267 OA
ATOM     12  C   UNL d   1      53.834  34.176  54.541  0.00  0.00     0.080 A 
ATOM     13  C   UNL d   1      54.668  33.102  54.916  0.00  0.00     0.080 A 
ENDROOT
BRANCH   6  14
ATOM     14  C   UNL d   1      51.867  33.967  53.160  0.00  0.00     0.056 A 
ATOM     15  C   UNL d   1      51.135  33.912  53.519  0.00  0.00     0.005 A 
ATOM     16  C   UNL d   1      50.450  34.045  53.080  0.00  0.00     0.000 A 
ATOM     17  C   UNL d   1      50.501  34.234  52.278  0.00  0.00     0.000 A 
ATOM     18  C   UNL d   1      51.245  34.289  51.915  0.00  0.00     0.000 A 
ATOM     19  C   UNL d   1      49.812  34.367  51.840  0.00  0.00     0.000 C 
ATOM     20  C   UNL d   1      51.925  34.156  52.356  0.00  0.00     0.005 A 
ENDBRANCH   6  14
BRANCH   5  21
ATOM     21  C   UNL d   1      52.903  30.972  53.326  0.00  0.00     0.020 A 
ATOM     22  C   UNL d   1      52.527  30.447  53.851  0.00  0.00     0.004 A 
ATOM     23  C   UNL d   1      52.416  29.647  53.627  0.00  0.00     0.030 A 
ATOM     24  C   UNL d   1      52.682  29.388  52.885  0.00  0.00     0.140 A 
ATOM     25  C   UNL d   1      53.051  29.907  52.375  0.00  0.00     0.030 A 
ATOM     26  F   UNL d   1      52.571  28.599  52.670  0.00  0.00    -0.204 F 
ATOM     27  C   UNL d   1      53.169  30.698  52.577  0.00  0.00     0.004 A 
ENDBRANCH   5  21
BRANCH  10  28
ATOM     28  C   UNL d   1      54.978  34.421  55.366  0.00  0.00     0.080 C 
ATOM     29  C   UNL d   1      55.795  34.294  55.390  0.00  0.00     0.021 C 
ENDBRANCH  10  28
TORSDOF 3
ENDMDL
MODEL 4
REMARK VINA RESULT:     -10.0      1.491      3.466
REMARK  3 active torsions:
REMARK  status: ('A' for Active; 'I' for Inactive)
REMARK       I    between atoms: C_6  and  N_1 
REMARK    1  A    between atoms: C_11  and  C_5 
REMARK    2  A    between atoms: C_12  and  C_6 
REMARK    3  A    between atoms: C_27  and  N_10 
ROOT
ATOM      1  N   UNL d   1      52.747  32.189  53.452  0.00  0.00    -0.264 N 
ATOM      2  C   UNL d   1      53.233  31.529  53.590  0.00  0.00     0.198 A 
ATOM      3  C   UNL d   1      53.107  32.842  53.813  0.00  0.00     0.138 A 
ATOM      4  N   UNL d   1      53.879  31.781  54.029  0.00  0.00    -0.243 NA
ATOM      5  C   UNL d   1      53.806  32.590  54.169  0.00  0.00     0.105 A 
ATOM      6  C   UNL d   1      52.046  32.192  53.038  0.00  0.00     0.263 C 
ATOM      7  C   UNL d   1      53.762  30.919  53.765  0.00  0.00     0.041 A 
ATOM      8  C   UNL d   1      52.560  31.374  53.157  0.00  0.00     0.041 A 
ATOM      9  S   UNL d   1      52.812  33.619  53.815  0.00  0.00    -0.058 SA
ATOM     10  N   UNL d   1      52.923  30.000  53.060  0.00  0.00    -0.303 N 
ATOM     11  O   UNL d   1      51.756  31.490  52.707  0.00  0.00    -0.267 OA
ATOM     12  C   UNL d   1      52.404  30.609  52.891  0.00  0.00     0.080 A 
ATOM     13  C   UNL d   1      53.596  30.154  53.494  0.00  0.00     0.080 A 
ENDROOT
BRANCH   6  14
ATOM     14  C   UNL d   1      51.625  32.891  52.947  0.00  0.00     0.056 A 
ATOM     15  C   UNL d   1      51.019  33.069  53.466  0.00  0.00     0.005 A 
ATOM     16  C   UNL d   1      50.593  33.770  53.378  0.00  0.00     0.000 A 
ATOM     17  C   UNL d   1      50.777  34.293  52.765  0.00  0.00     0.000 A 
ATOM     18  C   UNL d   1      51.392  34.110  52.240  0.00  0.00     0.000 A 
ATOM     19  C   UNL d   1      50.348  34.995  52.679  0.00  0.00     0.000 C 
ATOM     20  C   UNL d   1      51.814  33.411  52.331  0.00  0.00     0.005 A 
ENDBRANCH   6  14
BRANCH   5  21
ATOM     21  C   UNL d   1      54.335  33.058  54.589  0.00  0.00     0.020 A 
ATOM     22  C   UNL d   1      54.962  33.433  54.189  0.00  0.00     0.004 A 
ATOM     23  C   UNL d   1      55.501  33.910  54.619  0.00  0.00     0.030 A 
ATOM     24  C   UNL d   1      55.402  34.004  55.438  0.00  0.00     0.140 A 
ATOM     25  C   UNL d   1      54.785  33.634  55.824  0.00  0.00     0.030 A 
ATOM     26  F   UNL d   1      55.935  34.475  55.857  0.00  0.00    -0.204 F 
ATOM     27  C   UNL d   1      54.246  33.161  55.418  0.00  0.00     0.004 A 
ENDBRANCH   5  21
BRANCH  10  28
ATOM     28  C   UNL d   1      52.766  29.228  52.793  0.00  0.00     0.080 C 
ATOM     29  C   UNL d   1      52.832  28.591  53.316  0.00  0.00     0.021 C 
ENDBRANCH  10  28
TORSDOF 3
ENDMDL
MODEL 5
REMARK VINA RESULT:      -9.6      1.740      4.218
REMARK  3 active torsions:
REMARK  status: ('A' for Active; 'I' for Inactive)
REMARK       I    between atoms: C_6  and  N_1 
REMARK    1  A    between atoms: C_11  and  C_5 
REMARK    2  A    between atoms: C_12  and  C_6 
REMARK    3  A    between atoms: C_27  and  N_10 
ROOT
ATOM      1  N   UNL d   1      52.528  32.602  53.350  0.00  0.00    -0.264 N 
ATOM      2  C   UNL d   1      52.320  33.406  53.315  0.00  0.00     0.198 A 
ATOM      3  C   UNL d   1      53.198  32.540  53.833  0.00  0.00     0.138 A 
ATOM      4  N   UNL d   1      52.858  33.825  53.772  0.00  0.00    -0.243 NA
ATOM      5  C   UNL d   1      53.402  33.295  54.094  0.00  0.00     0.105 A 
ATOM      6  C   UNL d   1      52.144  31.989  52.978  0.00  0.00     0.263 C 
ATOM      7  C   UNL d   1      52.172  34.218  53.326  0.00  0.00     0.041 A 
ATOM      8  C   UNL d   1      51.837  32.908  52.887  0.00  0.00     0.041 A 
ATOM      9  S   UNL d   1      53.597  31.836  54.023  0.00  0.00    -0.058 SA
ATOM     10  N   UNL d   1      51.045  34.015  52.468  0.00  0.00    -0.303 N 
ATOM     11  O   UNL d   1      51.476  32.140  52.510  0.00  0.00    -0.267 OA
ATOM     12  C   UNL d   1      51.199  33.212  52.463  0.00  0.00     0.080 A 
ATOM     13  C   UNL d   1      51.528  34.514  52.896  0.00  0.00     0.080 A 
ENDROOT
BRANCH   6  14
ATOM     14  C   UNL d   1      52.416  31.219  53.065  0.00  0.00     0.056 A 
ATOM     15  C   UNL d   1      52.101  30.742  53.650  0.00  0.00     0.005 A 
ATOM     16  C   UNL d   1      52.371  29.968  53.740  0.00  0.00     0.000 A 
ATOM     17  C   UNL d   1      52.960  29.673  53.241  0.00  0.00     0.000 A 
ATOM     18  C   UNL d   1      53.278  30.159  52.648  0.00  0.00     0.000 A 
ATOM     19  C   UNL d   1      53.229  28.896  53.333  0.00  0.00     0.000 C 
ATOM     20  C   UNL d   1      53.006  30.929  52.562  0.00  0.00     0.005 A 
ENDBRANCH   6  14
BRANCH   5  21
ATOM     21  C   UNL d   1      54.033  33.487  54.585  0.00  0.00     0.020 A 
ATOM     22  C   UNL d   1      53.922  33.510  55.409  0.00  0.00     0.004 A 
ATOM     23  C   UNL d   1      54.567  33.707  55.908  0.00  0.00     0.030 A 
ATOM     24  C   UNL d   1      55.307  33.876  55.574  0.00  0.00     0.140 A 
ATOM     25  C   UNL d   1      55.409  33.851  54.765  0.00  0.00     0.030 A 
ATOM     26  F   UNL d   1      55.939  34.068  56.069  0.00  0.00    -0.204 F 
ATOM     27  C   UNL d   1      54.788  33.661  54.258  0.00  0.00     0.004 A 
ENDBRANCH   5  21
BRANCH  10  28
ATOM     28  C   UNL d   1      50.401  34.323  52.040  0.00  0.00     0.080 C 
ATOM     29  C   UNL d   1      49.809  34.744  52.436  0.00  0.00     0.021 C 
ENDBRANCH  10  28
TORSDOF 3
ENDMDL
MODEL 6
REMARK VINA RESULT:      -9.3      1.774      3.501
REMARK  3 active torsions:
REMARK  status: ('A' for Active; 'I' for Inactive)
REMARK       I    between atoms: C_6  and  N_1 
REMARK    1  A    between atoms: C_11  and  C_5 
REMARK    2  A    between atoms: C_12  and  C_6 
REMARK    3  A    between atoms: C_27  and  N_10 
ROOT
ATOM      1  N   UNL d   1      52.859  32.986  53.651  0.00  0.00    -0.264 N 
ATOM      2  C   UNL d   1      52.166  32.820  53.223  0.00  0.00     0.198 A 
ATOM      3  C   UNL d   1      53.219  32.262  53.829  0.00  0.00     0.138 A 
ATOM      4  N   UNL d   1      52.109  32.005  53.144  0.00  0.00    -0.243 NA
ATOM      5  C   UNL d   1      52.756  31.656  53.516  0.00  0.00     0.105 A 
ATOM      6  C   UNL d   1      53.132  33.724  53.857  0.00  0.00     0.263 C 
ATOM      7  C   UNL d   1      51.495  32.582  52.805  0.00  0.00     0.041 A 
ATOM      8  C   UNL d   1      52.307  33.613  53.352  0.00  0.00     0.041 A 
ATOM      9  S   UNL d   1      53.929  32.163  54.252  0.00  0.00    -0.058 SA
ATOM     10  N   UNL d   1      51.116  33.953  52.651  0.00  0.00    -0.303 N 
ATOM     11  O   UNL d   1      52.707  34.401  53.637  0.00  0.00    -0.267 OA
ATOM     12  C   UNL d   1      51.782  34.180  53.066  0.00  0.00     0.080 A 
ATOM     13  C   UNL d   1      50.973  33.160  52.521  0.00  0.00     0.080 A 
ENDROOT
BRANCH   6  14
ATOM     14  C   UNL d   1      53.830  33.801  54.283  0.00  0.00     0.056 A 
ATOM     15  C   UNL d   1      54.547  33.802  53.889  0.00  0.00     0.005 A 
ATOM     16  C   UNL d   1      55.250  33.879  54.314  0.00  0.00     0.000 A 
ATOM     17  C   UNL d   1      55.232  33.956  55.135  0.00  0.00     0.000 A 
ATOM     18  C   UNL d   1      54.504  33.956  55.533  0.00  0.00     0.000 A 
ATOM     19  C   UNL d   1      55.939  34.034  55.559  0.00  0.00     0.000 C 
ATOM     20  C   UNL d   1      53.806  33.878  55.107  0.00  0.00     0.005 A 
ENDBRANCH   6  14
BRANCH   5  21
ATOM     21  C   UNL d   1      52.910  30.850  53.565  0.00  0.00     0.020 A 
ATOM     22  C   UNL d   1      53.118  30.427  52.879  0.00  0.00     0.004 A 
ATOM     23  C   UNL d   1      53.274  29.605  52.931  0.00  0.00     0.030 A 
ATOM     24  C   UNL d   1      53.221  29.223  53.666  0.00  0.00     0.140 A 
ATOM     25  C   UNL d   1      53.017  29.644  54.335  0.00  0.00     0.030 A 
ATOM     26  F   UNL d   1      53.376  28.414  53.713  0.00  0.00    -0.204 F 
ATOM     27  C   UNL d   1      52.859  30.452  54.304  0.00  0.00     0.004 A 
ENDBRANCH   5  21
BRANCH  10  28
ATOM     28  C   UNL d   1      50.585  34.525  52.362  0.00  0.00     0.080 C 
ATOM     29  C   UNL d   1      49.785  34.483  52.566  0.00  0.00     0.021 C 
ENDBRANCH  10  28
TORSDOF 3
ENDMDL
