MODEL 1
REMARK VINA RESULT:      -5.0      0.000      0.000
REMARK  1 active torsions:
REMARK  status: ('A' for Active; 'I' for Inactive)
REMARK    1  A    between atoms: C_5  and  C_1 
ROOT
ATOM      1  C   UNL d   1     -41.936-122.295 -54.579  0.00  0.00     0.169 A 
ATOM      2  N   UNL d   1     -42.136-122.000 -53.834  0.00  0.00    -0.142 NA
ATOM      3  C   UNL d   1     -41.535-123.011 -54.474  0.00  0.00     0.048 A 
ATOM      4  N   UNL d   1     -41.855-122.538 -53.278  0.00  0.00    -0.148 NA
ATOM      5  C   UNL d   1     -41.487-123.158 -53.683  0.00  0.00     0.105 A 
ATOM      6  C   UNL d   1     -41.130-123.817 -53.337  0.00  0.00     0.023 C 
ENDROOT
BRANCH   1   7
ATOM      7  C   UNL d   1     -42.108-121.935 -55.298  0.00  0.00     0.231 C 
ATOM      8  O   UNL d   1     -42.877-121.942 -55.593  0.00  0.00    -0.643 OA
ATOM      9  O   UNL d   1     -41.508-121.564 -55.725  0.00  0.00    -0.643 OA
ENDBRANCH   1   7
TORSDOF 1
ENDMDL
MODEL 2
REMARK VINA RESULT:      -4.9      1.633      2.285
REMARK  1 active torsions:
REMARK  status: ('A' for Active; 'I' for Inactive)
REMARK    1  A    between atoms: C_5  and  C_1 
ROOT
ATOM      1  C   UNL d   1     -41.926-122.286 -53.889  0.00  0.00     0.169 A 
ATOM      2  N   UNL d   1     -42.620-121.841 -53.842  0.00  0.00    -0.142 NA
ATOM      3  C   UNL d   1     -41.731-122.374 -54.689  0.00  0.00     0.048 A 
ATOM      4  N   UNL d   1     -42.844-121.659 -54.613  0.00  0.00    -0.148 NA
ATOM      5  C   UNL d   1     -42.289-121.993 -55.127  0.00  0.00     0.105 A 
ATOM      6  C   UNL d   1     -42.303-121.944 -55.951  0.00  0.00     0.023 C 
ENDROOT
BRANCH   1   7
ATOM      7  C   UNL d   1     -41.507-122.587 -53.249  0.00  0.00     0.231 C 
ATOM      8  O   UNL d   1     -41.123-122.079 -52.728  0.00  0.00    -0.643 OA
ATOM      9  O   UNL d   1     -41.471-123.402 -53.129  0.00  0.00    -0.643 OA
ENDBRANCH   1   7
TORSDOF 1
ENDMDL
MODEL 3
REMARK VINA RESULT:      -3.9      2.280      2.637
REMARK  1 active torsions:
REMARK  status: ('A' for Active; 'I' for Inactive)
REMARK    1  A    between atoms: C_5  and  C_1 
ROOT
ATOM      1  C   UNL d   1     -41.381-122.364 -52.627  0.00  0.00     0.169 A 
ATOM      2  N   UNL d   1     -41.844-121.830 -53.053  0.00  0.00    -0.142 NA
ATOM      3  C   UNL d   1     -41.123-122.954 -53.147  0.00  0.00     0.048 A 
ATOM      4  N   UNL d   1     -41.866-122.097 -53.832  0.00  0.00    -0.148 NA
ATOM      5  C   UNL d   1     -41.418-122.790 -53.878  0.00  0.00     0.105 A 
ATOM      6  C   UNL d   1     -41.294-123.241 -54.559  0.00  0.00     0.023 C 
ENDROOT
BRANCH   1   7
ATOM      7  C   UNL d   1     -41.209-122.313 -51.824  0.00  0.00     0.231 C 
ATOM      8  O   UNL d   1     -41.123-122.997 -51.374  0.00  0.00    -0.643 OA
ATOM      9  O   UNL d   1     -41.124-121.574 -51.469  0.00  0.00    -0.643 OA
ENDBRANCH   1   7
TORSDOF 1
ENDMDL
MODEL 4
REMARK VINA RESULT:      -3.8      1.862      2.256
REMARK  1 active torsions:
REMARK  status: ('A' for Active; 'I' for Inactive)
REMARK    1  A    between atoms: C_5  and  C_1 
ROOT
ATOM      1  C   UNL d   1     -41.269-122.986 -52.860  0.00  0.00     0.169 A 
ATOM      2  N   UNL d   1     -41.506-123.712 -52.546  0.00  0.00    -0.142 NA
ATOM      3  C   UNL d   1     -41.123-122.468 -52.231  0.00  0.00     0.048 A 
ATOM      4  N   UNL d   1     -41.502-123.633 -51.726  0.00  0.00    -0.148 NA
ATOM      5  C   UNL d   1     -41.265-122.863 -51.543  0.00  0.00     0.105 A 
ATOM      6  C   UNL d   1     -41.185-122.549 -50.783  0.00  0.00     0.023 C 
ENDROOT
BRANCH   1   7
ATOM      7  C   UNL d   1     -41.194-122.812 -53.660  0.00  0.00     0.231 C 
ATOM      8  O   UNL d   1     -41.190-123.418 -54.218  0.00  0.00    -0.643 OA
ATOM      9  O   UNL d   1     -41.123-122.028 -53.905  0.00  0.00    -0.643 OA
ENDBRANCH   1   7
TORSDOF 1
ENDMDL
MODEL 5
REMARK VINA RESULT:      -3.7     10.321     10.454
REMARK  1 active torsions:
REMARK  status: ('A' for Active; 'I' for Inactive)
REMARK    1  A    between atoms: C_5  and  C_1 
ROOT
ATOM      1  C   UNL d   1     -43.110-114.947 -47.346  0.00  0.00     0.169 A 
ATOM      2  N   UNL d   1     -42.658-114.302 -47.595  0.00  0.00    -0.142 NA
ATOM      3  C   UNL d   1     -42.597-115.520 -47.041  0.00  0.00     0.048 A 
ATOM      4  N   UNL d   1     -41.871-114.486 -47.441  0.00  0.00    -0.148 NA
ATOM      5  C   UNL d   1     -41.844-115.238 -47.099  0.00  0.00     0.105 A 
ATOM      6  C   UNL d   1     -41.162-115.636 -46.858  0.00  0.00     0.023 C 
ENDROOT
BRANCH   1   7
ATOM      7  C   UNL d   1     -43.929-115.004 -47.395  0.00  0.00     0.231 C 
ATOM      8  O   UNL d   1     -44.403-114.710 -46.789  0.00  0.00    -0.643 OA
ATOM      9  O   UNL d   1     -44.277-115.356 -48.055  0.00  0.00    -0.643 OA
ENDBRANCH   1   7
TORSDOF 1
ENDMDL
MODEL 6
REMARK VINA RESULT:      -3.2     10.323     10.536
REMARK  1 active torsions:
REMARK  status: ('A' for Active; 'I' for Inactive)
REMARK    1  A    between atoms: C_5  and  C_1 
ROOT
ATOM      1  C   UNL d   1     -42.332-114.863 -47.327  0.00  0.00     0.169 A 
ATOM      2  N   UNL d   1     -42.665-114.475 -46.678  0.00  0.00    -0.142 NA
ATOM      3  C   UNL d   1     -42.946-115.185 -47.778  0.00  0.00     0.048 A 
ATOM      4  N   UNL d   1     -43.481-114.563 -46.737  0.00  0.00    -0.148 NA
ATOM      5  C   UNL d   1     -43.644-115.002 -47.418  0.00  0.00     0.105 A 
ATOM      6  C   UNL d   1     -44.394-115.218 -47.687  0.00  0.00     0.023 C 
ENDROOT
BRANCH   1   7
ATOM      7  C   UNL d   1     -41.527-114.916 -47.491  0.00  0.00     0.231 C 
ATOM      8  O   UNL d   1     -41.125-114.273 -47.811  0.00  0.00    -0.643 OA
ATOM      9  O   UNL d   1     -41.123-115.617 -47.333  0.00  0.00    -0.643 OA
ENDBRANCH   1   7
TORSDOF 1
ENDMDL
MODEL 7
REMARK VINA RESULT:      -3.1      0.790      1.046
REMARK  1 active torsions:
REMARK  status: ('A' for Active; 'I' for Inactive)
REMARK    1  A    between atoms: C_5  and  C_1 
ROOT
ATOM      1  C   UNL d   1     -42.014-122.136 -54.879  0.00  0.00     0.169 A 
ATOM      2  N   UNL d   1     -41.217-122.069 -54.675  0.00  0.00    -0.142 NA
ATOM      3  C   UNL d   1     -42.405-122.531 -54.265  0.00  0.00     0.048 A 
ATOM      4  N   UNL d   1     -41.125-122.423 -53.937  0.00  0.00    -0.148 NA
ATOM      5  C   UNL d   1     -41.863-122.705 -53.694  0.00  0.00     0.105 A 
ATOM      6  C   UNL d   1     -42.021-123.098 -52.985  0.00  0.00     0.023 C 
ENDROOT
BRANCH   1   7
ATOM      7  C   UNL d   1     -42.355-121.858 -55.573  0.00  0.00     0.231 C 
ATOM      8  O   UNL d   1     -41.998-121.248 -55.996  0.00  0.00    -0.643 OA
ATOM      9  O   UNL d   1     -43.059-122.190 -55.846  0.00  0.00    -0.643 OA
ENDBRANCH   1   7
TORSDOF 1
ENDMDL
MODEL 8
REMARK VINA RESULT:      -3.0      4.181      4.603
REMARK  1 active torsions:
REMARK  status: ('A' for Active; 'I' for Inactive)
REMARK    1  A    between atoms: C_5  and  C_1 
ROOT
ATOM      1  C   UNL d   1     -42.218-122.718 -50.212  0.00  0.00     0.169 A 
ATOM      2  N   UNL d   1     -43.016-122.524 -50.125  0.00  0.00    -0.142 NA
ATOM      3  C   UNL d   1     -41.955-123.052 -49.502  0.00  0.00     0.048 A 
ATOM      4  N   UNL d   1     -43.236-122.741 -49.362  0.00  0.00    -0.148 NA
ATOM      5  C   UNL d   1     -42.575-123.065 -48.987  0.00  0.00     0.105 A 
ATOM      6  C   UNL d   1     -42.550-123.354 -48.213  0.00  0.00     0.023 C 
ENDROOT
BRANCH   1   7
ATOM      7  C   UNL d   1     -41.768-122.598 -50.890  0.00  0.00     0.231 C 
ATOM      8  O   UNL d   1     -41.960-121.992 -51.414  0.00  0.00    -0.643 OA
ATOM      9  O   UNL d   1     -41.123-123.087 -51.045  0.00  0.00    -0.643 OA
ENDBRANCH   1   7
TORSDOF 1
ENDMDL
MODEL 9
REMARK VINA RESULT:      -2.3      4.500      5.016
REMARK  1 active torsions:
REMARK  status: ('A' for Active; 'I' for Inactive)
REMARK    1  A    between atoms: C_5  and  C_1 
ROOT
ATOM      1  C   UNL d   1     -42.548-122.769 -49.739  0.00  0.00     0.169 A 
ATOM      2  N   UNL d   1     -42.999-122.316 -50.261  0.00  0.00    -0.142 NA
ATOM      3  C   UNL d   1     -41.792-122.859 -50.063  0.00  0.00     0.048 A 
ATOM      4  N   UNL d   1     -42.516-122.132 -50.901  0.00  0.00    -0.148 NA
ATOM      5  C   UNL d   1     -41.774-122.472 -50.769  0.00  0.00     0.105 A 
ATOM      6  C   UNL d   1     -41.122-122.424 -51.274  0.00  0.00     0.023 C 
ENDROOT
BRANCH   1   7
ATOM      7  C   UNL d   1     -42.810-123.075 -49.022  0.00  0.00     0.231 C 
ATOM      8  O   UNL d   1     -42.619-122.698 -48.315  0.00  0.00    -0.643 OA
ATOM      9  O   UNL d   1     -43.266-123.762 -49.011  0.00  0.00    -0.643 OA
ENDBRANCH   1   7
TORSDOF 1
ENDMDL
