MODEL 1
REMARK VINA RESULT:      -0.1      0.000      0.000
REMARK  3 active torsions:
REMARK  status: ('A' for Active; 'I' for Inactive)
REMARK       I    between atoms: N_2  and  C_1 
REMARK    1  A    between atoms: C_4  and  C_1 
REMARK    2  A    between atoms: C_3  and  N_2 
REMARK    3  A    between atoms: C_5  and  C_6 
ROOT
ATOM      1  C   UNL d   1     -41.715-121.580 -52.319  0.00  0.00     0.058 A 
ATOM      2  C   UNL d   1     -42.065-122.520 -51.053  0.00  0.00    -0.023 A 
ATOM      3  C   UNL d   1     -41.125-121.800 -51.833  0.00  0.00     0.004 A 
ATOM      4  C   UNL d   1     -42.504-121.803 -52.216  0.00  0.00     0.004 A 
ATOM      5  C   UNL d   1     -42.670-122.283 -51.567  0.00  0.00    -0.004 A 
ATOM      6  C   UNL d   1     -41.304-122.279 -51.187  0.00  0.00    -0.004 A 
ENDROOT
BRANCH   1   7
ATOM      7  C   UNL d   1     -41.521-121.093 -52.972  0.00  0.00     0.279 C 
ATOM      8  N   UNL d   1     -41.474-121.400 -53.739  0.00  0.00    -0.207 NA
ATOM      9  O   UNL d   1     -41.374-120.299 -52.860  0.00  0.00    -0.265 OA
BRANCH   8  10
ATOM     10  C   UNL d   1     -41.621-122.198 -53.855  0.00  0.00     0.095 A 
ATOM     11  C   UNL d   1     -42.232-122.438 -54.309  0.00  0.00     0.075 A 
ATOM     12 CL   UNL d   1     -42.740-121.884 -54.680  0.00  0.00    -0.081 Cl
ATOM     13  C   UNL d   1     -42.390-123.250 -54.432  0.00  0.00     0.013 A 
ATOM     14  C   UNL d   1     -41.882-123.804 -54.061  0.00  0.00     0.001 A 
ATOM     15  C   UNL d   1     -41.261-123.545 -53.599  0.00  0.00     0.002 A 
ATOM     16  C   UNL d   1     -41.124-122.766 -53.491  0.00  0.00     0.020 A 
ENDBRANCH   8  10
ENDBRANCH   1   7
BRANCH   2  17
ATOM     17  C   UNL d   1     -42.243-122.998 -50.408  0.00  0.00     0.019 C 
ATOM     18  C   UNL d   1     -42.994-122.659 -50.364  0.00  0.00     0.004 C 
ATOM     19  C   UNL d   1     -41.495-123.335 -50.452  0.00  0.00     0.004 C 
ATOM     20  C   UNL d   1     -42.422-123.478 -49.761  0.00  0.00     0.004 C 
ENDBRANCH   2  17
TORSDOF 3
ENDMDL
MODEL 2
REMARK VINA RESULT:       0.8      1.803      3.371
REMARK  3 active torsions:
REMARK  status: ('A' for Active; 'I' for Inactive)
REMARK       I    between atoms: N_2  and  C_1 
REMARK    1  A    between atoms: C_4  and  C_1 
REMARK    2  A    between atoms: C_3  and  N_2 
REMARK    3  A    between atoms: C_5  and  C_6 
ROOT
ATOM      1  C   UNL d   1     -41.539-121.882 -51.249  0.00  0.00     0.058 A 
ATOM      2  C   UNL d   1     -41.528-122.736 -52.619  0.00  0.00    -0.023 A 
ATOM      3  C   UNL d   1     -41.128-122.562 -51.271  0.00  0.00     0.004 A 
ATOM      4  C   UNL d   1     -41.965-121.581 -51.889  0.00  0.00     0.004 A 
ATOM      5  C   UNL d   1     -41.952-122.026 -52.583  0.00  0.00    -0.004 A 
ATOM      6  C   UNL d   1     -41.122-122.998 -51.970  0.00  0.00    -0.004 A 
ENDROOT
BRANCH   1   7
ATOM      7  C   UNL d   1     -41.536-121.447 -50.532  0.00  0.00     0.279 C 
ATOM      8  N   UNL d   1     -41.949-121.714 -49.866  0.00  0.00    -0.207 NA
ATOM      9  O   UNL d   1     -41.123-120.747 -50.481  0.00  0.00    -0.265 OA
BRANCH   8  10
ATOM     10  C   UNL d   1     -42.366-122.418 -49.916  0.00  0.00     0.095 A 
ATOM     11  C   UNL d   1     -42.118-123.067 -49.522  0.00  0.00     0.075 A 
ATOM     12 CL   UNL d   1     -41.427-123.048 -49.048  0.00  0.00    -0.081 Cl
ATOM     13  C   UNL d   1     -42.537-123.789 -49.566  0.00  0.00     0.013 A 
ATOM     14  C   UNL d   1     -43.229-123.808 -50.041  0.00  0.00     0.001 A 
ATOM     15  C   UNL d   1     -43.470-123.137 -50.438  0.00  0.00     0.002 A 
ATOM     16  C   UNL d   1     -43.059-122.455 -50.385  0.00  0.00     0.020 A 
ENDBRANCH   8  10
ENDBRANCH   1   7
BRANCH   2  17
ATOM     17  C   UNL d   1     -41.523-123.171 -53.317  0.00  0.00     0.019 C 
ATOM     18  C   UNL d   1     -41.834-122.524 -53.723  0.00  0.00     0.004 C 
ATOM     19  C   UNL d   1     -41.214-123.817 -52.912  0.00  0.00     0.004 C 
ATOM     20  C   UNL d   1     -41.518-123.608 -54.017  0.00  0.00     0.004 C 
ENDBRANCH   2  17
TORSDOF 3
ENDMDL
