MODEL 1
REMARK VINA RESULT:     -10.0      0.000      0.000
REMARK  3 active torsions:
REMARK  status: ('A' for Active; 'I' for Inactive)
REMARK    1  A    between atoms: C_8  and  C_6 
REMARK    2  A    between atoms: C_9  and  C_8 
REMARK       I    between atoms: N_10  and  C_9 
REMARK    3  A    between atoms: C_14  and  N_10 
ROOT
ATOM      1  N   UNL d   1      53.654  33.526  54.796  0.00  0.00    -0.207 NA
ATOM      2  N   UNL d   1      52.910  32.749  53.510  0.00  0.00    -0.240 NA
ATOM      3  C   UNL d   1      53.697  32.760  54.520  0.00  0.00     0.297 A 
ATOM      4  C   UNL d   1      53.212  34.165  54.507  0.00  0.00     0.086 A 
ATOM      5  C   UNL d   1      52.582  33.494  53.413  0.00  0.00     0.083 A 
ATOM      6  C   UNL d   1      53.443  32.501  54.084  0.00  0.00     0.144 A 
ATOM      7  C   UNL d   1      52.701  34.176  53.860  0.00  0.00     0.035 A 
ATOM      8  O   UNL d   1      54.198  32.264  54.946  0.00  0.00    -0.264 OA
ATOM      9  C   UNL d   1      52.307  34.874  53.658  0.00  0.00     0.003 A 
ATOM     10  C   UNL d   1      52.073  33.502  52.766  0.00  0.00     0.019 A 
ATOM     11  C   UNL d   1      53.328  34.856  54.955  0.00  0.00     0.019 A 
ATOM     12  C   UNL d   1      51.675  34.207  52.562  0.00  0.00     0.002 A 
ATOM     13  C   UNL d   1      52.933  35.552  54.751  0.00  0.00     0.002 A 
ATOM     14  C   UNL d   1      51.792  34.893  53.009  0.00  0.00     0.000 A 
ATOM     15  C   UNL d   1      52.426  35.561  54.107  0.00  0.00     0.000 A 
ENDROOT
BRANCH   6  16
ATOM     16  C   UNL d   1      53.657  31.709  54.016  0.00  0.00     0.086 C 
BRANCH  16  17
ATOM     17  C   UNL d   1      54.168  31.481  53.405  0.00  0.00     0.281 C 
ATOM     18  N   UNL d   1      54.145  30.704  53.128  0.00  0.00    -0.208 NA
ATOM     19  O   UNL d   1      54.698  32.023  53.072  0.00  0.00    -0.265 OA
BRANCH  18  20
ATOM     20  C   UNL d   1      53.621  30.153  53.452  0.00  0.00     0.085 A 
ATOM     21  C   UNL d   1      53.819  29.737  54.126  0.00  0.00     0.019 A 
ATOM     22  C   UNL d   1      53.296  29.191  54.445  0.00  0.00     0.002 A 
ATOM     23  C   UNL d   1      52.563  29.058  54.083  0.00  0.00     0.000 A 
ATOM     24  C   UNL d   1      52.367  29.486  53.395  0.00  0.00     0.002 A 
ATOM     25  C   UNL d   1      52.896  30.028  53.087  0.00  0.00     0.019 A 
ENDBRANCH  18  20
ENDBRANCH  16  17
ENDBRANCH   6  16
TORSDOF 3
ENDMDL
MODEL 2
REMARK VINA RESULT:      -9.2      1.072      1.828
REMARK  3 active torsions:
REMARK  status: ('A' for Active; 'I' for Inactive)
REMARK    1  A    between atoms: C_8  and  C_6 
REMARK    2  A    between atoms: C_9  and  C_8 
REMARK       I    between atoms: N_10  and  C_9 
REMARK    3  A    between atoms: C_14  and  N_10 
ROOT
ATOM      1  N   UNL d   1      52.209  33.501  53.666  0.00  0.00    -0.207 NA
ATOM      2  N   UNL d   1      53.483  32.490  54.072  0.00  0.00    -0.240 NA
ATOM      3  C   UNL d   1      52.336  32.705  53.545  0.00  0.00     0.297 A 
ATOM      4  C   UNL d   1      52.694  34.060  54.039  0.00  0.00     0.086 A 
ATOM      5  C   UNL d   1      53.776  33.190  54.382  0.00  0.00     0.083 A 
ATOM      6  C   UNL d   1      52.769  32.366  53.685  0.00  0.00     0.144 A 
ATOM      7  C   UNL d   1      53.434  33.940  54.383  0.00  0.00     0.035 A 
ATOM      8  O   UNL d   1      51.730  32.312  53.150  0.00  0.00    -0.264 OA
ATOM      9  C   UNL d   1      53.834  34.574  54.731  0.00  0.00     0.003 A 
ATOM     10  C   UNL d   1      54.514  33.067  54.724  0.00  0.00     0.019 A 
ATOM     11  C   UNL d   1      52.354  34.819  54.043  0.00  0.00     0.019 A 
ATOM     12  C   UNL d   1      54.919  33.707  55.076  0.00  0.00     0.002 A 
ATOM     13  C   UNL d   1      52.757  35.450  54.392  0.00  0.00     0.002 A 
ATOM     14  C   UNL d   1      54.578  34.460  55.079  0.00  0.00     0.000 A 
ATOM     15  C   UNL d   1      53.492  35.329  54.733  0.00  0.00     0.000 A 
ENDROOT
BRANCH   6  16
ATOM     16  C   UNL d   1      52.653  31.587  53.446  0.00  0.00     0.086 C 
BRANCH  16  17
ATOM     17  C   UNL d   1      52.967  31.336  52.722  0.00  0.00     0.281 C 
ATOM     18  N   UNL d   1      53.176  30.544  52.624  0.00  0.00    -0.208 NA
ATOM     19  O   UNL d   1      53.071  31.871  52.098  0.00  0.00    -0.265 OA
BRANCH  18  20
ATOM     20  C   UNL d   1      53.077  30.000  53.239  0.00  0.00     0.085 A 
ATOM     21  C   UNL d   1      52.350  29.651  53.372  0.00  0.00     0.019 A 
ATOM     22  C   UNL d   1      52.256  29.112  53.983  0.00  0.00     0.002 A 
ATOM     23  C   UNL d   1      52.897  28.917  54.469  0.00  0.00     0.000 A 
ATOM     24  C   UNL d   1      53.636  29.277  54.327  0.00  0.00     0.002 A 
ATOM     25  C   UNL d   1      53.718  29.813  53.715  0.00  0.00     0.019 A 
ENDBRANCH  18  20
ENDBRANCH  16  17
ENDBRANCH   6  16
TORSDOF 3
ENDMDL
MODEL 3
REMARK VINA RESULT:      -8.0      0.877      4.157
REMARK  3 active torsions:
REMARK  status: ('A' for Active; 'I' for Inactive)
REMARK    1  A    between atoms: C_8  and  C_6 
REMARK    2  A    between atoms: C_9  and  C_8 
REMARK       I    between atoms: N_10  and  C_9 
REMARK    3  A    between atoms: C_14  and  N_10 
ROOT
ATOM      1  N   UNL d   1      53.671  31.108  55.115  0.00  0.00    -0.207 NA
ATOM      2  N   UNL d   1      53.326  31.718  53.593  0.00  0.00    -0.240 NA
ATOM      3  C   UNL d   1      53.685  31.865  54.813  0.00  0.00     0.297 A 
ATOM      4  C   UNL d   1      53.475  30.395  54.740  0.00  0.00     0.086 A 
ATOM      5  C   UNL d   1      53.182  30.925  53.445  0.00  0.00     0.083 A 
ATOM      6  C   UNL d   1      53.567  32.067  54.296  0.00  0.00     0.144 A 
ATOM      7  C   UNL d   1      53.242  30.282  53.957  0.00  0.00     0.035 A 
ATOM      8  O   UNL d   1      53.909  32.450  55.348  0.00  0.00    -0.264 OA
ATOM      9  C   UNL d   1      53.069  29.521  53.685  0.00  0.00     0.003 A 
ATOM     10  C   UNL d   1      52.950  30.815  52.662  0.00  0.00     0.019 A 
ATOM     11  C   UNL d   1      53.534  29.743  55.253  0.00  0.00     0.019 A 
ATOM     12  C   UNL d   1      52.775  30.047  52.387  0.00  0.00     0.002 A 
ATOM     13  C   UNL d   1      53.360  28.985  54.978  0.00  0.00     0.002 A 
ATOM     14  C   UNL d   1      52.834  29.401  52.899  0.00  0.00     0.000 A 
ATOM     15  C   UNL d   1      53.128  28.874  54.199  0.00  0.00     0.000 A 
ENDROOT
BRANCH   6  16
ATOM     16  C   UNL d   1      53.658  32.884  54.246  0.00  0.00     0.086 C 
BRANCH  16  17
ATOM     17  C   UNL d   1      54.232  33.194  53.736  0.00  0.00     0.281 C 
ATOM     18  N   UNL d   1      54.129  33.952  53.425  0.00  0.00    -0.208 NA
ATOM     19  O   UNL d   1      54.904  32.754  53.537  0.00  0.00    -0.265 OA
BRANCH  18  20
ATOM     20  C   UNL d   1      53.462  34.402  53.615  0.00  0.00     0.085 A 
ATOM     21  C   UNL d   1      53.450  34.863  54.289  0.00  0.00     0.019 A 
ATOM     22  C   UNL d   1      52.787  35.308  54.475  0.00  0.00     0.002 A 
ATOM     23  C   UNL d   1      52.124  35.293  53.979  0.00  0.00     0.000 A 
ATOM     24  C   UNL d   1      52.143  34.821  53.292  0.00  0.00     0.002 A 
ATOM     25  C   UNL d   1      52.810  34.381  53.117  0.00  0.00     0.019 A 
ENDBRANCH  18  20
ENDBRANCH  16  17
ENDBRANCH   6  16
TORSDOF 3
ENDMDL
