MODEL 1
REMARK VINA RESULT:      -1.1      0.000      0.000
REMARK  4 active torsions:
REMARK  status: ('A' for Active; 'I' for Inactive)
REMARK    1  A    between atoms: N_10  and  C_2 
REMARK    2  A    between atoms: N_11  and  C_6 
REMARK    3  A    between atoms: C_12  and  N_11 
REMARK    4  A    between atoms: O_19  and  C_15 
ROOT
ATOM      1  N   UNL d   1      33.179  21.142 -22.606  0.00  0.00    -0.041 NA
ATOM      2  C   UNL d   1      33.185  21.119 -23.388  0.00  0.00     0.738 A 
ATOM      3  C   UNL d   1      33.192  20.475 -22.196  0.00  0.00     0.187 A 
ATOM      4  N   UNL d   1      33.206  20.427 -23.763  0.00  0.00    -0.041 NA
ATOM      5  C   UNL d   1      33.213  19.780 -22.567  0.00  0.00     0.094 A 
ATOM      6  C   UNL d   1      33.220  19.753 -23.358  0.00  0.00     0.185 A 
ATOM      7  N   UNL d   1      33.200  19.824 -20.991  0.00  0.00    -0.162 NA
ATOM      8  N   UNL d   1      33.186  20.503 -21.407  0.00  0.00    -0.208 N 
ATOM      9  C   UNL d   1      33.220  19.131 -21.366  0.00  0.00     0.127 A 
ATOM     10  C   UNL d   1      33.165  21.192 -21.034  0.00  0.00     0.123 C 
ENDROOT
BRANCH   6  11
ATOM     11  N   UNL d   1      33.241  19.036 -23.755  0.00  0.00    -0.226 NA
BRANCH  11  12
ATOM     12  C   UNL d   1      32.557  18.725 -24.087  0.00  0.00     0.085 A 
ATOM     13  C   UNL d   1      32.225  18.019 -23.798  0.00  0.00     0.043 A 
ATOM     14  C   UNL d   1      31.538  17.705 -24.130  0.00  0.00     0.096 A 
ATOM     15  C   UNL d   1      31.173  18.103 -24.764  0.00  0.00     0.024 A 
ATOM     16  C   UNL d   1      31.497  18.800 -25.053  0.00  0.00     0.004 A 
ATOM     17  C   UNL d   1      32.190  19.113 -24.715  0.00  0.00     0.019 A 
BRANCH  14  18
ATOM     18  O   UNL d   1      31.212  17.005 -23.841  0.00  0.00    -0.328 OA
ATOM     19  C   UNL d   1      30.995  16.286 -24.192  0.00  0.00     0.181 C 
ENDBRANCH  14  18
ENDBRANCH  11  12
ENDBRANCH   6  11
BRANCH   2  20
ATOM     20  N   UNL d   1      33.171  21.825 -23.827  0.00  0.00    -0.133 N 
ATOM     21  C   UNL d   1      33.235  21.804 -24.647  0.00  0.00     0.125 A 
ATOM     22  C   UNL d   1      33.220  22.507 -25.082  0.00  0.00     0.142 A 
ATOM     23  O   UNL d   1      33.140  23.238 -24.692  0.00  0.00    -0.300 OA
ATOM     24  C   UNL d   1      33.075  23.260 -23.866  0.00  0.00     0.142 A 
ATOM     25  C   UNL d   1      33.091  22.553 -23.433  0.00  0.00     0.125 A 
ENDBRANCH   2  20
TORSDOF 4
ENDMDL
MODEL 2
REMARK VINA RESULT:      -0.9      1.281      2.655
REMARK  4 active torsions:
REMARK  status: ('A' for Active; 'I' for Inactive)
REMARK    1  A    between atoms: N_10  and  C_2 
REMARK    2  A    between atoms: N_11  and  C_6 
REMARK    3  A    between atoms: C_12  and  N_11 
REMARK    4  A    between atoms: O_19  and  C_15 
ROOT
ATOM      1  N   UNL d   1      33.176  21.232 -22.737  0.00  0.00    -0.041 NA
ATOM      2  C   UNL d   1      33.191  20.526 -22.401  0.00  0.00     0.738 A 
ATOM      3  C   UNL d   1      33.182  21.293 -23.518  0.00  0.00     0.187 A 
ATOM      4  N   UNL d   1      33.213  19.876 -22.847  0.00  0.00    -0.041 NA
ATOM      5  C   UNL d   1      33.203  20.646 -23.967  0.00  0.00     0.094 A 
ATOM      6  C   UNL d   1      33.219  19.930 -23.632  0.00  0.00     0.185 A 
ATOM      7  N   UNL d   1      33.173  22.068 -24.647  0.00  0.00    -0.162 NA
ATOM      8  N   UNL d   1      33.167  22.008 -23.853  0.00  0.00    -0.208 N 
ATOM      9  C   UNL d   1      33.194  21.419 -25.093  0.00  0.00     0.127 A 
ATOM     10  C   UNL d   1      33.146  22.654 -23.409  0.00  0.00     0.123 C 
ENDROOT
BRANCH   6  11
ATOM     11  N   UNL d   1      33.241  19.250 -24.089  0.00  0.00    -0.226 NA
BRANCH  11  12
ATOM     12  C   UNL d   1      32.613  18.720 -24.075  0.00  0.00     0.085 A 
ATOM     13  C   UNL d   1      32.723  17.936 -23.817  0.00  0.00     0.043 A 
ATOM     14  C   UNL d   1      32.094  17.402 -23.802  0.00  0.00     0.096 A 
ATOM     15  C   UNL d   1      31.340  17.653 -24.048  0.00  0.00     0.024 A 
ATOM     16  C   UNL d   1      31.226  18.425 -24.304  0.00  0.00     0.004 A 
ATOM     17  C   UNL d   1      31.864  18.960 -24.318  0.00  0.00     0.019 A 
BRANCH  14  18
ATOM     18  O   UNL d   1      32.206  16.626 -23.545  0.00  0.00    -0.328 OA
ATOM     19  C   UNL d   1      31.707  16.055 -23.211  0.00  0.00     0.181 C 
ENDBRANCH  14  18
ENDBRANCH  11  12
ENDBRANCH   6  11
BRANCH   2  20
ATOM     20  N   UNL d   1      33.185  20.457 -21.573  0.00  0.00    -0.133 N 
ATOM     21  C   UNL d   1      33.236  19.716 -21.219  0.00  0.00     0.125 A 
ATOM     22  C   UNL d   1      33.230  19.649 -20.394  0.00  0.00     0.142 A 
ATOM     23  O   UNL d   1      33.172  20.331 -19.920  0.00  0.00    -0.300 OA
ATOM     24  C   UNL d   1      33.121  21.077 -20.276  0.00  0.00     0.142 A 
ATOM     25  C   UNL d   1      33.128  21.141 -21.103  0.00  0.00     0.125 A 
ENDBRANCH   2  20
TORSDOF 4
ENDMDL
MODEL 3
REMARK VINA RESULT:       1.2      1.497      4.014
REMARK  4 active torsions:
REMARK  status: ('A' for Active; 'I' for Inactive)
REMARK    1  A    between atoms: N_10  and  C_2 
REMARK    2  A    between atoms: N_11  and  C_6 
REMARK    3  A    between atoms: C_12  and  N_11 
REMARK    4  A    between atoms: O_19  and  C_15 
ROOT
ATOM      1  N   UNL d   1      33.176  20.269 -21.347  0.00  0.00    -0.041 NA
ATOM      2  C   UNL d   1      33.188  20.567 -22.071  0.00  0.00     0.738 A 
ATOM      3  C   UNL d   1      33.184  20.749 -20.728  0.00  0.00     0.187 A 
ATOM      4  N   UNL d   1      33.210  21.347 -22.176  0.00  0.00    -0.041 NA
ATOM      5  C   UNL d   1      33.206  21.530 -20.830  0.00  0.00     0.094 A 
ATOM      6  C   UNL d   1      33.219  21.835 -21.559  0.00  0.00     0.185 A 
ATOM      7  N   UNL d   1      33.181  20.933 -19.370  0.00  0.00    -0.162 NA
ATOM      8  N   UNL d   1      33.172  20.444 -19.999  0.00  0.00    -0.208 N 
ATOM      9  C   UNL d   1      33.202  21.713 -19.476  0.00  0.00     0.127 A 
ATOM     10  C   UNL d   1      33.150  19.667 -19.894  0.00  0.00     0.123 C 
ENDROOT
BRANCH   6  11
ATOM     11  N   UNL d   1      33.241  22.646 -21.677  0.00  0.00    -0.226 NA
BRANCH  11  12
ATOM     12  C   UNL d   1      32.766  22.995 -22.249  0.00  0.00     0.085 A 
ATOM     13  C   UNL d   1      33.067  23.172 -23.004  0.00  0.00     0.043 A 
ATOM     14  C   UNL d   1      32.591  23.523 -23.579  0.00  0.00     0.096 A 
ATOM     15  C   UNL d   1      31.798  23.702 -23.400  0.00  0.00     0.024 A 
ATOM     16  C   UNL d   1      31.496  23.529 -22.656  0.00  0.00     0.004 A 
ATOM     17  C   UNL d   1      31.980  23.175 -22.078  0.00  0.00     0.019 A 
BRANCH  14  18
ATOM     18  O   UNL d   1      32.893  23.698 -24.327  0.00  0.00    -0.328 OA
ATOM     19  C   UNL d   1      32.571  23.692 -25.090  0.00  0.00     0.181 C 
ENDBRANCH  14  18
ENDBRANCH  11  12
ENDBRANCH   6  11
BRANCH   2  20
ATOM     20  N   UNL d   1      33.179  20.062 -22.730  0.00  0.00    -0.133 N 
ATOM     21  C   UNL d   1      33.205  20.374 -23.492  0.00  0.00     0.125 A 
ATOM     22  C   UNL d   1      33.195  19.870 -24.147  0.00  0.00     0.142 A 
ATOM     23  O   UNL d   1      33.160  19.045 -24.039  0.00  0.00    -0.300 OA
ATOM     24  C   UNL d   1      33.135  18.730 -23.273  0.00  0.00     0.142 A 
ATOM     25  C   UNL d   1      33.144  19.238 -22.619  0.00  0.00     0.125 A 
ENDBRANCH   2  20
TORSDOF 4
ENDMDL
