MODEL 1
REMARK VINA RESULT:      -8.2      0.000      0.000
REMARK  3 active torsions:
REMARK  status: ('A' for Active; 'I' for Inactive)
REMARK    1  A    between atoms: C_8  and  N_2 
REMARK    2  A    between atoms: C_6  and  C_3 
REMARK    3  A    between atoms: C_7  and  C_4 
ROOT
ATOM      1  N   UNL d   1     -47.458  13.853  23.096  0.00  0.00    -0.159 NA
ATOM      2  N   UNL d   1     -48.240  13.764  22.823  0.00  0.00    -0.234 N 
ATOM      3  C   UNL d   1     -47.047  13.186  22.898  0.00  0.00     0.167 A 
ATOM      4  C   UNL d   1     -48.296  13.039  22.459  0.00  0.00     0.062 A 
ATOM      5  C   UNL d   1     -47.559  12.673  22.501  0.00  0.00     0.042 A 
ENDROOT
BRANCH   2   6
ATOM      6  C   UNL d   1     -48.821  14.339  22.927  0.00  0.00     0.083 A 
ATOM      7  C   UNL d   1     -49.354  14.284  23.546  0.00  0.00     0.019 A 
ATOM      8  C   UNL d   1     -49.928  14.857  23.644  0.00  0.00     0.002 A 
ATOM      9  C   UNL d   1     -49.975  15.486  23.127  0.00  0.00     0.000 A 
ATOM     10  C   UNL d   1     -49.442  15.541  22.509  0.00  0.00     0.002 A 
ATOM     11  C   UNL d   1     -48.861  14.965  22.405  0.00  0.00     0.019 A 
ENDBRANCH   2   6
BRANCH   4  12
ATOM     12  C   UNL d   1     -48.975  12.712  22.102  0.00  0.00     0.036 C 
ATOM     13  C   UNL d   1     -49.653  12.386  21.744  0.00  0.00     0.006 C 
ATOM     14  C   UNL d   1     -48.763  13.066  21.377  0.00  0.00     0.006 C 
ATOM     15  C   UNL d   1     -49.182  12.360  22.828  0.00  0.00     0.006 C 
ENDBRANCH   4  12
BRANCH   3  16
ATOM     16  C   UNL d   1     -46.248  13.041  23.064  0.00  0.00     0.231 C 
ATOM     17  O   UNL d   1     -45.661  13.381  22.595  0.00  0.00    -0.643 OA
ATOM     18  O   UNL d   1     -46.049  12.558  23.698  0.00  0.00    -0.643 OA
ENDBRANCH   3  16
TORSDOF 3
ENDMDL
MODEL 2
REMARK VINA RESULT:      -8.0      0.776      1.986
REMARK  3 active torsions:
REMARK  status: ('A' for Active; 'I' for Inactive)
REMARK    1  A    between atoms: C_8  and  N_2 
REMARK    2  A    between atoms: C_6  and  C_3 
REMARK    3  A    between atoms: C_7  and  C_4 
ROOT
ATOM      1  N   UNL d   1     -47.534  12.929  22.990  0.00  0.00    -0.159 NA
ATOM      2  N   UNL d   1     -48.305  13.216  22.865  0.00  0.00    -0.234 N 
ATOM      3  C   UNL d   1     -47.019  13.544  22.886  0.00  0.00     0.167 A 
ATOM      4  C   UNL d   1     -48.252  14.007  22.684  0.00  0.00     0.062 A 
ATOM      5  C   UNL d   1     -47.455  14.219  22.695  0.00  0.00     0.042 A 
ENDROOT
BRANCH   2   6
ATOM      6  C   UNL d   1     -48.977  12.742  22.925  0.00  0.00     0.083 A 
ATOM      7  C   UNL d   1     -49.352  12.642  23.645  0.00  0.00     0.019 A 
ATOM      8  C   UNL d   1     -50.018  12.170  23.698  0.00  0.00     0.002 A 
ATOM      9  C   UNL d   1     -50.312  11.797  23.036  0.00  0.00     0.000 A 
ATOM     10  C   UNL d   1     -49.937  11.897  22.316  0.00  0.00     0.002 A 
ATOM     11  C   UNL d   1     -49.265  12.371  22.257  0.00  0.00     0.019 A 
ENDBRANCH   2   6
BRANCH   4  12
ATOM     12  C   UNL d   1     -48.884  14.523  22.516  0.00  0.00     0.036 C 
ATOM     13  C   UNL d   1     -49.516  15.039  22.347  0.00  0.00     0.006 C 
ATOM     14  C   UNL d   1     -48.831  14.324  21.708  0.00  0.00     0.006 C 
ATOM     15  C   UNL d   1     -48.934  14.720  23.324  0.00  0.00     0.006 C 
ENDBRANCH   4  12
BRANCH   3  16
ATOM     16  C   UNL d   1     -46.195  13.504  22.957  0.00  0.00     0.231 C 
ATOM     17  O   UNL d   1     -45.718  13.586  22.289  0.00  0.00    -0.643 OA
ATOM     18  O   UNL d   1     -45.860  13.382  23.697  0.00  0.00    -0.643 OA
ENDBRANCH   3  16
TORSDOF 3
ENDMDL
MODEL 3
REMARK VINA RESULT:      -7.8      1.745      2.931
REMARK  3 active torsions:
REMARK  status: ('A' for Active; 'I' for Inactive)
REMARK    1  A    between atoms: C_8  and  N_2 
REMARK    2  A    between atoms: C_6  and  C_3 
REMARK    3  A    between atoms: C_7  and  C_4 
ROOT
ATOM      1  N   UNL d   1     -48.535  14.532  23.004  0.00  0.00    -0.159 NA
ATOM      2  N   UNL d   1     -48.339  13.763  22.752  0.00  0.00    -0.234 N 
ATOM      3  C   UNL d   1     -49.307  14.669  22.808  0.00  0.00     0.167 A 
ATOM      4  C   UNL d   1     -48.998  13.438  22.405  0.00  0.00     0.062 A 
ATOM      5  C   UNL d   1     -49.605  13.995  22.435  0.00  0.00     0.042 A 
ENDROOT
BRANCH   2   6
ATOM      6  C   UNL d   1     -47.591  13.431  22.860  0.00  0.00     0.083 A 
ATOM      7  C   UNL d   1     -47.449  12.920  23.483  0.00  0.00     0.019 A 
ATOM      8  C   UNL d   1     -46.706  12.595  23.584  0.00  0.00     0.002 A 
ATOM      9  C   UNL d   1     -46.103  12.775  23.066  0.00  0.00     0.000 A 
ATOM     10  C   UNL d   1     -46.246  13.286  22.443  0.00  0.00     0.002 A 
ATOM     11  C   UNL d   1     -46.993  13.618  22.336  0.00  0.00     0.019 A 
ENDBRANCH   2   6
BRANCH   4  12
ATOM     12  C   UNL d   1     -49.061  12.676  22.072  0.00  0.00     0.036 C 
ATOM     13  C   UNL d   1     -49.125  11.915  21.740  0.00  0.00     0.006 C 
ATOM     14  C   UNL d   1     -49.319  12.378  22.807  0.00  0.00     0.006 C 
ATOM     15  C   UNL d   1     -48.804  12.979  21.340  0.00  0.00     0.006 C 
ENDBRANCH   4  12
BRANCH   3  16
ATOM     16  C   UNL d   1     -49.728  15.367  22.957  0.00  0.00     0.231 C 
ATOM     17  O   UNL d   1     -50.193  15.703  22.364  0.00  0.00    -0.643 OA
ATOM     18  O   UNL d   1     -49.678  15.719  23.698  0.00  0.00    -0.643 OA
ENDBRANCH   3  16
TORSDOF 3
ENDMDL
