MODEL 1
REMARK VINA RESULT:      -4.2      0.000      0.000
REMARK  2 active torsions:
REMARK  status: ('A' for Active; 'I' for Inactive)
REMARK    1  A    between atoms: C_11  and  C_2 
REMARK    2  A    between atoms: C_9  and  C_6 
ROOT
ATOM      1  C   UNL d   1      57.681   0.345  32.209  0.00  0.00     0.045 A 
ATOM      2  C   UNL d   1      57.295   0.295  32.927  0.00  0.00     0.127 A 
ATOM      3  C   UNL d   1      57.425   0.202  31.438  0.00  0.00     0.010 A 
ATOM      4  O   UNL d   1      57.821   0.501  33.519  0.00  0.00    -0.211 OA
ATOM      5  N   UNL d   1      58.547   0.682  33.167  0.00  0.00    -0.126 NA
ATOM      6  C   UNL d   1      57.948   0.300  30.807  0.00  0.00     0.065 A 
ATOM      7  C   UNL d   1      58.459   0.585  32.350  0.00  0.00     0.110 A 
ATOM      8  C   UNL d   1      58.727   0.540  30.948  0.00  0.00     0.008 A 
ATOM      9  C   UNL d   1      58.982   0.682  31.719  0.00  0.00     0.022 A 
ENDROOT
BRANCH   2  10
ATOM     10  C   UNL d   1      56.504   0.074  33.047  0.00  0.00     0.025 A 
ATOM     11  C   UNL d   1      56.301  -0.727  33.037  0.00  0.00     0.002 A 
ATOM     12  C   UNL d   1      55.515  -0.955  33.156  0.00  0.00     0.000 A 
ATOM     13  C   UNL d   1      54.933  -0.379  33.284  0.00  0.00     0.000 A 
ATOM     14  C   UNL d   1      55.141   0.423  33.293  0.00  0.00     0.000 A 
ATOM     15  C   UNL d   1      55.925   0.648  33.175  0.00  0.00     0.002 A 
ENDBRANCH   2  10
BRANCH   6  16
ATOM     16  C   UNL d   1      57.693   0.158  30.036  0.00  0.00     0.211 C 
ATOM     17  O   UNL d   1      57.145   0.663  29.677  0.00  0.00    -0.644 OA
ATOM     18  O   UNL d   1      57.991  -0.497  29.623  0.00  0.00    -0.644 OA
ENDBRANCH   6  16
TORSDOF 2
ENDMDL
MODEL 2
REMARK VINA RESULT:      -3.6      2.561      4.378
REMARK  2 active torsions:
REMARK  status: ('A' for Active; 'I' for Inactive)
REMARK    1  A    between atoms: C_11  and  C_2 
REMARK    2  A    between atoms: C_9  and  C_6 
ROOT
ATOM      1  C   UNL d   1      58.576  -0.659  29.535  0.00  0.00     0.045 A 
ATOM      2  C   UNL d   1      59.030  -1.048  28.978  0.00  0.00     0.127 A 
ATOM      3  C   UNL d   1      58.147  -0.934  30.184  0.00  0.00     0.010 A 
ATOM      4  O   UNL d   1      59.330  -0.495  28.455  0.00  0.00    -0.211 OA
ATOM      5  N   UNL d   1      59.060   0.252  28.687  0.00  0.00    -0.126 NA
ATOM      6  C   UNL d   1      57.732  -0.402  30.658  0.00  0.00     0.065 A 
ATOM      7  C   UNL d   1      58.590   0.149  29.361  0.00  0.00     0.110 A 
ATOM      8  C   UNL d   1      57.746   0.406  30.484  0.00  0.00     0.008 A 
ATOM      9  C   UNL d   1      58.175   0.682  29.835  0.00  0.00     0.022 A 
ENDROOT
BRANCH   2  10
ATOM     10  C   UNL d   1      59.169  -1.866  28.941  0.00  0.00     0.025 A 
ATOM     11  C   UNL d   1      59.834  -2.180  29.318  0.00  0.00     0.002 A 
ATOM     12  C   UNL d   1      59.980  -2.994  29.285  0.00  0.00     0.000 A 
ATOM     13  C   UNL d   1      59.459  -3.490  28.875  0.00  0.00     0.000 A 
ATOM     14  C   UNL d   1      58.794  -3.170  28.498  0.00  0.00     0.000 A 
ATOM     15  C   UNL d   1      58.650  -2.359  28.532  0.00  0.00     0.002 A 
ENDBRANCH   2  10
BRANCH   6  16
ATOM     16  C   UNL d   1      57.303  -0.677  31.307  0.00  0.00     0.211 C 
ATOM     17  O   UNL d   1      56.924  -1.411  31.276  0.00  0.00    -0.644 OA
ATOM     18  O   UNL d   1      57.256  -0.210  31.991  0.00  0.00    -0.644 OA
ENDBRANCH   6  16
TORSDOF 2
ENDMDL
MODEL 3
REMARK VINA RESULT:      -3.5      1.995      3.054
REMARK  2 active torsions:
REMARK  status: ('A' for Active; 'I' for Inactive)
REMARK    1  A    between atoms: C_11  and  C_2 
REMARK    2  A    between atoms: C_9  and  C_6 
ROOT
ATOM      1  C   UNL d   1      58.643   0.235  29.675  0.00  0.00     0.045 A 
ATOM      2  C   UNL d   1      57.872   0.274  29.942  0.00  0.00     0.127 A 
ATOM      3  C   UNL d   1      59.346   0.036  30.057  0.00  0.00     0.010 A 
ATOM      4  O   UNL d   1      57.393   0.505  29.319  0.00  0.00    -0.211 OA
ATOM      5  N   UNL d   1      57.871   0.612  28.653  0.00  0.00    -0.126 NA
ATOM      6  C   UNL d   1      60.058   0.044  29.640  0.00  0.00     0.065 A 
ATOM      7  C   UNL d   1      58.651   0.443  28.875  0.00  0.00     0.110 A 
ATOM      8  C   UNL d   1      60.065   0.253  28.839  0.00  0.00     0.008 A 
ATOM      9  C   UNL d   1      59.362   0.452  28.458  0.00  0.00     0.022 A 
ENDROOT
BRANCH   2  10
ATOM     10  C   UNL d   1      57.607   0.110  30.712  0.00  0.00     0.025 A 
ATOM     11  C   UNL d   1      57.288  -0.634  30.879  0.00  0.00     0.002 A 
ATOM     12  C   UNL d   1      57.022  -0.805  31.644  0.00  0.00     0.000 A 
ATOM     13  C   UNL d   1      57.078  -0.231  32.239  0.00  0.00     0.000 A 
ATOM     14  C   UNL d   1      57.400   0.513  32.066  0.00  0.00     0.000 A 
ATOM     15  C   UNL d   1      57.663   0.682  31.303  0.00  0.00     0.002 A 
ENDBRANCH   2  10
BRANCH   6  16
ATOM     16  C   UNL d   1      60.761  -0.155  30.021  0.00  0.00     0.211 C 
ATOM     17  O   UNL d   1      61.103   0.366  30.565  0.00  0.00    -0.644 OA
ATOM     18  O   UNL d   1      61.122  -0.883  29.855  0.00  0.00    -0.644 OA
ENDBRANCH   6  16
TORSDOF 2
ENDMDL
MODEL 4
REMARK VINA RESULT:      -2.6      3.344      4.603
REMARK  2 active torsions:
REMARK  status: ('A' for Active; 'I' for Inactive)
REMARK    1  A    between atoms: C_11  and  C_2 
REMARK    2  A    between atoms: C_9  and  C_6 
ROOT
ATOM      1  C   UNL d   1      59.885  -1.524  29.094  0.00  0.00     0.045 A 
ATOM      2  C   UNL d   1      59.849  -0.716  29.205  0.00  0.00     0.127 A 
ATOM      3  C   UNL d   1      59.295  -2.091  28.988  0.00  0.00     0.010 A 
ATOM      4  O   UNL d   1      60.611  -0.430  29.281  0.00  0.00    -0.211 OA
ATOM      5  N   UNL d   1      61.133  -1.067  29.216  0.00  0.00    -0.126 NA
ATOM      6  C   UNL d   1      59.500  -2.884  28.887  0.00  0.00     0.065 A 
ATOM      7  C   UNL d   1      60.681  -1.750  29.100  0.00  0.00     0.110 A 
ATOM      8  C   UNL d   1      60.296  -3.110  28.893  0.00  0.00     0.008 A 
ATOM      9  C   UNL d   1      60.886  -2.543  28.999  0.00  0.00     0.022 A 
ENDROOT
BRANCH   2  10
ATOM     10  C   UNL d   1      59.159  -0.254  29.237  0.00  0.00     0.025 A 
ATOM     11  C   UNL d   1      58.864   0.080  28.541  0.00  0.00     0.002 A 
ATOM     12  C   UNL d   1      58.177   0.542  28.564  0.00  0.00     0.000 A 
ATOM     13  C   UNL d   1      57.789   0.668  29.286  0.00  0.00     0.000 A 
ATOM     14  C   UNL d   1      58.090   0.331  29.980  0.00  0.00     0.000 A 
ATOM     15  C   UNL d   1      58.773  -0.129  29.955  0.00  0.00     0.002 A 
ENDBRANCH   2  10
BRANCH   6  16
ATOM     16  C   UNL d   1      58.911  -3.451  28.780  0.00  0.00     0.211 C 
ATOM     17  O   UNL d   1      59.095  -4.189  28.455  0.00  0.00    -0.644 OA
ATOM     18  O   UNL d   1      58.132  -3.274  29.002  0.00  0.00    -0.644 OA
ENDBRANCH   6  16
TORSDOF 2
ENDMDL
MODEL 5
REMARK VINA RESULT:      -2.5      1.663      2.306
REMARK  2 active torsions:
REMARK  status: ('A' for Active; 'I' for Inactive)
REMARK    1  A    between atoms: C_11  and  C_2 
REMARK    2  A    between atoms: C_9  and  C_6 
ROOT
ATOM      1  C   UNL d   1      56.184  -0.799  32.649  0.00  0.00     0.045 A 
ATOM      2  C   UNL d   1      55.594  -0.898  33.205  0.00  0.00     0.127 A 
ATOM      3  C   UNL d   1      56.724  -0.188  32.524  0.00  0.00     0.010 A 
ATOM      4  O   UNL d   1      55.225  -1.616  33.066  0.00  0.00    -0.211 OA
ATOM      5  N   UNL d   1      55.589  -1.971  32.414  0.00  0.00    -0.126 NA
ATOM      6  C   UNL d   1      57.267  -0.239  31.906  0.00  0.00     0.065 A 
ATOM      7  C   UNL d   1      56.187  -1.461  32.154  0.00  0.00     0.110 A 
ATOM      8  C   UNL d   1      57.270  -0.901  31.411  0.00  0.00     0.008 A 
ATOM      9  C   UNL d   1      56.730  -1.512  31.535  0.00  0.00     0.022 A 
ENDROOT
BRANCH   2  10
ATOM     10  C   UNL d   1      55.394  -0.368  33.812  0.00  0.00     0.025 A 
ATOM     11  C   UNL d   1      55.833  -0.372  34.512  0.00  0.00     0.002 A 
ATOM     12  C   UNL d   1      55.640   0.154  35.122  0.00  0.00     0.000 A 
ATOM     13  C   UNL d   1      55.008   0.682  35.027  0.00  0.00     0.000 A 
ATOM     14  C   UNL d   1      54.572   0.682  34.323  0.00  0.00     0.000 A 
ATOM     15  C   UNL d   1      54.766   0.158  33.717  0.00  0.00     0.002 A 
ENDBRANCH   2  10
BRANCH   6  16
ATOM     16  C   UNL d   1      57.808   0.372  31.782  0.00  0.00     0.211 C 
ATOM     17  O   UNL d   1      58.240   0.682  32.415  0.00  0.00    -0.644 OA
ATOM     18  O   UNL d   1      57.913   0.673  31.016  0.00  0.00    -0.644 OA
ENDBRANCH   6  16
TORSDOF 2
ENDMDL
MODEL 6
REMARK VINA RESULT:      -2.3      1.298      3.130
REMARK  2 active torsions:
REMARK  status: ('A' for Active; 'I' for Inactive)
REMARK    1  A    between atoms: C_11  and  C_2 
REMARK    2  A    between atoms: C_9  and  C_6 
ROOT
ATOM      1  C   UNL d   1      57.426   0.037  32.307  0.00  0.00     0.045 A 
ATOM      2  C   UNL d   1      57.986   0.266  31.759  0.00  0.00     0.127 A 
ATOM      3  C   UNL d   1      56.714  -0.373  32.228  0.00  0.00     0.010 A 
ATOM      4  O   UNL d   1      58.586   0.661  32.150  0.00  0.00    -0.211 OA
ATOM      5  N   UNL d   1      58.400   0.680  32.955  0.00  0.00    -0.126 NA
ATOM      6  C   UNL d   1      56.253  -0.529  32.893  0.00  0.00     0.065 A 
ATOM      7  C   UNL d   1      57.676   0.291  33.054  0.00  0.00     0.110 A 
ATOM      8  C   UNL d   1      56.503  -0.274  33.639  0.00  0.00     0.008 A 
ATOM      9  C   UNL d   1      57.214   0.135  33.719  0.00  0.00     0.022 A 
ENDROOT
BRANCH   2  10
ATOM     10  C   UNL d   1      57.960   0.126  30.941  0.00  0.00     0.025 A 
ATOM     11  C   UNL d   1      58.277  -0.576  30.641  0.00  0.00     0.002 A 
ATOM     12  C   UNL d   1      58.256  -0.723  29.826  0.00  0.00     0.000 A 
ATOM     13  C   UNL d   1      57.916  -0.166  29.316  0.00  0.00     0.000 A 
ATOM     14  C   UNL d   1      57.599   0.536  29.622  0.00  0.00     0.000 A 
ATOM     15  C   UNL d   1      57.622   0.680  30.433  0.00  0.00     0.002 A 
ENDBRANCH   2  10
BRANCH   6  16
ATOM     16  C   UNL d   1      55.541  -0.938  32.814  0.00  0.00     0.211 C 
ATOM     17  O   UNL d   1      55.536  -1.715  32.529  0.00  0.00    -0.644 OA
ATOM     18  O   UNL d   1      54.831  -0.564  33.022  0.00  0.00    -0.644 OA
ENDBRANCH   6  16
TORSDOF 2
ENDMDL
MODEL 7
REMARK VINA RESULT:      -1.7      1.264      2.186
REMARK  2 active torsions:
REMARK  status: ('A' for Active; 'I' for Inactive)
REMARK    1  A    between atoms: C_11  and  C_2 
REMARK    2  A    between atoms: C_9  and  C_6 
ROOT
ATOM      1  C   UNL d   1      57.801   0.267  31.509  0.00  0.00     0.045 A 
ATOM      2  C   UNL d   1      57.010   0.072  31.568  0.00  0.00     0.127 A 
ATOM      3  C   UNL d   1      58.392   0.345  32.080  0.00  0.00     0.010 A 
ATOM      4  O   UNL d   1      56.685   0.078  30.817  0.00  0.00    -0.211 OA
ATOM      5  N   UNL d   1      57.280   0.279  30.280  0.00  0.00    -0.126 NA
ATOM      6  C   UNL d   1      59.157   0.552  31.853  0.00  0.00     0.065 A 
ATOM      7  C   UNL d   1      57.976   0.397  30.711  0.00  0.00     0.110 A 
ATOM      8  C   UNL d   1      59.333   0.682  31.056  0.00  0.00     0.008 A 
ATOM      9  C   UNL d   1      58.742   0.604  30.485  0.00  0.00     0.022 A 
ENDROOT
BRANCH   2  10
ATOM     10  C   UNL d   1      56.597  -0.103  32.267  0.00  0.00     0.025 A 
ATOM     11  C   UNL d   1      56.483   0.491  32.829  0.00  0.00     0.002 A 
ATOM     12  C   UNL d   1      56.073   0.324  33.528  0.00  0.00     0.000 A 
ATOM     13  C   UNL d   1      55.777  -0.439  33.661  0.00  0.00     0.000 A 
ATOM     14  C   UNL d   1      55.893  -1.031  33.093  0.00  0.00     0.000 A 
ATOM     15  C   UNL d   1      56.303  -0.862  32.398  0.00  0.00     0.002 A 
ENDBRANCH   2  10
BRANCH   6  16
ATOM     16  C   UNL d   1      59.748   0.629  32.424  0.00  0.00     0.211 C 
ATOM     17  O   UNL d   1      60.544   0.655  32.200  0.00  0.00    -0.644 OA
ATOM     18  O   UNL d   1      59.536   0.682  33.224  0.00  0.00    -0.644 OA
ENDBRANCH   6  16
TORSDOF 2
ENDMDL
