MODEL 1
REMARK VINA RESULT:      16.7      0.000      0.000
REMARK  3 active torsions:
REMARK  status: ('A' for Active; 'I' for Inactive)
REMARK    1  A    between atoms: N_6  and  C_2 
REMARK    2  A    between atoms: C_8  and  C_5 
REMARK    3  A    between atoms: C_9  and  N_7 
ROOT
ATOM      1  N   UNL d   1      46.063 -17.108  43.885  0.00  0.00    -0.281 N 
ATOM      2  N   UNL d   1      45.823 -15.526  44.242  0.00  0.00    -0.301 N 
ATOM      3  C   UNL d   1      46.157 -16.538  43.294  0.00  0.00     0.101 A 
ATOM      4  C   UNL d   1      45.849 -16.883  44.655  0.00  0.00     0.101 A 
ATOM      5  C   UNL d   1      45.732 -16.095  44.821  0.00  0.00     0.100 A 
ATOM      6  C   UNL d   1      46.037 -15.754  43.476  0.00  0.00     0.100 A 
ENDROOT
BRANCH   1   7
ATOM      7  C   UNL d   1      46.185 -17.906  43.703  0.00  0.00     0.183 A 
ATOM      8  N   UNL d   1      46.387 -18.501  44.228  0.00  0.00    -0.183 NA
ATOM      9  C   UNL d   1      46.452 -19.210  43.807  0.00  0.00     0.287 A 
ATOM     10  C   UNL d   1      46.287 -19.042  43.013  0.00  0.00     0.090 A 
ATOM     11  O   UNL d   1      46.643 -19.940  44.118  0.00  0.00    -0.265 OA
ATOM     12  S   UNL d   1      46.122 -18.240  42.944  0.00  0.00    -0.045 SA
BRANCH  10  13
ATOM     13  C   UNL d   1      46.289 -19.593  42.399  0.00  0.00     0.011 C 
ATOM     14  C   UNL d   1      46.646 -19.416  41.675  0.00  0.00     0.001 C 
ATOM     15  C   UNL d   1      45.932 -20.329  42.508  0.00  0.00     0.001 C 
ENDBRANCH  10  13
ENDBRANCH   1   7
BRANCH   2  16
ATOM     16  C   UNL d   1      45.702 -14.726  44.420  0.00  0.00     0.064 A 
ATOM     17  C   UNL d   1      44.969 -14.382  44.263  0.00  0.00     0.018 A 
ATOM     18  C   UNL d   1      44.851 -13.582  44.443  0.00  0.00     0.002 A 
ATOM     19  C   UNL d   1      45.457 -13.135  44.774  0.00  0.00     0.000 A 
ATOM     20  C   UNL d   1      46.191 -13.491  44.929  0.00  0.00     0.002 A 
ATOM     21  C   UNL d   1      45.338 -12.339  44.953  0.00  0.00     0.000 C 
ATOM     22  C   UNL d   1      46.313 -14.290  44.751  0.00  0.00     0.018 A 
ENDBRANCH   2  16
TORSDOF 3
ENDMDL
MODEL 2
REMARK VINA RESULT:      17.2      1.997      5.079
REMARK  3 active torsions:
REMARK  status: ('A' for Active; 'I' for Inactive)
REMARK    1  A    between atoms: N_6  and  C_2 
REMARK    2  A    between atoms: C_8  and  C_5 
REMARK    3  A    between atoms: C_9  and  N_7 
ROOT
ATOM      1  N   UNL d   1      45.889 -15.433  44.288  0.00  0.00    -0.281 N 
ATOM      2  N   UNL d   1      46.109 -17.058  44.267  0.00  0.00    -0.301 N 
ATOM      3  C   UNL d   1      46.197 -15.794  43.613  0.00  0.00     0.101 A 
ATOM      4  C   UNL d   1      45.691 -15.889  44.954  0.00  0.00     0.101 A 
ATOM      5  C   UNL d   1      45.804 -16.695  44.932  0.00  0.00     0.100 A 
ATOM      6  C   UNL d   1      46.305 -16.600  43.606  0.00  0.00     0.100 A 
ENDROOT
BRANCH   1   7
ATOM      7  C   UNL d   1      45.779 -14.613  44.297  0.00  0.00     0.183 A 
ATOM      8  N   UNL d   1      46.163 -14.074  44.780  0.00  0.00    -0.183 NA
ATOM      9  C   UNL d   1      45.882 -13.317  44.601  0.00  0.00     0.287 A 
ATOM     10  C   UNL d   1      45.318 -13.399  44.000  0.00  0.00     0.090 A 
ATOM     11  O   UNL d   1      46.118 -12.619  44.954  0.00  0.00    -0.265 OA
ATOM     12  S   UNL d   1      45.251 -14.194  43.809  0.00  0.00    -0.045 SA
BRANCH  10  13
ATOM     13  C   UNL d   1      44.898 -12.778  43.654  0.00  0.00     0.011 C 
ATOM     14  C   UNL d   1      45.285 -12.215  43.189  0.00  0.00     0.001 C 
ATOM     15  C   UNL d   1      44.084 -12.718  43.774  0.00  0.00     0.001 C 
ENDBRANCH  10  13
ENDBRANCH   1   7
BRANCH   2  16
ATOM     16  C   UNL d   1      46.221 -17.878  44.254  0.00  0.00     0.064 A 
ATOM     17  C   UNL d   1      46.381 -18.255  43.539  0.00  0.00     0.018 A 
ATOM     18  C   UNL d   1      46.493 -19.076  43.529  0.00  0.00     0.002 A 
ATOM     19  C   UNL d   1      46.444 -19.511  44.226  0.00  0.00     0.000 A 
ATOM     20  C   UNL d   1      46.282 -19.123  44.941  0.00  0.00     0.002 A 
ATOM     21  C   UNL d   1      46.555 -20.328  44.215  0.00  0.00     0.000 C 
ATOM     22  C   UNL d   1      46.170 -18.303  44.954  0.00  0.00     0.018 A 
ENDBRANCH   2  16
TORSDOF 3
ENDMDL
