MODEL 1
REMARK VINA RESULT:      62.6      0.000      0.000
REMARK  2 active torsions:
REMARK  status: ('A' for Active; 'I' for Inactive)
REMARK    1  A    between atoms: C_3  and  C_1 
REMARK       I    between atoms: N_6  and  C_3 
REMARK    2  A    between atoms: C_11  and  N_6 
ROOT
ATOM      1  C   UNL d   1     -50.307  25.887  33.679  0.00  0.00     0.121 A 
ATOM      2  C   UNL d   1     -49.818  25.215  33.555  0.00  0.00     0.305 A 
ATOM      3  C   UNL d   1     -51.128  25.801  33.677  0.00  0.00     0.012 A 
ATOM      4  O   UNL d   1     -50.156  24.463  33.429  0.00  0.00    -0.273 OA
ATOM      5  C   UNL d   1     -51.460  25.054  33.552  0.00  0.00     0.023 A 
ATOM      6  C   UNL d   1     -50.980  24.394  33.430  0.00  0.00     0.103 A 
ATOM      7  O   UNL d   1     -48.971  25.258  33.549  0.00  0.00    -0.259 OA
ATOM      8  C   UNL d   1     -52.274  24.991  33.553  0.00  0.00     0.002 A 
ATOM      9  C   UNL d   1     -51.303  23.653  33.306  0.00  0.00     0.025 A 
ATOM     10  C   UNL d   1     -52.130  23.582  33.306  0.00  0.00     0.002 A 
ATOM     11  C   UNL d   1     -52.618  24.254  33.430  0.00  0.00     0.000 A 
ENDROOT
BRANCH   1  12
ATOM     12  C   UNL d   1     -49.983  26.652  33.807  0.00  0.00     0.284 C 
ATOM     13  N   UNL d   1     -49.434  26.783  34.408  0.00  0.00    -0.208 NA
ATOM     14  O   UNL d   1     -50.238  27.269  33.306  0.00  0.00    -0.265 OA
BRANCH  13  15
ATOM     15  C   UNL d   1     -49.123  27.544  34.523  0.00  0.00     0.085 A 
ATOM     16  C   UNL d   1     -48.423  27.655  34.945  0.00  0.00     0.019 A 
ATOM     17  C   UNL d   1     -48.130  28.395  35.050  0.00  0.00     0.002 A 
ATOM     18  C   UNL d   1     -47.433  28.505  35.470  0.00  0.00     0.000 C 
ATOM     19  C   UNL d   1     -48.520  29.047  34.742  0.00  0.00     0.000 A 
ATOM     20  C   UNL d   1     -49.239  28.933  34.308  0.00  0.00     0.002 A 
ATOM     21  C   UNL d   1     -48.200  29.814  34.861  0.00  0.00     0.000 C 
ATOM     22  C   UNL d   1     -49.531  28.175  34.206  0.00  0.00     0.019 A 
ENDBRANCH  13  15
ENDBRANCH   1  12
TORSDOF 2
ENDMDL
MODEL 2
REMARK VINA RESULT:      65.5      0.945      1.476
REMARK  2 active torsions:
REMARK  status: ('A' for Active; 'I' for Inactive)
REMARK    1  A    between atoms: C_3  and  C_1 
REMARK       I    between atoms: N_6  and  C_3 
REMARK    2  A    between atoms: C_11  and  N_6 
ROOT
ATOM      1  C   UNL d   1     -49.751  27.230  33.868  0.00  0.00     0.121 A 
ATOM      2  C   UNL d   1     -49.340  26.518  33.693  0.00  0.00     0.305 A 
ATOM      3  C   UNL d   1     -50.577  27.238  33.856  0.00  0.00     0.012 A 
ATOM      4  O   UNL d   1     -49.759  25.822  33.508  0.00  0.00    -0.273 OA
ATOM      5  C   UNL d   1     -50.989  26.546  33.671  0.00  0.00     0.023 A 
ATOM      6  C   UNL d   1     -50.586  25.847  33.500  0.00  0.00     0.103 A 
ATOM      7  O   UNL d   1     -48.493  26.465  33.695  0.00  0.00    -0.259 OA
ATOM      8  C   UNL d   1     -51.806  26.576  33.665  0.00  0.00     0.002 A 
ATOM      9  C   UNL d   1     -50.988  25.159  33.316  0.00  0.00     0.025 A 
ATOM     10  C   UNL d   1     -51.818  25.183  33.308  0.00  0.00     0.002 A 
ATOM     11  C   UNL d   1     -52.229  25.895  33.483  0.00  0.00     0.000 A 
ENDROOT
BRANCH   1  12
ATOM     12  C   UNL d   1     -49.345  27.941  34.057  0.00  0.00     0.284 C 
ATOM     13  N   UNL d   1     -48.866  27.988  34.728  0.00  0.00    -0.208 NA
ATOM     14  O   UNL d   1     -49.444  28.592  33.545  0.00  0.00    -0.265 OA
BRANCH  13  15
ATOM     15  C   UNL d   1     -48.471  28.697  34.901  0.00  0.00     0.085 A 
ATOM     16  C   UNL d   1     -47.926  28.736  35.520  0.00  0.00     0.019 A 
ATOM     17  C   UNL d   1     -47.549  29.426  35.680  0.00  0.00     0.002 A 
ATOM     18  C   UNL d   1     -47.007  29.465  36.296  0.00  0.00     0.000 C 
ATOM     19  C   UNL d   1     -47.699  30.098  35.235  0.00  0.00     0.000 A 
ATOM     20  C   UNL d   1     -48.259  30.058  34.599  0.00  0.00     0.002 A 
ATOM     21  C   UNL d   1     -47.296  30.811  35.416  0.00  0.00     0.000 C 
ATOM     22  C   UNL d   1     -48.638  29.350  34.443  0.00  0.00     0.019 A 
ENDBRANCH  13  15
ENDBRANCH   1  12
TORSDOF 2
ENDMDL
