MODEL 1
REMARK VINA RESULT:      -4.4      0.000      0.000
REMARK  1 active torsions:
REMARK  status: ('A' for Active; 'I' for Inactive)
REMARK    1  A    between atoms: C_7  and  N_1 
ROOT
ATOM      1  N   UNL d   1     -41.566-122.472 -53.295  0.00  0.00    -0.226 N 
ATOM      2  C   UNL d   1     -41.711-123.237 -53.021  0.00  0.00     0.359 A 
ATOM      3  C   UNL d   1     -41.275-121.895 -52.781  0.00  0.00     0.273 A 
ATOM      4  N   UNL d   1     -41.564-123.423 -52.230  0.00  0.00    -0.153 NA
ATOM      5  C   UNL d   1     -41.273-122.846 -51.716  0.00  0.00     0.288 A 
ATOM      6  C   UNL d   1     -41.128-122.082 -51.990  0.00  0.00     0.124 A 
ATOM      7  O   UNL d   1     -42.002-123.817 -53.533  0.00  0.00    -0.244 OA
ATOM      8  O   UNL d   1     -41.130-121.131 -53.056  0.00  0.00    -0.266 OA
ATOM      9  O   UNL d   1     -41.126-123.033 -50.925  0.00  0.00    -0.265 OA
ENDROOT
BRANCH   1  10
ATOM     10  C   UNL d   1     -41.713-122.286 -54.086  0.00  0.00     0.071 A 
ATOM     11  C   UNL d   1     -42.435-121.920 -54.297  0.00  0.00     0.016 A 
ATOM     12  C   UNL d   1     -42.994-121.749 -53.712  0.00  0.00     0.002 C 
ATOM     13  C   UNL d   1     -42.585-121.733 -55.084  0.00  0.00     0.001 A 
ATOM     14  C   UNL d   1     -42.024-121.905 -55.665  0.00  0.00     0.000 A 
ATOM     15  C   UNL d   1     -41.313-122.266 -55.454  0.00  0.00     0.002 A 
ATOM     16  C   UNL d   1     -41.155-122.458 -54.659  0.00  0.00     0.018 A 
ENDBRANCH   1  10
TORSDOF 1
ENDMDL
MODEL 2
REMARK VINA RESULT:      -4.4      1.657      3.741
REMARK  1 active torsions:
REMARK  status: ('A' for Active; 'I' for Inactive)
REMARK    1  A    between atoms: C_7  and  N_1 
ROOT
ATOM      1  N   UNL d   1     -41.560-122.455 -51.403  0.00  0.00    -0.226 N 
ATOM      2  C   UNL d   1     -41.307-121.706 -51.641  0.00  0.00     0.359 A 
ATOM      3  C   UNL d   1     -41.668-123.053 -51.962  0.00  0.00     0.273 A 
ATOM      4  N   UNL d   1     -41.163-121.557 -52.440  0.00  0.00    -0.153 NA
ATOM      5  C   UNL d   1     -41.271-122.155 -52.999  0.00  0.00     0.288 A 
ATOM      6  C   UNL d   1     -41.524-122.904 -52.761  0.00  0.00     0.124 A 
ATOM      7  O   UNL d   1     -41.198-121.104 -51.084  0.00  0.00    -0.244 OA
ATOM      8  O   UNL d   1     -41.921-123.801 -51.724  0.00  0.00    -0.266 OA
ATOM      9  O   UNL d   1     -41.126-122.006 -53.798  0.00  0.00    -0.265 OA
ENDROOT
BRANCH   1  10
ATOM     10  C   UNL d   1     -41.705-122.604 -50.604  0.00  0.00     0.071 A 
ATOM     11  C   UNL d   1     -42.445-122.398 -50.273  0.00  0.00     0.016 A 
ATOM     12  C   UNL d   1     -43.024-122.047 -50.749  0.00  0.00     0.002 C 
ATOM     13  C   UNL d   1     -42.593-122.545 -49.478  0.00  0.00     0.001 A 
ATOM     14  C   UNL d   1     -42.012-122.895 -49.005  0.00  0.00     0.000 A 
ATOM     15  C   UNL d   1     -41.283-123.097 -49.335  0.00  0.00     0.002 A 
ATOM     16  C   UNL d   1     -41.128-122.950 -50.140  0.00  0.00     0.018 A 
ENDBRANCH   1  10
TORSDOF 1
ENDMDL
MODEL 3
REMARK VINA RESULT:      -3.7      3.097      4.160
REMARK  1 active torsions:
REMARK  status: ('A' for Active; 'I' for Inactive)
REMARK    1  A    between atoms: C_7  and  N_1 
ROOT
ATOM      1  N   UNL d   1     -42.311-123.358 -49.398  0.00  0.00    -0.226 N 
ATOM      2  C   UNL d   1     -43.077-123.662 -49.357  0.00  0.00     0.359 A 
ATOM      3  C   UNL d   1     -41.888-123.204 -48.704  0.00  0.00     0.273 A 
ATOM      4  N   UNL d   1     -43.419-123.814 -48.621  0.00  0.00    -0.153 NA
ATOM      5  C   UNL d   1     -42.997-123.660 -47.928  0.00  0.00     0.288 A 
ATOM      6  C   UNL d   1     -42.231-123.355 -47.969  0.00  0.00     0.124 A 
ATOM      7  O   UNL d   1     -43.503-123.817 -50.049  0.00  0.00    -0.244 OA
ATOM      8  O   UNL d   1     -41.123-122.899 -48.745  0.00  0.00    -0.266 OA
ATOM      9  O   UNL d   1     -43.339-123.811 -47.193  0.00  0.00    -0.265 OA
ENDROOT
BRANCH   1  10
ATOM     10  C   UNL d   1     -41.968-123.207 -50.133  0.00  0.00     0.071 A 
ATOM     11  C   UNL d   1     -42.088-122.465 -50.500  0.00  0.00     0.016 A 
ATOM     12  C   UNL d   1     -42.548-121.890 -50.123  0.00  0.00     0.002 C 
ATOM     13  C   UNL d   1     -41.748-122.310 -51.233  0.00  0.00     0.001 A 
ATOM     14  C   UNL d   1     -41.289-122.887 -51.607  0.00  0.00     0.000 A 
ATOM     15  C   UNL d   1     -41.173-123.618 -51.243  0.00  0.00     0.002 A 
ATOM     16  C   UNL d   1     -41.515-123.780 -50.500  0.00  0.00     0.018 A 
ENDBRANCH   1  10
TORSDOF 1
ENDMDL
MODEL 4
REMARK VINA RESULT:      -3.1      2.227      3.257
REMARK  1 active torsions:
REMARK  status: ('A' for Active; 'I' for Inactive)
REMARK    1  A    between atoms: C_7  and  N_1 
ROOT
ATOM      1  N   UNL d   1     -42.223-122.974 -50.485  0.00  0.00    -0.226 N 
ATOM      2  C   UNL d   1     -42.949-122.627 -50.301  0.00  0.00     0.359 A 
ATOM      3  C   UNL d   1     -41.849-123.467 -49.939  0.00  0.00     0.273 A 
ATOM      4  N   UNL d   1     -43.299-122.774 -49.568  0.00  0.00    -0.153 NA
ATOM      5  C   UNL d   1     -42.925-123.267 -49.021  0.00  0.00     0.288 A 
ATOM      6  C   UNL d   1     -42.199-123.614 -49.206  0.00  0.00     0.124 A 
ATOM      7  O   UNL d   1     -43.327-122.133 -50.845  0.00  0.00    -0.244 OA
ATOM      8  O   UNL d   1     -41.123-123.813 -50.123  0.00  0.00    -0.266 OA
ATOM      9  O   UNL d   1     -43.275-123.415 -48.289  0.00  0.00    -0.265 OA
ENDROOT
BRANCH   1  10
ATOM     10  C   UNL d   1     -41.873-122.826 -51.218  0.00  0.00     0.071 A 
ATOM     11  C   UNL d   1     -41.473-122.103 -51.346  0.00  0.00     0.016 A 
ATOM     12  C   UNL d   1     -41.433-121.543 -50.739  0.00  0.00     0.002 C 
ATOM     13  C   UNL d   1     -41.123-121.952 -52.075  0.00  0.00     0.001 A 
ATOM     14  C   UNL d   1     -41.165-122.514 -52.680  0.00  0.00     0.000 A 
ATOM     15  C   UNL d   1     -41.560-123.227 -52.550  0.00  0.00     0.002 A 
ATOM     16  C   UNL d   1     -41.917-123.385 -51.814  0.00  0.00     0.018 A 
ENDBRANCH   1  10
TORSDOF 1
ENDMDL
