MODEL 1
REMARK VINA RESULT:      84.5      0.000      0.000
REMARK  6 active torsions:
REMARK  status: ('A' for Active; 'I' for Inactive)
REMARK    1  A    between atoms: C_17  and  N_1 
REMARK    2  A    between atoms: N_9  and  C_8 
REMARK    3  A    between atoms: C_11  and  O_21 
REMARK    4  A    between atoms: C_15  and  C_11 
REMARK    5  A    between atoms: C_30  and  C_17 
REMARK    6  A    between atoms: O_21  and  C_30 
ROOT
ATOM      1  N   UNL d   1      44.822 -12.783  39.149  0.00  0.00    -0.238 N 
ATOM      2  C   UNL d   1      44.269 -13.366  39.327  0.00  0.00     0.267 A 
ATOM      3  C   UNL d   1      45.314 -12.848  38.493  0.00  0.00     0.267 A 
ATOM      4  C   UNL d   1      44.205 -14.042  38.826  0.00  0.00     0.057 A 
ATOM      5  C   UNL d   1      44.696 -14.111  38.167  0.00  0.00     0.011 A 
ATOM      6  C   UNL d   1      45.251 -13.507  38.005  0.00  0.00     0.057 A 
ATOM      7  C   UNL d   1      44.634 -14.762  37.685  0.00  0.00     0.016 A 
ATOM      8  C   UNL d   1      44.080 -15.352  37.856  0.00  0.00     0.064 A 
ATOM      9  C   UNL d   1      43.659 -14.625  38.994  0.00  0.00     0.006 A 
ATOM     10  C   UNL d   1      43.597 -15.276  38.512  0.00  0.00     0.018 A 
ATOM     11  O   UNL d   1      45.902 -12.248  38.288  0.00  0.00    -0.267 OA
ATOM     12  O   UNL d   1      43.787 -13.276  39.992  0.00  0.00    -0.267 OA
ATOM     13  C   UNL d   1      45.754 -13.566  37.340  0.00  0.00     0.005 A 
ATOM     14  C   UNL d   1      45.125 -14.834  37.022  0.00  0.00     0.002 A 
ATOM     15  C   UNL d   1      45.691 -14.238  36.842  0.00  0.00     0.000 A 
ENDROOT
BRANCH   1  16
ATOM     16  C   UNL d   1      44.886 -12.106  39.650  0.00  0.00     0.113 C 
BRANCH  16  17
ATOM     17  C   UNL d   1      45.383 -12.131  40.309  0.00  0.00     0.145 C 
BRANCH  17  18
ATOM     18  O   UNL d   1      45.219 -12.642  40.918  0.00  0.00    -0.269 OA
BRANCH  18  19
ATOM     19  C   UNL d   1      45.764 -12.750  41.511  0.00  0.00     0.300 C 
ATOM     20  O   UNL d   1      46.547 -12.931  41.338  0.00  0.00    -0.259 OA
BRANCH  19  21
ATOM     21  C   UNL d   1      45.531 -12.676  42.297  0.00  0.00     0.064 A 
ATOM     22  C   UNL d   1      45.907 -13.127  42.873  0.00  0.00     0.006 A 
ATOM     23  C   UNL d   1      45.667 -13.051  43.680  0.00  0.00     0.012 A 
ATOM     24  C   UNL d   1      45.062 -12.528  43.879  0.00  0.00     0.058 A 
ATOM     25  C   UNL d   1      44.695 -12.085  43.301  0.00  0.00     0.012 A 
ATOM     26 CL   UNL d   1      44.832 -12.456  44.654  0.00  0.00    -0.082 Cl
ATOM     27  C   UNL d   1      44.927 -12.158  42.520  0.00  0.00     0.006 A 
ENDBRANCH  19  21
ENDBRANCH  18  19
ENDBRANCH  17  18
ENDBRANCH  16  17
ENDBRANCH   1  16
BRANCH   8  28
ATOM     28  N   UNL d   1      44.017 -16.020  37.362  0.00  0.00    -0.300 N 
ATOM     29  C   UNL d   1      43.393 -16.085  36.841  0.00  0.00     0.107 A 
ATOM     30  C   UNL d   1      43.330 -16.740  36.356  0.00  0.00     0.142 A 
ATOM     31  O   UNL d   1      43.893 -17.330  36.392  0.00  0.00    -0.300 OA
ATOM     32  C   UNL d   1      44.526 -17.269  36.918  0.00  0.00     0.142 A 
ATOM     33  C   UNL d   1      44.588 -16.615  37.403  0.00  0.00     0.107 A 
ENDBRANCH   8  28
TORSDOF 6
ENDMDL
