MODEL 1
REMARK VINA RESULT:      39.8      0.000      0.000
REMARK  6 active torsions:
REMARK  status: ('A' for Active; 'I' for Inactive)
REMARK    1  A    between atoms: C_3  and  C_4 
REMARK    2  A    between atoms: C_9  and  O_18 
REMARK    3  A    between atoms: O_17  and  C_10 
REMARK    4  A    between atoms: C_21  and  O_17 
REMARK    5  A    between atoms: O_18  and  C_20 
REMARK    6  A    between atoms: C_20  and  C_21 
ROOT
ATOM      1  N   UNL d   1     -53.426  23.861  33.329  0.00  0.00    -0.191 NA
ATOM      2  C   UNL d   1     -52.770  24.328  33.325  0.00  0.00     0.101 C 
ATOM      3  C   UNL d   1     -52.102  24.805  33.321  0.00  0.00     0.068 A 
ATOM      4  C   UNL d   1     -50.761  25.761  33.314  0.00  0.00     0.100 A 
ATOM      5  C   UNL d   1     -52.180  25.622  33.310  0.00  0.00     0.012 A 
ATOM      6  C   UNL d   1     -51.351  24.460  33.329  0.00  0.00     0.012 A 
ATOM      7  C   UNL d   1     -50.680  24.939  33.325  0.00  0.00     0.025 A 
ATOM      8  C   UNL d   1     -51.508  26.101  33.307  0.00  0.00     0.025 A 
ENDROOT
BRANCH   4   9
ATOM      9  O   UNL d   1     -50.086  26.242  33.310  0.00  0.00    -0.303 OA
BRANCH   9  10
ATOM     10  C   UNL d   1     -50.078  26.941  33.749  0.00  0.00     0.149 C 
BRANCH  10  11
ATOM     11  C   UNL d   1     -49.359  27.298  33.938  0.00  0.00     0.149 C 
BRANCH  11  12
ATOM     12  O   UNL d   1     -49.093  27.316  34.724  0.00  0.00    -0.303 OA
BRANCH  12  13
ATOM     13  C   UNL d   1     -48.670  27.985  35.016  0.00  0.00     0.100 A 
ATOM     14  C   UNL d   1     -48.039  28.294  34.581  0.00  0.00     0.025 A 
ATOM     15  C   UNL d   1     -47.625  28.947  34.866  0.00  0.00     0.005 A 
ATOM     16  C   UNL d   1     -47.842  29.290  35.585  0.00  0.00     0.039 A 
ATOM     17  C   UNL d   1     -48.468  28.982  36.013  0.00  0.00     0.005 A 
ATOM     18  C   UNL d   1     -48.882  28.328  35.727  0.00  0.00     0.025 A 
BRANCH  16  19
ATOM     19  C   UNL d   1     -47.426  29.948  35.872  0.00  0.00     0.196 C 
ATOM     20  O   UNL d   1     -47.154  29.956  36.642  0.00  0.00    -0.287 OA
ATOM     21  C   UNL d   1     -47.287  30.593  35.377  0.00  0.00     0.045 C 
ENDBRANCH  16  19
ENDBRANCH  12  13
ENDBRANCH  11  12
ENDBRANCH  10  11
ENDBRANCH   9  10
ENDBRANCH   4   9
TORSDOF 6
ENDMDL
MODEL 2
REMARK VINA RESULT:      40.2      0.778      1.195
REMARK  6 active torsions:
REMARK  status: ('A' for Active; 'I' for Inactive)
REMARK    1  A    between atoms: C_3  and  C_4 
REMARK    2  A    between atoms: C_9  and  O_18 
REMARK    3  A    between atoms: O_17  and  C_10 
REMARK    4  A    between atoms: C_21  and  O_17 
REMARK    5  A    between atoms: O_18  and  C_20 
REMARK    6  A    between atoms: C_20  and  C_21 
ROOT
ATOM      1  N   UNL d   1     -52.445  24.138  33.306  0.00  0.00    -0.191 NA
ATOM      2  C   UNL d   1     -51.879  24.710  33.315  0.00  0.00     0.101 C 
ATOM      3  C   UNL d   1     -51.301  25.294  33.324  0.00  0.00     0.068 A 
ATOM      4  C   UNL d   1     -50.143  26.464  33.342  0.00  0.00     0.100 A 
ATOM      5  C   UNL d   1     -51.517  26.086  33.306  0.00  0.00     0.012 A 
ATOM      6  C   UNL d   1     -50.504  25.082  33.352  0.00  0.00     0.012 A 
ATOM      7  C   UNL d   1     -49.924  25.669  33.361  0.00  0.00     0.025 A 
ATOM      8  C   UNL d   1     -50.937  26.672  33.315  0.00  0.00     0.025 A 
ENDROOT
BRANCH   4   9
ATOM      9  O   UNL d   1     -49.560  27.054  33.352  0.00  0.00    -0.303 OA
BRANCH   9  10
ATOM     10  C   UNL d   1     -49.133  27.197  34.043  0.00  0.00     0.149 C 
BRANCH  10  11
ATOM     11  C   UNL d   1     -48.981  27.973  34.277  0.00  0.00     0.149 C 
BRANCH  11  12
ATOM     12  O   UNL d   1     -48.555  28.125  34.973  0.00  0.00    -0.303 OA
BRANCH  12  13
ATOM     13  C   UNL d   1     -48.230  28.891  35.115  0.00  0.00     0.100 A 
ATOM     14  C   UNL d   1     -47.970  29.093  35.872  0.00  0.00     0.025 A 
ATOM     15  C   UNL d   1     -47.652  29.842  36.011  0.00  0.00     0.005 A 
ATOM     16  C   UNL d   1     -47.594  30.385  35.392  0.00  0.00     0.039 A 
ATOM     17  C   UNL d   1     -47.853  30.181  34.643  0.00  0.00     0.005 A 
ATOM     18  C   UNL d   1     -48.171  29.432  34.505  0.00  0.00     0.025 A 
BRANCH  16  19
ATOM     19  C   UNL d   1     -47.274  31.137  35.531  0.00  0.00     0.196 C 
ATOM     20  O   UNL d   1     -46.640  31.225  36.039  0.00  0.00    -0.287 OA
ATOM     21  C   UNL d   1     -47.598  31.796  35.156  0.00  0.00     0.045 C 
ENDBRANCH  16  19
ENDBRANCH  12  13
ENDBRANCH  11  12
ENDBRANCH  10  11
ENDBRANCH   9  10
ENDBRANCH   4   9
TORSDOF 6
ENDMDL
