MODEL 1
REMARK VINA RESULT:       8.1      0.000      0.000
REMARK  10 active torsions:
REMARK  status: ('A' for Active; 'I' for Inactive)
REMARK    1  A    between atoms: C_7  and  C_1 
REMARK    2  A    between atoms: C_8  and  C_2 
REMARK    3  A    between atoms: O_24  and  C_8 
REMARK    4  A    between atoms: O_25  and  C_12 
REMARK    5  A    between atoms: C_14  and  C_22 
REMARK    6  A    between atoms: O_26  and  C_14 
REMARK    7  A    between atoms: O_27  and  C_16 
REMARK    8  A    between atoms: O_21  and  C_20 
REMARK    9  A    between atoms: C_22  and  O_21 
REMARK   10  A    between atoms: C_28  and  O_24 
ROOT
ATOM      1  C   UNL d   1     -41.692-122.176 -52.974  0.00  0.00     0.067 A 
ATOM      2  C   UNL d   1     -41.807-121.520 -52.479  0.00  0.00     0.166 A 
ATOM      3  C   UNL d   1     -41.506-122.922 -52.640  0.00  0.00     0.200 A 
ATOM      4  O   UNL d   1     -41.738-121.599 -51.647  0.00  0.00    -0.301 OA
ATOM      5  C   UNL d   1     -41.437-123.003 -51.826  0.00  0.00     0.062 A 
ATOM      6  C   UNL d   1     -41.552-122.341 -51.326  0.00  0.00     0.105 A 
ATOM      7  C   UNL d   1     -41.483-122.423 -50.503  0.00  0.00     0.050 A 
ATOM      8  C   UNL d   1     -41.252-123.739 -51.486  0.00  0.00     0.007 A 
ATOM      9  O   UNL d   1     -41.393-123.572 -53.137  0.00  0.00    -0.286 OA
ATOM     10  C   UNL d   1     -41.298-123.163 -50.180  0.00  0.00     0.102 A 
ATOM     11  C   UNL d   1     -41.184-123.818 -50.669  0.00  0.00     0.025 A 
ENDROOT
BRANCH   1  12
ATOM     12  C   UNL d   1     -41.761-122.097 -53.790  0.00  0.00     0.007 A 
ATOM     13  C   UNL d   1     -42.474-122.308 -54.158  0.00  0.00     0.026 A 
ATOM     14  C   UNL d   1     -42.536-122.226 -54.980  0.00  0.00     0.116 A 
ATOM     15  C   UNL d   1     -41.897-121.940 -55.424  0.00  0.00     0.116 A 
ATOM     16  C   UNL d   1     -41.193-121.733 -55.049  0.00  0.00     0.026 A 
ATOM     17  C   UNL d   1     -41.126-121.812 -54.233  0.00  0.00     0.002 A 
BRANCH  14  18
ATOM     18  O   UNL d   1     -43.239-122.433 -55.354  0.00  0.00    -0.326 OA
ATOM     19  C   UNL d   1     -43.423-123.227 -55.481  0.00  0.00     0.181 C 
ENDBRANCH  14  18
BRANCH  15  20
ATOM     20  O   UNL d   1     -41.967-121.862 -56.238  0.00  0.00    -0.326 OA
ATOM     21  C   UNL d   1     -41.945-121.108 -56.580  0.00  0.00     0.181 C 
ENDBRANCH  15  20
ENDBRANCH   1  12
BRANCH   2  22
ATOM     22  C   UNL d   1     -41.990-120.787 -52.807  0.00  0.00     0.323 C 
ATOM     23  O   UNL d   1     -42.751-120.628 -53.076  0.00  0.00    -0.257 OA
BRANCH  22  24
ATOM     24  O   UNL d   1     -41.403-120.200 -52.870  0.00  0.00    -0.270 OA
BRANCH  24  25
ATOM     25  C   UNL d   1     -41.605-119.405 -52.803  0.00  0.00     0.126 C 
ATOM     26  C   UNL d   1     -41.128-118.826 -53.147  0.00  0.00     0.029 C 
ENDBRANCH  24  25
ENDBRANCH  22  24
ENDBRANCH   2  22
BRANCH  10  27
ATOM     27  O   UNL d   1     -41.230-123.240 -49.363  0.00  0.00    -0.300 OA
BRANCH  27  28
ATOM     28  C   UNL d   1     -41.901-123.252 -48.892  0.00  0.00     0.191 C 
BRANCH  28  29
ATOM     29  C   UNL d   1     -41.827-123.279 -48.070  0.00  0.00     0.321 C 
ATOM     30  O   UNL d   1     -41.123-123.532 -47.722  0.00  0.00    -0.257 OA
BRANCH  29  31
ATOM     31  O   UNL d   1     -42.457-123.054 -47.590  0.00  0.00    -0.294 OA
ATOM     32  C   UNL d   1     -42.564-123.399 -46.851  0.00  0.00     0.185 C 
ENDBRANCH  29  31
ENDBRANCH  28  29
ENDBRANCH  27  28
ENDBRANCH  10  27
TORSDOF 10
ENDMDL
MODEL 2
REMARK VINA RESULT:      10.7      1.123      5.292
REMARK  10 active torsions:
REMARK  status: ('A' for Active; 'I' for Inactive)
REMARK    1  A    between atoms: C_7  and  C_1 
REMARK    2  A    between atoms: C_8  and  C_2 
REMARK    3  A    between atoms: O_24  and  C_8 
REMARK    4  A    between atoms: O_25  and  C_12 
REMARK    5  A    between atoms: C_14  and  C_22 
REMARK    6  A    between atoms: O_26  and  C_14 
REMARK    7  A    between atoms: O_27  and  C_16 
REMARK    8  A    between atoms: O_21  and  C_20 
REMARK    9  A    between atoms: C_22  and  O_21 
REMARK   10  A    between atoms: C_28  and  O_24 
ROOT
ATOM      1  C   UNL d   1     -41.689-122.499 -51.237  0.00  0.00     0.067 A 
ATOM      2  C   UNL d   1     -41.434-121.739 -51.454  0.00  0.00     0.166 A 
ATOM      3  C   UNL d   1     -41.873-123.061 -51.830  0.00  0.00     0.200 A 
ATOM      4  O   UNL d   1     -41.359-121.532 -52.262  0.00  0.00    -0.301 OA
ATOM      5  C   UNL d   1     -41.801-122.862 -52.623  0.00  0.00     0.062 A 
ATOM      6  C   UNL d   1     -41.544-122.097 -52.843  0.00  0.00     0.105 A 
ATOM      7  C   UNL d   1     -41.471-121.895 -53.644  0.00  0.00     0.050 A 
ATOM      8  C   UNL d   1     -41.981-123.414 -53.219  0.00  0.00     0.007 A 
ATOM      9  O   UNL d   1     -42.127-123.816 -51.610  0.00  0.00    -0.286 OA
ATOM     10  C   UNL d   1     -41.654-122.455 -54.226  0.00  0.00     0.102 A 
ATOM     11  C   UNL d   1     -41.908-123.211 -54.014  0.00  0.00     0.025 A 
ENDROOT
BRANCH   1  12
ATOM     12  C   UNL d   1     -41.762-122.701 -50.442  0.00  0.00     0.007 A 
ATOM     13  C   UNL d   1     -42.480-122.557 -50.053  0.00  0.00     0.026 A 
ATOM     14  C   UNL d   1     -42.546-122.763 -49.254  0.00  0.00     0.116 A 
ATOM     15  C   UNL d   1     -41.907-123.107 -48.853  0.00  0.00     0.116 A 
ATOM     16  C   UNL d   1     -41.198-123.246 -49.249  0.00  0.00     0.026 A 
ATOM     17  C   UNL d   1     -41.126-123.043 -50.043  0.00  0.00     0.002 A 
BRANCH  14  18
ATOM     18  O   UNL d   1     -43.255-122.624 -48.859  0.00  0.00    -0.326 OA
ATOM     19  C   UNL d   1     -43.974-122.713 -49.254  0.00  0.00     0.181 C 
ENDBRANCH  14  18
BRANCH  15  20
ATOM     20  O   UNL d   1     -41.982-123.308 -48.061  0.00  0.00    -0.326 OA
ATOM     21  C   UNL d   1     -41.349-123.672 -47.670  0.00  0.00     0.181 C 
ENDBRANCH  15  20
ENDBRANCH   1  12
BRANCH   2  22
ATOM     22  C   UNL d   1     -41.253-121.187 -50.871  0.00  0.00     0.323 C 
ATOM     23  O   UNL d   1     -41.200-121.414 -50.082  0.00  0.00    -0.257 OA
BRANCH  22  24
ATOM     24  O   UNL d   1     -41.123-120.390 -51.077  0.00  0.00    -0.270 OA
BRANCH  24  25
ATOM     25  C   UNL d   1     -41.516-119.790 -50.674  0.00  0.00     0.126 C 
ATOM     26  C   UNL d   1     -41.311-119.001 -50.803  0.00  0.00     0.029 C 
ENDBRANCH  24  25
ENDBRANCH  22  24
ENDBRANCH   2  22
BRANCH  10  27
ATOM     27  O   UNL d   1     -41.581-122.252 -55.020  0.00  0.00    -0.300 OA
BRANCH  27  28
ATOM     28  C   UNL d   1     -42.246-122.068 -55.463  0.00  0.00     0.191 C 
BRANCH  28  29
ATOM     29  C   UNL d   1     -42.169-121.642 -56.165  0.00  0.00     0.321 C 
ATOM     30  O   UNL d   1     -41.707-120.958 -56.190  0.00  0.00    -0.257 OA
BRANCH  29  31
ATOM     31  O   UNL d   1     -42.553-121.895 -56.847  0.00  0.00    -0.294 OA
ATOM     32  C   UNL d   1     -43.346-122.117 -56.824  0.00  0.00     0.185 C 
ENDBRANCH  29  31
ENDBRANCH  28  29
ENDBRANCH  27  28
ENDBRANCH  10  27
TORSDOF 10
ENDMDL
