MODEL 1
REMARK VINA RESULT:      -7.0      0.000      0.000
REMARK  4 active torsions:
REMARK  status: ('A' for Active; 'I' for Inactive)
REMARK       I    between atoms: C_2  and  N_1 
REMARK    1  A    between atoms: C_4  and  C_2 
REMARK    2  A    between atoms: S_8  and  C_3 
REMARK    3  A    between atoms: O_12  and  C_7 
REMARK    4  A    between atoms: C_15  and  O_12 
ROOT
ATOM      1  C   UNL d   1     -48.791  12.818  22.540  0.00  0.00     0.079 A 
ATOM      2  C   UNL d   1     -49.353  13.359  22.827  0.00  0.00     0.105 A 
ATOM      3  C   UNL d   1     -49.012  12.051  22.337  0.00  0.00     0.007 A 
ATOM      4  C   UNL d   1     -50.138  13.113  22.904  0.00  0.00     0.025 A 
ATOM      5  C   UNL d   1     -49.794  11.814  22.416  0.00  0.00     0.000 A 
ATOM      6  C   UNL d   1     -50.351  12.341  22.698  0.00  0.00     0.002 A 
ENDROOT
BRANCH   1   7
ATOM      7  C   UNL d   1     -48.002  13.054  22.459  0.00  0.00     0.268 C 
ATOM      8  N   UNL d   1     -47.410  12.666  22.879  0.00  0.00    -0.251 N 
ATOM      9  C   UNL d   1     -46.602  12.837  22.856  0.00  0.00     0.178 A 
ATOM     10  C   UNL d   1     -47.526  12.032  23.402  0.00  0.00     0.106 A 
ATOM     11  N   UNL d   1     -46.223  12.314  23.359  0.00  0.00    -0.219 NA
ATOM     12  C   UNL d   1     -46.784  11.817  23.698  0.00  0.00     0.120 A 
ATOM     13  O   UNL d   1     -47.812  13.679  21.954  0.00  0.00    -0.267 OA
BRANCH   9  14
ATOM     14  S   UNL d   1     -46.254  13.427  22.405  0.00  0.00    -0.076 SA
ATOM     15  C   UNL d   1     -45.432  13.455  22.312  0.00  0.00     0.077 C 
ENDBRANCH   9  14
ENDBRANCH   1   7
BRANCH   2  16
ATOM     16  O   UNL d   1     -49.129  14.123  23.029  0.00  0.00    -0.305 OA
BRANCH  16  17
ATOM     17  C   UNL d   1     -49.696  14.654  23.308  0.00  0.00     0.123 C 
ATOM     18  C   UNL d   1     -49.503  15.439  23.400  0.00  0.00     0.029 C 
ENDBRANCH  16  17
ENDBRANCH   2  16
TORSDOF 4
ENDMDL
MODEL 2
REMARK VINA RESULT:      -7.0      1.624      3.090
REMARK  4 active torsions:
REMARK  status: ('A' for Active; 'I' for Inactive)
REMARK       I    between atoms: C_2  and  N_1 
REMARK    1  A    between atoms: C_4  and  C_2 
REMARK    2  A    between atoms: S_8  and  C_3 
REMARK    3  A    between atoms: O_12  and  C_7 
REMARK    4  A    between atoms: C_15  and  O_12 
ROOT
ATOM      1  C   UNL d   1     -48.328  12.591  23.289  0.00  0.00     0.079 A 
ATOM      2  C   UNL d   1     -47.518  12.775  23.265  0.00  0.00     0.105 A 
ATOM      3  C   UNL d   1     -48.581  11.837  23.504  0.00  0.00     0.007 A 
ATOM      4  C   UNL d   1     -46.971  12.189  23.462  0.00  0.00     0.025 A 
ATOM      5  C   UNL d   1     -48.031  11.259  23.698  0.00  0.00     0.000 A 
ATOM      6  C   UNL d   1     -47.233  11.435  23.677  0.00  0.00     0.002 A 
ENDROOT
BRANCH   1   7
ATOM      7  C   UNL d   1     -48.885  13.171  23.093  0.00  0.00     0.268 C 
ATOM      8  N   UNL d   1     -49.364  13.076  22.431  0.00  0.00    -0.251 N 
ATOM      9  C   UNL d   1     -49.943  13.604  22.167  0.00  0.00     0.178 A 
ATOM     10  C   UNL d   1     -49.348  12.428  21.912  0.00  0.00     0.106 A 
ATOM     11  N   UNL d   1     -50.279  13.285  21.492  0.00  0.00    -0.219 NA
ATOM     12  C   UNL d   1     -49.920  12.564  21.330  0.00  0.00     0.120 A 
ATOM     13  O   UNL d   1     -48.956  13.844  23.566  0.00  0.00    -0.267 OA
BRANCH   9  14
ATOM     14  S   UNL d   1     -50.135  14.316  22.525  0.00  0.00    -0.076 SA
ATOM     15  C   UNL d   1     -50.767  14.771  22.244  0.00  0.00     0.077 C 
ENDBRANCH   9  14
ENDBRANCH   1   7
BRANCH   2  16
ATOM     16  O   UNL d   1     -47.269  13.529  23.050  0.00  0.00    -0.305 OA
BRANCH  16  17
ATOM     17  C   UNL d   1     -46.465  13.710  23.057  0.00  0.00     0.123 C 
ATOM     18  C   UNL d   1     -46.206  14.412  22.737  0.00  0.00     0.029 C 
ENDBRANCH  16  17
ENDBRANCH   2  16
TORSDOF 4
ENDMDL
MODEL 3
REMARK VINA RESULT:      -6.8      1.703      3.562
REMARK  4 active torsions:
REMARK  status: ('A' for Active; 'I' for Inactive)
REMARK       I    between atoms: C_2  and  N_1 
REMARK    1  A    between atoms: C_4  and  C_2 
REMARK    2  A    between atoms: S_8  and  C_3 
REMARK    3  A    between atoms: O_12  and  C_7 
REMARK    4  A    between atoms: C_15  and  O_12 
ROOT
ATOM      1  C   UNL d   1     -47.717  13.459  22.877  0.00  0.00     0.079 A 
ATOM      2  C   UNL d   1     -47.063  12.968  23.028  0.00  0.00     0.105 A 
ATOM      3  C   UNL d   1     -47.609  14.241  22.643  0.00  0.00     0.007 A 
ATOM      4  C   UNL d   1     -46.304  13.279  22.939  0.00  0.00     0.025 A 
ATOM      5  C   UNL d   1     -46.851  14.544  22.557  0.00  0.00     0.000 A 
ATOM      6  C   UNL d   1     -46.204  14.066  22.703  0.00  0.00     0.002 A 
ENDROOT
BRANCH   1   7
ATOM      7  C   UNL d   1     -48.482  13.158  22.963  0.00  0.00     0.268 C 
ATOM      8  N   UNL d   1     -48.993  13.140  22.318  0.00  0.00    -0.251 N 
ATOM      9  C   UNL d   1     -49.770  12.857  22.317  0.00  0.00     0.178 A 
ATOM     10  C   UNL d   1     -48.814  13.405  21.552  0.00  0.00     0.106 A 
ATOM     11  N   UNL d   1     -50.066  12.946  21.559  0.00  0.00    -0.219 NA
ATOM     12  C   UNL d   1     -49.485  13.282  21.084  0.00  0.00     0.120 A 
ATOM     13  O   UNL d   1     -48.731  12.876  23.698  0.00  0.00    -0.267 OA
BRANCH   9  14
ATOM     14  S   UNL d   1     -50.162  12.545  22.967  0.00  0.00    -0.076 SA
ATOM     15  C   UNL d   1     -50.970  12.367  22.924  0.00  0.00     0.077 C 
ENDBRANCH   9  14
ENDBRANCH   1   7
BRANCH   2  16
ATOM     16  O   UNL d   1     -47.175  12.188  23.261  0.00  0.00    -0.305 OA
BRANCH  16  17
ATOM     17  C   UNL d   1     -46.521  11.719  23.443  0.00  0.00     0.123 C 
ATOM     18  C   UNL d   1     -46.630  10.955  23.698  0.00  0.00     0.029 C 
ENDBRANCH  16  17
ENDBRANCH   2  16
TORSDOF 4
ENDMDL
MODEL 4
REMARK VINA RESULT:      -6.7      1.190      2.207
REMARK  4 active torsions:
REMARK  status: ('A' for Active; 'I' for Inactive)
REMARK       I    between atoms: C_2  and  N_1 
REMARK    1  A    between atoms: C_4  and  C_2 
REMARK    2  A    between atoms: S_8  and  C_3 
REMARK    3  A    between atoms: O_12  and  C_7 
REMARK    4  A    between atoms: C_15  and  O_12 
ROOT
ATOM      1  C   UNL d   1     -48.253  13.891  22.752  0.00  0.00     0.079 A 
ATOM      2  C   UNL d   1     -48.905  13.769  22.251  0.00  0.00     0.105 A 
ATOM      3  C   UNL d   1     -48.010  14.652  22.948  0.00  0.00     0.007 A 
ATOM      4  C   UNL d   1     -49.304  14.428  21.951  0.00  0.00     0.025 A 
ATOM      5  C   UNL d   1     -48.411  15.302  22.646  0.00  0.00     0.000 A 
ATOM      6  C   UNL d   1     -49.052  15.189  22.153  0.00  0.00     0.002 A 
ENDROOT
BRANCH   1   7
ATOM      7  C   UNL d   1     -47.847  13.238  23.058  0.00  0.00     0.268 C 
ATOM      8  N   UNL d   1     -47.042  13.148  22.910  0.00  0.00    -0.251 N 
ATOM      9  C   UNL d   1     -46.563  12.529  23.176  0.00  0.00     0.178 A 
ATOM     10  C   UNL d   1     -46.572  13.667  22.466  0.00  0.00     0.106 A 
ATOM     11  N   UNL d   1     -45.805  12.665  22.898  0.00  0.00    -0.219 NA
ATOM     12  C   UNL d   1     -45.802  13.362  22.462  0.00  0.00     0.120 A 
ATOM     13  O   UNL d   1     -48.252  12.679  23.510  0.00  0.00    -0.267 OA
BRANCH   9  14
ATOM     14  S   UNL d   1     -46.814  11.897  23.635  0.00  0.00    -0.076 SA
ATOM     15  C   UNL d   1     -46.351  11.214  23.698  0.00  0.00     0.077 C 
ENDBRANCH   9  14
ENDBRANCH   1   7
BRANCH   2  16
ATOM     16  O   UNL d   1     -49.146  13.007  22.058  0.00  0.00    -0.305 OA
BRANCH  16  17
ATOM     17  C   UNL d   1     -49.750  12.898  21.507  0.00  0.00     0.123 C 
ATOM     18  C   UNL d   1     -50.112  12.172  21.445  0.00  0.00     0.029 C 
ENDBRANCH  16  17
ENDBRANCH   2  16
TORSDOF 4
ENDMDL
MODEL 5
REMARK VINA RESULT:      -5.4      9.507     10.561
REMARK  4 active torsions:
REMARK  status: ('A' for Active; 'I' for Inactive)
REMARK       I    between atoms: C_2  and  N_1 
REMARK    1  A    between atoms: C_4  and  C_2 
REMARK    2  A    between atoms: S_8  and  C_3 
REMARK    3  A    between atoms: O_12  and  C_7 
REMARK    4  A    between atoms: C_15  and  O_12 
ROOT
ATOM      1  C   UNL d   1     -39.215  13.670  17.863  0.00  0.00     0.079 A 
ATOM      2  C   UNL d   1     -38.970  13.658  18.657  0.00  0.00     0.105 A 
ATOM      3  C   UNL d   1     -38.851  13.187  17.304  0.00  0.00     0.007 A 
ATOM      4  C   UNL d   1     -38.355  13.153  18.876  0.00  0.00     0.025 A 
ATOM      5  C   UNL d   1     -38.240  12.687  17.529  0.00  0.00     0.000 A 
ATOM      6  C   UNL d   1     -37.995  12.671  18.309  0.00  0.00     0.002 A 
ENDROOT
BRANCH   1   7
ATOM      7  C   UNL d   1     -39.830  14.173  17.633  0.00  0.00     0.268 C 
ATOM      8  N   UNL d   1     -39.674  14.823  17.153  0.00  0.00    -0.251 N 
ATOM      9  C   UNL d   1     -40.228  15.372  16.878  0.00  0.00     0.178 A 
ATOM     10  C   UNL d   1     -38.928  15.039  16.860  0.00  0.00     0.106 A 
ATOM     11  N   UNL d   1     -39.827  15.921  16.422  0.00  0.00    -0.219 NA
ATOM     12  C   UNL d   1     -39.029  15.723  16.406  0.00  0.00     0.120 A 
ATOM     13  O   UNL d   1     -40.600  14.019  17.887  0.00  0.00    -0.267 OA
BRANCH   9  14
ATOM     14  S   UNL d   1     -41.031  15.359  17.042  0.00  0.00    -0.076 SA
ATOM     15  C   UNL d   1     -41.537  15.921  16.706  0.00  0.00     0.077 C 
ENDBRANCH   9  14
ENDBRANCH   1   7
BRANCH   2  16
ATOM     16  O   UNL d   1     -39.336  14.142  19.212  0.00  0.00    -0.305 OA
BRANCH  16  17
ATOM     17  C   UNL d   1     -39.084  14.124  19.997  0.00  0.00     0.123 C 
ATOM     18  C   UNL d   1     -39.454  14.591  20.551  0.00  0.00     0.029 C 
ENDBRANCH  16  17
ENDBRANCH   2  16
TORSDOF 4
ENDMDL
MODEL 6
REMARK VINA RESULT:      -5.3      8.057      9.840
REMARK  4 active torsions:
REMARK  status: ('A' for Active; 'I' for Inactive)
REMARK       I    between atoms: C_2  and  N_1 
REMARK    1  A    between atoms: C_4  and  C_2 
REMARK    2  A    between atoms: S_8  and  C_3 
REMARK    3  A    between atoms: O_12  and  C_7 
REMARK    4  A    between atoms: C_15  and  O_12 
ROOT
ATOM      1  C   UNL d   1     -39.642  14.060  18.030  0.00  0.00     0.079 A 
ATOM      2  C   UNL d   1     -39.878  14.477  17.351  0.00  0.00     0.105 A 
ATOM      3  C   UNL d   1     -39.009  13.535  18.002  0.00  0.00     0.007 A 
ATOM      4  C   UNL d   1     -39.464  14.356  16.647  0.00  0.00     0.025 A 
ATOM      5  C   UNL d   1     -38.602  13.420  17.298  0.00  0.00     0.000 A 
ATOM      6  C   UNL d   1     -38.828  13.827  16.627  0.00  0.00     0.002 A 
ENDROOT
BRANCH   1   7
ATOM      7  C   UNL d   1     -40.050  14.174  18.741  0.00  0.00     0.268 C 
ATOM      8  N   UNL d   1     -39.674  14.532  19.379  0.00  0.00    -0.251 N 
ATOM      9  C   UNL d   1     -40.006  14.684  20.121  0.00  0.00     0.178 A 
ATOM     10  C   UNL d   1     -38.889  14.805  19.386  0.00  0.00     0.106 A 
ATOM     11  N   UNL d   1     -39.433  15.046  20.580  0.00  0.00    -0.219 NA
ATOM     12  C   UNL d   1     -38.745  15.123  20.136  0.00  0.00     0.120 A 
ATOM     13  O   UNL d   1     -40.835  13.928  18.806  0.00  0.00    -0.267 OA
BRANCH   9  14
ATOM     14  S   UNL d   1     -40.773  14.500  20.344  0.00  0.00    -0.076 SA
ATOM     15  C   UNL d   1     -41.079  14.774  21.062  0.00  0.00     0.077 C 
ENDBRANCH   9  14
ENDBRANCH   1   7
BRANCH   2  16
ATOM     16  O   UNL d   1     -40.511  15.000  17.383  0.00  0.00    -0.305 OA
BRANCH  16  17
ATOM     17  C   UNL d   1     -40.753  15.390  16.697  0.00  0.00     0.123 C 
ATOM     18  C   UNL d   1     -41.368  15.920  16.730  0.00  0.00     0.029 C 
ENDBRANCH  16  17
ENDBRANCH   2  16
TORSDOF 4
ENDMDL
MODEL 7
REMARK VINA RESULT:      -5.0      8.562      9.798
REMARK  4 active torsions:
REMARK  status: ('A' for Active; 'I' for Inactive)
REMARK       I    between atoms: C_2  and  N_1 
REMARK    1  A    between atoms: C_4  and  C_2 
REMARK    2  A    between atoms: S_8  and  C_3 
REMARK    3  A    between atoms: O_12  and  C_7 
REMARK    4  A    between atoms: C_15  and  O_12 
ROOT
ATOM      1  C   UNL d   1     -40.058  15.386  18.340  0.00  0.00     0.079 A 
ATOM      2  C   UNL d   1     -39.900  14.725  17.861  0.00  0.00     0.105 A 
ATOM      3  C   UNL d   1     -40.648  15.922  18.136  0.00  0.00     0.007 A 
ATOM      4  C   UNL d   1     -40.348  14.616  17.176  0.00  0.00     0.025 A 
ATOM      5  C   UNL d   1     -41.089  15.807  17.453  0.00  0.00     0.000 A 
ATOM      6  C   UNL d   1     -40.939  15.159  16.977  0.00  0.00     0.002 A 
ENDROOT
BRANCH   1   7
ATOM      7  C   UNL d   1     -39.616  15.505  19.030  0.00  0.00     0.268 C 
ATOM      8  N   UNL d   1     -39.980  15.461  19.766  0.00  0.00    -0.251 N 
ATOM      9  C   UNL d   1     -39.614  15.567  20.500  0.00  0.00     0.178 A 
ATOM     10  C   UNL d   1     -40.785  15.303  19.898  0.00  0.00     0.106 A 
ATOM     11  N   UNL d   1     -40.187  15.474  21.078  0.00  0.00    -0.219 NA
ATOM     12  C   UNL d   1     -40.907  15.312  20.716  0.00  0.00     0.120 A 
ATOM     13  O   UNL d   1     -38.808  15.667  18.975  0.00  0.00    -0.267 OA
BRANCH   9  14
ATOM     14  S   UNL d   1     -38.820  15.733  20.615  0.00  0.00    -0.076 SA
ATOM     15  C   UNL d   1     -38.520  15.843  21.378  0.00  0.00     0.077 C 
ENDBRANCH   9  14
ENDBRANCH   1   7
BRANCH   2  16
ATOM     16  O   UNL d   1     -39.310  14.192  18.069  0.00  0.00    -0.305 OA
BRANCH  16  17
ATOM     17  C   UNL d   1     -39.137  13.560  17.568  0.00  0.00     0.123 C 
ATOM     18  C   UNL d   1     -38.624  12.979  17.814  0.00  0.00     0.029 C 
ENDBRANCH  16  17
ENDBRANCH   2  16
TORSDOF 4
ENDMDL
