MODEL 1
REMARK VINA RESULT:      -4.9      0.000      0.000
REMARK  4 active torsions:
REMARK  status: ('A' for Active; 'I' for Inactive)
REMARK    1  A    between atoms: C_2  and  C_1 
REMARK    2  A    between atoms: C_3  and  C_2 
REMARK    3  A    between atoms: C_5  and  C_3 
REMARK    4  A    between atoms: C_13  and  C_5 
ROOT
ATOM      1  C   UNL d   1      58.357  -0.648  30.270  0.00  0.00     0.042 C 
ENDROOT
BRANCH   1   2
ATOM      2  C   UNL d   1      58.541  -0.693  29.467  0.00  0.00     0.199 C 
ATOM      3  O   UNL d   1      58.237  -0.149  28.942  0.00  0.00    -0.286 OA
BRANCH   2   4
ATOM      4  C   UNL d   1      59.034  -1.290  29.204  0.00  0.00     0.078 A 
ATOM      5  C   UNL d   1      59.814  -1.162  29.015  0.00  0.00     0.199 A 
ATOM      6  C   UNL d   1      60.291  -1.758  28.757  0.00  0.00     0.042 A 
ATOM      7  O   UNL d   1      60.135  -0.346  29.100  0.00  0.00    -0.286 OA
ATOM      8  C   UNL d   1      60.021  -2.519  28.670  0.00  0.00     0.003 A 
ATOM      9  C   UNL d   1      59.258  -2.680  28.847  0.00  0.00     0.000 A 
ATOM     10  C   UNL d   1      58.754  -2.076  29.115  0.00  0.00     0.006 A 
ATOM     11  C   UNL d   1      58.916  -3.314  28.807  0.00  0.00     0.000 C 
ENDBRANCH   2   4
ENDBRANCH   1   2
BRANCH   1  12
ATOM     12  C   UNL d   1      57.752  -0.090  30.399  0.00  0.00     0.003 C 
BRANCH  12  13
ATOM     13  C   UNL d   1      57.429  -0.000  31.234  0.00  0.00     0.002 A 
ATOM     14  C   UNL d   1      56.807  -0.416  31.504  0.00  0.00     0.027 A 
ATOM     15  C   UNL d   1      56.526  -0.319  32.272  0.00  0.00     0.123 A 
ATOM     16  O   UNL d   1      55.855  -0.765  32.566  0.00  0.00    -0.301 OA
ATOM     17  C   UNL d   1      56.890   0.236  32.823  0.00  0.00     0.123 A 
ATOM     18  C   UNL d   1      55.562  -0.684  33.325  0.00  0.00     0.149 A 
ATOM     19  C   UNL d   1      55.942  -0.111  33.885  0.00  0.00     0.149 A 
ATOM     20  O   UNL d   1      56.584   0.323  33.618  0.00  0.00    -0.301 OA
ATOM     21  C   UNL d   1      57.548   0.682  32.552  0.00  0.00     0.027 A 
ATOM     22  C   UNL d   1      57.821   0.578  31.785  0.00  0.00     0.002 A 
ENDBRANCH  12  13
ENDBRANCH   1  12
TORSDOF 4
ENDMDL
MODEL 2
REMARK VINA RESULT:      -4.5      1.252      1.851
REMARK  4 active torsions:
REMARK  status: ('A' for Active; 'I' for Inactive)
REMARK    1  A    between atoms: C_2  and  C_1 
REMARK    2  A    between atoms: C_3  and  C_2 
REMARK    3  A    between atoms: C_5  and  C_3 
REMARK    4  A    between atoms: C_13  and  C_5 
ROOT
ATOM      1  C   UNL d   1      57.826   0.194  31.008  0.00  0.00     0.042 C 
ENDROOT
BRANCH   1   2
ATOM      2  C   UNL d   1      57.996   0.267  30.203  0.00  0.00     0.199 C 
ATOM      3  O   UNL d   1      57.461   0.615  29.697  0.00  0.00    -0.286 OA
BRANCH   2   4
ATOM      4  C   UNL d   1      58.709  -0.015  29.920  0.00  0.00     0.078 A 
ATOM      5  C   UNL d   1      58.779  -0.735  29.551  0.00  0.00     0.199 A 
ATOM      6  C   UNL d   1      59.486  -1.004  29.275  0.00  0.00     0.042 A 
ATOM      7  O   UNL d   1      58.053  -1.228  29.456  0.00  0.00    -0.286 OA
ATOM      8  C   UNL d   1      60.170  -0.571  29.349  0.00  0.00     0.003 A 
ATOM      9  C   UNL d   1      60.137   0.143  29.707  0.00  0.00     0.000 A 
ATOM     10  C   UNL d   1      59.414   0.433  29.997  0.00  0.00     0.006 A 
ATOM     11  C   UNL d   1      60.677   0.607  29.825  0.00  0.00     0.000 C 
ENDBRANCH   2   4
ENDBRANCH   1   2
BRANCH   1  12
ATOM     12  C   UNL d   1      57.163   0.656  31.208  0.00  0.00     0.003 C 
BRANCH  12  13
ATOM     13  C   UNL d   1      56.894   0.663  32.066  0.00  0.00     0.002 A 
ATOM     14  C   UNL d   1      56.127   0.657  32.279  0.00  0.00     0.027 A 
ATOM     15  C   UNL d   1      55.901   0.663  33.071  0.00  0.00     0.123 A 
ATOM     16  O   UNL d   1      55.075   0.657  33.304  0.00  0.00    -0.301 OA
ATOM     17  C   UNL d   1      56.480   0.676  33.710  0.00  0.00     0.123 A 
ATOM     18  C   UNL d   1      54.831   0.663  34.084  0.00  0.00     0.149 A 
ATOM     19  C   UNL d   1      55.433   0.676  34.734  0.00  0.00     0.149 A 
ATOM     20  O   UNL d   1      56.226   0.682  34.527  0.00  0.00    -0.301 OA
ATOM     21  C   UNL d   1      57.294   0.682  33.500  0.00  0.00     0.027 A 
ATOM     22  C   UNL d   1      57.509   0.676  32.708  0.00  0.00     0.002 A 
ENDBRANCH  12  13
ENDBRANCH   1  12
TORSDOF 4
ENDMDL
MODEL 3
REMARK VINA RESULT:      -4.0      1.128      5.198
REMARK  4 active torsions:
REMARK  status: ('A' for Active; 'I' for Inactive)
REMARK    1  A    between atoms: C_2  and  C_1 
REMARK    2  A    between atoms: C_3  and  C_2 
REMARK    3  A    between atoms: C_5  and  C_3 
REMARK    4  A    between atoms: C_13  and  C_5 
ROOT
ATOM      1  C   UNL d   1      56.481  -0.273  32.336  0.00  0.00     0.042 C 
ENDROOT
BRANCH   1   2
ATOM      2  C   UNL d   1      56.121  -0.662  32.969  0.00  0.00     0.199 C 
ATOM      3  O   UNL d   1      56.102  -1.476  32.997  0.00  0.00    -0.286 OA
BRANCH   2   4
ATOM      4  C   UNL d   1      55.783  -0.220  33.568  0.00  0.00     0.078 A 
ATOM      5  C   UNL d   1      56.215   0.083  34.185  0.00  0.00     0.199 A 
ATOM      6  C   UNL d   1      55.873   0.518  34.770  0.00  0.00     0.042 A 
ATOM      7  O   UNL d   1      57.083  -0.074  34.203  0.00  0.00    -0.286 OA
ATOM      8  C   UNL d   1      55.076   0.678  34.778  0.00  0.00     0.003 A 
ATOM      9  C   UNL d   1      54.620   0.394  34.185  0.00  0.00     0.000 A 
ATOM     10  C   UNL d   1      54.960  -0.056  33.574  0.00  0.00     0.006 A 
ATOM     11  C   UNL d   1      53.909   0.475  34.093  0.00  0.00     0.000 C 
ENDBRANCH   2   4
ENDBRANCH   1   2
BRANCH   1  12
ATOM     12  C   UNL d   1      56.818  -0.824  31.810  0.00  0.00     0.003 C 
BRANCH  12  13
ATOM     13  C   UNL d   1      57.312  -0.510  31.126  0.00  0.00     0.002 A 
ATOM     14  C   UNL d   1      57.778  -0.975  30.681  0.00  0.00     0.027 A 
ATOM     15  C   UNL d   1      58.223  -0.668  30.059  0.00  0.00     0.123 A 
ATOM     16  O   UNL d   1      58.727  -1.168  29.576  0.00  0.00    -0.301 OA
ATOM     17  C   UNL d   1      58.207   0.170  29.858  0.00  0.00     0.123 A 
ATOM     18  C   UNL d   1      59.175  -0.883  28.955  0.00  0.00     0.149 A 
ATOM     19  C   UNL d   1      59.153  -0.019  28.756  0.00  0.00     0.149 A 
ATOM     20  O   UNL d   1      58.676   0.471  29.208  0.00  0.00    -0.301 OA
ATOM     21  C   UNL d   1      57.719   0.674  30.320  0.00  0.00     0.027 A 
ATOM     22  C   UNL d   1      57.280   0.359  30.938  0.00  0.00     0.002 A 
ENDBRANCH  12  13
ENDBRANCH   1  12
TORSDOF 4
ENDMDL
MODEL 4
REMARK VINA RESULT:      -2.1      1.208      5.036
REMARK  4 active torsions:
REMARK  status: ('A' for Active; 'I' for Inactive)
REMARK    1  A    between atoms: C_2  and  C_1 
REMARK    2  A    between atoms: C_3  and  C_2 
REMARK    3  A    between atoms: C_5  and  C_3 
REMARK    4  A    between atoms: C_13  and  C_5 
ROOT
ATOM      1  C   UNL d   1      57.627   0.449  31.494  0.00  0.00     0.042 C 
ENDROOT
BRANCH   1   2
ATOM      2  C   UNL d   1      56.888   0.558  31.847  0.00  0.00     0.199 C 
ATOM      3  O   UNL d   1      56.223   0.666  31.390  0.00  0.00    -0.286 OA
BRANCH   2   4
ATOM      4  C   UNL d   1      56.832   0.555  32.663  0.00  0.00     0.078 A 
ATOM      5  C   UNL d   1      56.122   0.491  33.052  0.00  0.00     0.199 A 
ATOM      6  C   UNL d   1      56.078   0.489  33.856  0.00  0.00     0.042 A 
ATOM      7  O   UNL d   1      55.387   0.422  32.570  0.00  0.00    -0.286 OA
ATOM      8  C   UNL d   1      56.739   0.552  34.325  0.00  0.00     0.003 A 
ATOM      9  C   UNL d   1      57.455   0.616  33.973  0.00  0.00     0.000 A 
ATOM     10  C   UNL d   1      57.516   0.619  33.145  0.00  0.00     0.006 A 
ATOM     11  C   UNL d   1      58.101   0.677  34.289  0.00  0.00     0.000 C 
ENDBRANCH   2   4
ENDBRANCH   1   2
BRANCH   1  12
ATOM     12  C   UNL d   1      57.554   0.439  30.664  0.00  0.00     0.003 C 
BRANCH  12  13
ATOM     13  C   UNL d   1      58.244   0.123  30.182  0.00  0.00     0.002 A 
ATOM     14  C   UNL d   1      58.925   0.524  30.089  0.00  0.00     0.027 A 
ATOM     15  C   UNL d   1      59.546   0.218  29.642  0.00  0.00     0.123 A 
ATOM     16  O   UNL d   1      60.281   0.649  29.540  0.00  0.00    -0.301 OA
ATOM     17  C   UNL d   1      59.493  -0.550  29.254  0.00  0.00     0.123 A 
ATOM     18  C   UNL d   1      60.909   0.362  29.101  0.00  0.00     0.149 A 
ATOM     19  C   UNL d   1      60.845  -0.428  28.706  0.00  0.00     0.149 A 
ATOM     20  O   UNL d   1      60.149  -0.851  28.795  0.00  0.00    -0.301 OA
ATOM     21  C   UNL d   1      58.779  -0.985  29.344  0.00  0.00     0.027 A 
ATOM     22  C   UNL d   1      58.166  -0.672  29.790  0.00  0.00     0.002 A 
ENDBRANCH  12  13
ENDBRANCH   1  12
TORSDOF 4
ENDMDL
MODEL 5
REMARK VINA RESULT:      -1.9      8.899      9.194
REMARK  4 active torsions:
REMARK  status: ('A' for Active; 'I' for Inactive)
REMARK    1  A    between atoms: C_2  and  C_1 
REMARK    2  A    between atoms: C_3  and  C_2 
REMARK    3  A    between atoms: C_5  and  C_3 
REMARK    4  A    between atoms: C_13  and  C_5 
ROOT
ATOM      1  C   UNL d   1      58.852  -9.710  31.969  0.00  0.00     0.042 C 
ENDROOT
BRANCH   1   2
ATOM      2  C   UNL d   1      58.130  -9.734  31.569  0.00  0.00     0.199 C 
ATOM      3  O   UNL d   1      57.428  -9.736  31.984  0.00  0.00    -0.286 OA
BRANCH   2   4
ATOM      4  C   UNL d   1      58.127  -9.756  30.752  0.00  0.00     0.078 A 
ATOM      5  C   UNL d   1      57.441  -9.797  30.318  0.00  0.00     0.199 A 
ATOM      6  C   UNL d   1      57.449  -9.818  29.513  0.00  0.00     0.042 A 
ATOM      7  O   UNL d   1      56.673  -9.817  30.752  0.00  0.00    -0.286 OA
ATOM      8  C   UNL d   1      58.142  -9.801  29.089  0.00  0.00     0.003 A 
ATOM      9  C   UNL d   1      58.835  -9.761  29.485  0.00  0.00     0.000 A 
ATOM     10  C   UNL d   1      58.843  -9.738  30.315  0.00  0.00     0.006 A 
ATOM     11  C   UNL d   1      59.503  -9.740  29.211  0.00  0.00     0.000 C 
ENDBRANCH   2   4
ENDBRANCH   1   2
BRANCH   1  12
ATOM     12  C   UNL d   1      58.736  -9.818  32.787  0.00  0.00     0.003 C 
BRANCH  12  13
ATOM     13  C   UNL d   1      59.342  -9.467  33.351  0.00  0.00     0.002 A 
ATOM     14  C   UNL d   1      59.141  -9.095  34.024  0.00  0.00     0.027 A 
ATOM     15  C   UNL d   1      59.712  -8.780  34.528  0.00  0.00     0.123 A 
ATOM     16  O   UNL d   1      59.498  -8.378  35.255  0.00  0.00    -0.301 OA
ATOM     17  C   UNL d   1      60.554  -8.838  34.354  0.00  0.00     0.123 A 
ATOM     18  C   UNL d   1      60.049  -8.060  35.768  0.00  0.00     0.149 A 
ATOM     19  C   UNL d   1      60.913  -8.123  35.581  0.00  0.00     0.149 A 
ATOM     20  O   UNL d   1      61.133  -8.505  34.890  0.00  0.00    -0.301 OA
ATOM     21  C   UNL d   1      60.782  -9.229  33.646  0.00  0.00     0.027 A 
ATOM     22  C   UNL d   1      60.206  -9.539  33.150  0.00  0.00     0.002 A 
ENDBRANCH  12  13
ENDBRANCH   1  12
TORSDOF 4
ENDMDL
