MODEL 1
REMARK VINA RESULT:      31.3      0.000      0.000
REMARK  6 active torsions:
REMARK  status: ('A' for Active; 'I' for Inactive)
REMARK    1  A    between atoms: N_2  and  S_1 
REMARK    2  A    between atoms: C_6  and  S_1 
REMARK    3  A    between atoms: S_9  and  C_3 
REMARK    4  A    between atoms: N_4  and  C_10 
REMARK    5  A    between atoms: C_19  and  S_9 
REMARK    6  A    between atoms: C_21  and  C_19 
ROOT
ATOM      1  N   UNL d   1      14.745  12.335  -0.981  0.00  0.00    -0.208 N 
ATOM      2  C   UNL d   1      15.259  12.919  -0.688  0.00  0.00     0.189 A 
ATOM      3  N   UNL d   1      16.029  12.729  -0.926  0.00  0.00    -0.219 NA
ATOM      4  C   UNL d   1      15.203  11.782  -1.403  0.00  0.00     0.114 A 
ATOM      5  C   UNL d   1      15.990  12.028  -1.366  0.00  0.00     0.121 A 
ENDROOT
BRANCH   1   6
ATOM      6  S   UNL d   1      13.924  12.312  -0.872  0.00  0.00     0.273 S 
ATOM      7  O   UNL d   1      14.068  12.289  -0.067  0.00  0.00    -0.200 OA
ATOM      8  O   UNL d   1      13.175  12.282  -0.519  0.00  0.00    -0.200 OA
BRANCH   6   9
ATOM      9  C   UNL d   1      13.758  12.333  -1.681  0.00  0.00     0.104 A 
ATOM     10  C   UNL d   1      14.112  12.907  -2.150  0.00  0.00     0.015 A 
ATOM     11  C   UNL d   1      13.949  12.932  -2.961  0.00  0.00     0.024 A 
ATOM     12  C   UNL d   1      13.431  12.378  -3.284  0.00  0.00     0.127 A 
ATOM     13  C   UNL d   1      13.079  11.806  -2.808  0.00  0.00     0.024 A 
ATOM     14  C   UNL d   1      13.241  11.779  -2.001  0.00  0.00     0.015 A 
BRANCH  12  15
ATOM     15  N   UNL d   1      13.265  12.402  -4.103  0.00  0.00    -0.114 N 
ATOM     16  O   UNL d   1      12.855  13.050  -4.417  0.00  0.00    -0.532 OA
ATOM     17  O   UNL d   1      13.507  11.786  -4.592  0.00  0.00    -0.532 OA
ENDBRANCH  12  15
ENDBRANCH   6   9
ENDBRANCH   1   6
BRANCH   2  18
ATOM     18  S   UNL d   1      15.035  13.581  -0.233  0.00  0.00    -0.049 SA
BRANCH  18  19
ATOM     19  C   UNL d   1      15.604  14.138  -0.014  0.00  0.00     0.038 C 
BRANCH  19  20
ATOM     20  C   UNL d   1      15.461  14.940  -0.142  0.00  0.00     0.007 A 
ATOM     21  C   UNL d   1      14.692  15.217  -0.242  0.00  0.00     0.003 A 
ATOM     22  C   UNL d   1      14.564  16.031  -0.370  0.00  0.00     0.030 A 
ATOM     23  C   UNL d   1      15.203  16.553  -0.396  0.00  0.00     0.140 A 
ATOM     24  C   UNL d   1      15.970  16.279  -0.296  0.00  0.00     0.030 A 
ATOM     25  F   UNL d   1      15.068  17.357  -0.523  0.00  0.00    -0.204 F 
ATOM     26  C   UNL d   1      16.103  15.480  -0.170  0.00  0.00     0.003 A 
ENDBRANCH  19  20
ENDBRANCH  18  19
ENDBRANCH   2  18
TORSDOF 6
ENDMDL
