MODEL 1
REMARK VINA RESULT:      10.1      0.000      0.000
REMARK  5 active torsions:
REMARK  status: ('A' for Active; 'I' for Inactive)
REMARK    1  A    between atoms: C_2  and  C_1 
REMARK    2  A    between atoms: O_6  and  C_1 
REMARK    3  A    between atoms: C_11  and  O_6 
REMARK    4  A    between atoms: C_12  and  C_11 
REMARK    5  A    between atoms: C_13  and  C_12 
ROOT
ATOM      1  C   UNL d   1      59.585  49.659  50.837  0.00  0.00     0.064 A 
ATOM      2  C   UNL d   1      60.352  49.585  50.536  0.00  0.00     0.009 A 
ATOM      3  C   UNL d   1      59.473  49.704  51.654  0.00  0.00     0.009 A 
ATOM      4  C   UNL d   1      60.893  49.602  51.855  0.00  0.00     0.196 A 
ATOM      5  C   UNL d   1      61.005  49.556  51.038  0.00  0.00     0.042 A 
ATOM      6  C   UNL d   1      60.129  49.675  52.153  0.00  0.00     0.042 A 
ATOM      7  O   UNL d   1      61.536  49.575  52.388  0.00  0.00    -0.287 OA
ENDROOT
BRANCH   1   8
ATOM      8  C   UNL d   1      58.937  49.686  50.321  0.00  0.00     0.300 C 
ATOM      9  O   UNL d   1      59.052  49.694  49.504  0.00  0.00    -0.259 OA
BRANCH   8  10
ATOM     10  O   UNL d   1      58.176  49.705  50.638  0.00  0.00    -0.271 OA
BRANCH  10  11
ATOM     11  C   UNL d   1      57.531  49.593  50.133  0.00  0.00     0.126 C 
BRANCH  11  12
ATOM     12  C   UNL d   1      56.767  49.629  50.446  0.00  0.00     0.027 C 
BRANCH  12  13
ATOM     13  C   UNL d   1      56.128  49.401  49.987  0.00  0.00     0.002 C 
ATOM     14  C   UNL d   1      56.040  49.700  49.224  0.00  0.00     0.000 C 
ENDBRANCH  12  13
ENDBRANCH  11  12
ENDBRANCH  10  11
ENDBRANCH   8  10
ENDBRANCH   1   8
TORSDOF 5
ENDMDL
