MODEL 1
REMARK VINA RESULT:      -7.9      0.000      0.000
REMARK  1 active torsions:
REMARK  status: ('A' for Active; 'I' for Inactive)
REMARK       I    between atoms: N_3  and  C_1 
REMARK       I    between atoms: N_5  and  C_1 
REMARK       I    between atoms: C_2  and  N_4 
REMARK    1  A    between atoms: C_6  and  C_2 
ROOT
ATOM      1  C   UNL d   1      53.688  33.676  54.694  0.00  0.00     0.340 C 
ATOM      2  C   UNL d   1      53.010  30.813  53.194  0.00  0.00     0.271 C 
ATOM      3  N   UNL d   1      53.611  32.968  54.275  0.00  0.00    -0.254 N 
ATOM      4  N   UNL d   1      53.195  31.538  53.571  0.00  0.00    -0.269 N 
ATOM      5  N   UNL d   1      53.455  34.387  54.347  0.00  0.00    -0.253 N 
ATOM      6  O   UNL d   1      53.996  33.673  55.455  0.00  0.00    -0.245 OA
ATOM      7  C   UNL d   1      53.819  32.251  54.636  0.00  0.00     0.104 A 
ATOM      8  C   UNL d   1      53.207  32.963  53.543  0.00  0.00     0.104 A 
ATOM      9  C   UNL d   1      53.597  31.526  54.282  0.00  0.00     0.102 A 
ATOM     10  C   UNL d   1      53.002  32.248  53.187  0.00  0.00     0.102 A 
ATOM     11  O   UNL d   1      52.606  30.811  52.464  0.00  0.00    -0.266 OA
ATOM     12  O   UNL d   1      52.720  35.776  53.762  0.00  0.00    -0.300 OA
ATOM     13  C   UNL d   1      53.261  35.055  54.867  0.00  0.00     0.111 C 
ATOM     14  C   UNL d   1      52.877  34.347  53.689  0.00  0.00     0.111 C 
ATOM     15  C   UNL d   1      52.644  35.067  53.346  0.00  0.00     0.142 C 
ATOM     16  C   UNL d   1      53.031  35.762  54.526  0.00  0.00     0.142 C 
ENDROOT
BRANCH   2  17
ATOM     17  C   UNL d   1      53.211  30.094  53.558  0.00  0.00     0.086 A 
ATOM     18  S   UNL d   1      52.711  29.632  54.037  0.00  0.00    -0.082 SA
ATOM     19  C   UNL d   1      53.140  28.950  54.278  0.00  0.00     0.036 A 
ATOM     20  C   UNL d   1      53.903  29.002  53.950  0.00  0.00     0.008 A 
ATOM     21  C   UNL d   1      53.947  29.704  53.502  0.00  0.00     0.012 A 
ENDBRANCH   2  17
TORSDOF 1
ENDMDL
MODEL 2
REMARK VINA RESULT:      -7.6      1.497      4.579
REMARK  1 active torsions:
REMARK  status: ('A' for Active; 'I' for Inactive)
REMARK       I    between atoms: N_3  and  C_1 
REMARK       I    between atoms: N_5  and  C_1 
REMARK       I    between atoms: C_2  and  N_4 
REMARK    1  A    between atoms: C_6  and  C_2 
ROOT
ATOM      1  C   UNL d   1      52.847  31.178  53.001  0.00  0.00     0.340 C 
ATOM      2  C   UNL d   1      53.751  33.793  54.804  0.00  0.00     0.271 C 
ATOM      3  N   UNL d   1      53.156  31.836  53.392  0.00  0.00    -0.254 N 
ATOM      4  N   UNL d   1      53.531  33.133  54.337  0.00  0.00    -0.269 N 
ATOM      5  N   UNL d   1      53.054  30.418  53.246  0.00  0.00    -0.253 N 
ATOM      6  O   UNL d   1      52.333  31.279  52.368  0.00  0.00    -0.245 OA
ATOM      7  C   UNL d   1      52.924  32.599  53.163  0.00  0.00     0.104 A 
ATOM      8  C   UNL d   1      53.598  31.730  54.094  0.00  0.00     0.104 A 
ATOM      9  C   UNL d   1      53.106  33.255  53.650  0.00  0.00     0.102 A 
ATOM     10  C   UNL d   1      53.790  32.379  54.567  0.00  0.00     0.102 A 
ATOM     11  O   UNL d   1      54.190  33.684  55.504  0.00  0.00    -0.266 OA
ATOM     12  O   UNL d   1      53.242  28.894  53.920  0.00  0.00    -0.300 OA
ATOM     13  C   UNL d   1      52.523  29.762  53.045  0.00  0.00     0.111 C 
ATOM     14  C   UNL d   1      53.345  30.322  54.067  0.00  0.00     0.111 C 
ATOM     15  C   UNL d   1      53.549  29.555  54.309  0.00  0.00     0.142 C 
ATOM     16  C   UNL d   1      52.727  29.006  53.285  0.00  0.00     0.142 C 
ENDROOT
BRANCH   2  17
ATOM     17  C   UNL d   1      53.512  34.556  54.580  0.00  0.00     0.086 A 
ATOM     18  S   UNL d   1      52.873  34.983  54.899  0.00  0.00    -0.082 SA
ATOM     19  C   UNL d   1      52.842  35.730  54.515  0.00  0.00     0.036 A 
ATOM     20  C   UNL d   1      53.459  35.754  53.958  0.00  0.00     0.008 A 
ATOM     21  C   UNL d   1      53.875  35.034  53.999  0.00  0.00     0.012 A 
ENDBRANCH   2  17
TORSDOF 1
ENDMDL
MODEL 3
REMARK VINA RESULT:      -6.5      2.574      3.536
REMARK  1 active torsions:
REMARK  status: ('A' for Active; 'I' for Inactive)
REMARK       I    between atoms: N_3  and  C_1 
REMARK       I    between atoms: N_5  and  C_1 
REMARK       I    between atoms: C_2  and  N_4 
REMARK    1  A    between atoms: C_6  and  C_2 
ROOT
ATOM      1  C   UNL d   1      50.470  34.823  53.029  0.00  0.00     0.340 C 
ATOM      2  C   UNL d   1      53.150  32.904  53.222  0.00  0.00     0.271 C 
ATOM      3  N   UNL d   1      51.192  34.422  53.037  0.00  0.00    -0.254 N 
ATOM      4  N   UNL d   1      52.478  33.402  53.171  0.00  0.00    -0.269 N 
ATOM      5  N   UNL d   1      49.986  34.787  52.362  0.00  0.00    -0.253 N 
ATOM      6  O   UNL d   1      50.233  35.259  53.685  0.00  0.00    -0.245 OA
ATOM      7  C   UNL d   1      51.664  34.436  53.719  0.00  0.00     0.104 A 
ATOM      8  C   UNL d   1      51.383  33.902  52.411  0.00  0.00     0.104 A 
ATOM      9  C   UNL d   1      52.311  33.909  53.789  0.00  0.00     0.102 A 
ATOM     10  C   UNL d   1      52.029  33.394  52.474  0.00  0.00     0.102 A 
ATOM     11  O   UNL d   1      53.338  32.386  52.596  0.00  0.00    -0.266 OA
ATOM     12  O   UNL d   1      48.883  34.479  51.137  0.00  0.00    -0.300 OA
ATOM     13  C   UNL d   1      49.138  34.947  52.460  0.00  0.00     0.111 C 
ATOM     14  C   UNL d   1      50.098  34.111  51.816  0.00  0.00     0.111 C 
ATOM     15  C   UNL d   1      49.605  34.079  51.149  0.00  0.00     0.142 C 
ATOM     16  C   UNL d   1      48.655  34.913  51.801  0.00  0.00     0.142 C 
ENDROOT
BRANCH   2  17
ATOM     17  C   UNL d   1      53.620  32.911  53.908  0.00  0.00     0.086 A 
ATOM     18  S   UNL d   1      53.562  32.380  54.546  0.00  0.00    -0.082 SA
ATOM     19  C   UNL d   1      54.149  32.589  55.111  0.00  0.00     0.036 A 
ATOM     20  C   UNL d   1      54.558  33.251  54.818  0.00  0.00     0.008 A 
ATOM     21  C   UNL d   1      54.237  33.448  54.075  0.00  0.00     0.012 A 
ENDBRANCH   2  17
TORSDOF 1
ENDMDL
MODEL 4
REMARK VINA RESULT:      -6.1      2.491      3.927
REMARK  1 active torsions:
REMARK  status: ('A' for Active; 'I' for Inactive)
REMARK       I    between atoms: N_3  and  C_1 
REMARK       I    between atoms: N_5  and  C_1 
REMARK       I    between atoms: C_2  and  N_4 
REMARK    1  A    between atoms: C_6  and  C_2 
ROOT
ATOM      1  C   UNL d   1      53.418  34.718  54.387  0.00  0.00     0.340 C 
ATOM      2  C   UNL d   1      50.684  33.538  52.960  0.00  0.00     0.271 C 
ATOM      3  N   UNL d   1      52.686  34.449  54.116  0.00  0.00    -0.254 N 
ATOM      4  N   UNL d   1      51.370  33.844  53.331  0.00  0.00    -0.269 N 
ATOM      5  N   UNL d   1      53.914  34.210  54.808  0.00  0.00    -0.253 N 
ATOM      6  O   UNL d   1      53.654  35.491  54.237  0.00  0.00    -0.245 OA
ATOM      7  C   UNL d   1      52.201  34.951  53.669  0.00  0.00     0.104 A 
ATOM      8  C   UNL d   1      52.493  33.638  54.184  0.00  0.00     0.104 A 
ATOM      9  C   UNL d   1      51.539  34.640  53.262  0.00  0.00     0.102 A 
ATOM     10  C   UNL d   1      51.832  33.334  53.795  0.00  0.00     0.102 A 
ATOM     11  O   UNL d   1      50.494  32.729  53.028  0.00  0.00    -0.266 OA
ATOM     12  O   UNL d   1      55.031  33.109  55.400  0.00  0.00    -0.300 OA
ATOM     13  C   UNL d   1      54.764  34.387  54.827  0.00  0.00     0.111 C 
ATOM     14  C   UNL d   1      53.794  33.348  54.704  0.00  0.00     0.111 C 
ATOM     15  C   UNL d   1      54.298  32.843  55.128  0.00  0.00     0.142 C 
ATOM     16  C   UNL d   1      55.258  33.887  55.245  0.00  0.00     0.142 C 
ENDROOT
BRANCH   2  17
ATOM     17  C   UNL d   1      50.202  34.039  52.505  0.00  0.00     0.086 A 
ATOM     18  S   UNL d   1      50.209  34.103  51.675  0.00  0.00    -0.082 SA
ATOM     19  C   UNL d   1      49.626  34.668  51.453  0.00  0.00     0.036 A 
ATOM     20  C   UNL d   1      49.271  34.951  52.150  0.00  0.00     0.008 A 
ATOM     21  C   UNL d   1      49.621  34.562  52.798  0.00  0.00     0.012 A 
ENDBRANCH   2  17
TORSDOF 1
ENDMDL
MODEL 5
REMARK VINA RESULT:      -5.9     10.521     11.142
REMARK  1 active torsions:
REMARK  status: ('A' for Active; 'I' for Inactive)
REMARK       I    between atoms: N_3  and  C_1 
REMARK       I    between atoms: N_5  and  C_1 
REMARK       I    between atoms: C_2  and  N_4 
REMARK    1  A    between atoms: C_6  and  C_2 
ROOT
ATOM      1  C   UNL d   1      44.435  30.279  60.199  0.00  0.00     0.340 C 
ATOM      2  C   UNL d   1      44.792  27.235  58.970  0.00  0.00     0.271 C 
ATOM      3  N   UNL d   1      44.423  29.520  59.875  0.00  0.00    -0.254 N 
ATOM      4  N   UNL d   1      44.689  28.008  59.276  0.00  0.00    -0.269 N 
ATOM      5  N   UNL d   1      44.314  30.384  61.008  0.00  0.00    -0.253 N 
ATOM      6  O   UNL d   1      44.568  30.931  59.716  0.00  0.00    -0.245 OA
ATOM      7  C   UNL d   1      44.574  29.413  59.066  0.00  0.00     0.104 A 
ATOM      8  C   UNL d   1      44.387  28.855  60.381  0.00  0.00     0.104 A 
ATOM      9  C   UNL d   1      44.719  28.646  58.766  0.00  0.00     0.102 A 
ATOM     10  C   UNL d   1      44.516  28.097  60.082  0.00  0.00     0.102 A 
ATOM     11  O   UNL d   1      44.756  26.574  59.477  0.00  0.00    -0.266 OA
ATOM     12  O   UNL d   1      44.359  30.572  62.673  0.00  0.00    -0.300 OA
ATOM     13  C   UNL d   1      44.613  31.111  61.378  0.00  0.00     0.111 C 
ATOM     14  C   UNL d   1      44.469  29.700  61.533  0.00  0.00     0.111 C 
ATOM     15  C   UNL d   1      44.348  29.814  62.346  0.00  0.00     0.142 C 
ATOM     16  C   UNL d   1      44.493  31.219  62.180  0.00  0.00     0.142 C 
ENDROOT
BRANCH   2  17
ATOM     17  C   UNL d   1      44.950  27.128  58.162  0.00  0.00     0.086 A 
ATOM     18  S   UNL d   1      44.392  26.934  57.575  0.00  0.00    -0.082 SA
ATOM     19  C   UNL d   1      44.794  26.891  56.838  0.00  0.00     0.036 A 
ATOM     20  C   UNL d   1      45.598  27.051  56.979  0.00  0.00     0.008 A 
ATOM     21  C   UNL d   1      45.695  27.202  57.793  0.00  0.00     0.012 A 
ENDBRANCH   2  17
TORSDOF 1
ENDMDL
MODEL 6
REMARK VINA RESULT:      -5.7      4.599      5.726
REMARK  1 active torsions:
REMARK  status: ('A' for Active; 'I' for Inactive)
REMARK       I    between atoms: N_3  and  C_1 
REMARK       I    between atoms: N_5  and  C_1 
REMARK       I    between atoms: C_2  and  N_4 
REMARK    1  A    between atoms: C_6  and  C_2 
ROOT
ATOM      1  C   UNL d   1      47.860  35.938  53.225  0.00  0.00     0.340 C 
ATOM      2  C   UNL d   1      50.513  34.261  52.201  0.00  0.00     0.271 C 
ATOM      3  N   UNL d   1      48.565  35.610  52.948  0.00  0.00    -0.254 N 
ATOM      4  N   UNL d   1      49.848  34.698  52.461  0.00  0.00    -0.269 N 
ATOM      5  N   UNL d   1      47.241  36.090  52.700  0.00  0.00    -0.253 N 
ATOM      6  O   UNL d   1      47.772  36.114  54.023  0.00  0.00    -0.245 OA
ATOM      7  C   UNL d   1      49.175  35.431  53.481  0.00  0.00     0.104 A 
ATOM      8  C   UNL d   1      48.614  35.343  52.157  0.00  0.00     0.104 A 
ATOM      9  C   UNL d   1      49.820  34.959  53.235  0.00  0.00     0.102 A 
ATOM     10  C   UNL d   1      49.257  34.890  51.911  0.00  0.00     0.102 A 
ATOM     11  O   UNL d   1      50.559  33.995  51.412  0.00  0.00    -0.266 OA
ATOM     12  O   UNL d   1      45.898  36.127  51.697  0.00  0.00    -0.300 OA
ATOM     13  C   UNL d   1      46.436  36.147  53.018  0.00  0.00     0.111 C 
ATOM     14  C   UNL d   1      47.231  35.643  51.946  0.00  0.00     0.111 C 
ATOM     15  C   UNL d   1      46.605  35.799  51.424  0.00  0.00     0.142 C 
ATOM     16  C   UNL d   1      45.820  36.299  52.500  0.00  0.00     0.142 C 
ENDROOT
BRANCH   2  17
ATOM     17  C   UNL d   1      51.121  34.075  52.736  0.00  0.00     0.086 A 
ATOM     18  S   UNL d   1      51.165  33.390  53.207  0.00  0.00    -0.082 SA
ATOM     19  C   UNL d   1      51.875  33.429  53.655  0.00  0.00     0.036 A 
ATOM     20  C   UNL d   1      52.259  34.141  53.461  0.00  0.00     0.008 A 
ATOM     21  C   UNL d   1      51.798  34.538  52.892  0.00  0.00     0.012 A 
ENDBRANCH   2  17
TORSDOF 1
ENDMDL
MODEL 7
REMARK VINA RESULT:      -5.4      2.792      3.771
REMARK  1 active torsions:
REMARK  status: ('A' for Active; 'I' for Inactive)
REMARK       I    between atoms: N_3  and  C_1 
REMARK       I    between atoms: N_5  and  C_1 
REMARK       I    between atoms: C_2  and  N_4 
REMARK    1  A    between atoms: C_6  and  C_2 
ROOT
ATOM      1  C   UNL d   1      50.276  34.114  52.162  0.00  0.00     0.340 C 
ATOM      2  C   UNL d   1      52.819  33.567  54.196  0.00  0.00     0.271 C 
ATOM      3  N   UNL d   1      50.866  33.889  52.694  0.00  0.00    -0.254 N 
ATOM      4  N   UNL d   1      52.171  33.693  53.681  0.00  0.00    -0.269 N 
ATOM      5  N   UNL d   1      49.621  34.539  52.428  0.00  0.00    -0.253 N 
ATOM      6  O   UNL d   1      50.341  33.915  51.367  0.00  0.00    -0.245 OA
ATOM      7  C   UNL d   1      51.538  33.486  52.421  0.00  0.00     0.104 A 
ATOM      8  C   UNL d   1      50.846  34.177  53.479  0.00  0.00     0.104 A 
ATOM      9  C   UNL d   1      52.203  33.397  52.920  0.00  0.00     0.102 A 
ATOM     10  C   UNL d   1      51.497  34.076  53.975  0.00  0.00     0.102 A 
ATOM     11  O   UNL d   1      52.797  33.856  54.977  0.00  0.00    -0.266 OA
ATOM     12  O   UNL d   1      48.452  35.640  52.908  0.00  0.00    -0.300 OA
ATOM     13  C   UNL d   1      49.177  35.014  51.852  0.00  0.00     0.111 C 
ATOM     14  C   UNL d   1      49.705  34.986  53.177  0.00  0.00     0.111 C 
ATOM     15  C   UNL d   1      49.043  35.414  53.437  0.00  0.00     0.142 C 
ATOM     16  C   UNL d   1      48.526  35.436  52.112  0.00  0.00     0.142 C 
ENDROOT
BRANCH   2  17
ATOM     17  C   UNL d   1      53.496  33.171  53.920  0.00  0.00     0.086 A 
ATOM     18  S   UNL d   1      54.199  33.530  53.657  0.00  0.00    -0.082 SA
ATOM     19  C   UNL d   1      54.736  32.920  53.440  0.00  0.00     0.036 A 
ATOM     20  C   UNL d   1      54.354  32.191  53.564  0.00  0.00     0.008 A 
ATOM     21  C   UNL d   1      53.592  32.344  53.865  0.00  0.00     0.012 A 
ENDBRANCH   2  17
TORSDOF 1
ENDMDL
MODEL 8
REMARK VINA RESULT:      -5.3      2.686      4.442
REMARK  1 active torsions:
REMARK  status: ('A' for Active; 'I' for Inactive)
REMARK       I    between atoms: N_3  and  C_1 
REMARK       I    between atoms: N_5  and  C_1 
REMARK       I    between atoms: C_2  and  N_4 
REMARK    1  A    between atoms: C_6  and  C_2 
ROOT
ATOM      1  C   UNL d   1      52.805  32.859  53.062  0.00  0.00     0.340 C 
ATOM      2  C   UNL d   1      50.165  34.812  52.719  0.00  0.00     0.271 C 
ATOM      3  N   UNL d   1      52.204  33.406  52.916  0.00  0.00    -0.254 N 
ATOM      4  N   UNL d   1      50.841  34.323  52.795  0.00  0.00    -0.269 N 
ATOM      5  N   UNL d   1      53.322  32.973  53.695  0.00  0.00    -0.253 N 
ATOM      6  O   UNL d   1      52.890  32.201  52.577  0.00  0.00    -0.245 OA
ATOM      7  C   UNL d   1      51.668  33.275  52.297  0.00  0.00     0.104 A 
ATOM      8  C   UNL d   1      52.060  34.018  53.467  0.00  0.00     0.104 A 
ATOM      9  C   UNL d   1      50.971  33.735  52.244  0.00  0.00     0.102 A 
ATOM     10  C   UNL d   1      51.380  34.481  53.406  0.00  0.00     0.102 A 
ATOM     11  O   UNL d   1      50.023  35.421  53.270  0.00  0.00    -0.266 OA
ATOM     12  O   UNL d   1      54.176  33.050  55.135  0.00  0.00    -0.300 OA
ATOM     13  C   UNL d   1      53.739  32.283  54.016  0.00  0.00     0.111 C 
ATOM     14  C   UNL d   1      53.051  33.486  54.352  0.00  0.00     0.111 C 
ATOM     15  C   UNL d   1      53.574  33.595  54.987  0.00  0.00     0.142 C 
ATOM     16  C   UNL d   1      54.253  32.393  54.643  0.00  0.00     0.142 C 
ENDROOT
BRANCH   2  17
ATOM     17  C   UNL d   1      49.624  34.677  52.104  0.00  0.00     0.086 A 
ATOM     18  S   UNL d   1      48.799  34.603  52.186  0.00  0.00    -0.082 SA
ATOM     19  C   UNL d   1      48.472  34.479  51.421  0.00  0.00     0.036 A 
ATOM     20  C   UNL d   1      49.100  34.472  50.875  0.00  0.00     0.008 A 
ATOM     21  C   UNL d   1      49.810  34.598  51.294  0.00  0.00     0.012 A 
ENDBRANCH   2  17
TORSDOF 1
ENDMDL
MODEL 9
REMARK VINA RESULT:      -5.3      9.865     11.501
REMARK  1 active torsions:
REMARK  status: ('A' for Active; 'I' for Inactive)
REMARK       I    between atoms: N_3  and  C_1 
REMARK       I    between atoms: N_5  and  C_1 
REMARK       I    between atoms: C_2  and  N_4 
REMARK    1  A    between atoms: C_6  and  C_2 
ROOT
ATOM      1  C   UNL d   1      45.084  26.399  57.111  0.00  0.00     0.340 C 
ATOM      2  C   UNL d   1      44.673  29.067  59.013  0.00  0.00     0.271 C 
ATOM      3  N   UNL d   1      45.081  27.056  57.611  0.00  0.00    -0.254 N 
ATOM      4  N   UNL d   1      44.791  28.392  58.531  0.00  0.00    -0.269 N 
ATOM      5  N   UNL d   1      44.925  25.649  57.415  0.00  0.00    -0.253 N 
ATOM      6  O   UNL d   1      45.246  26.491  56.310  0.00  0.00    -0.245 OA
ATOM      7  C   UNL d   1      45.212  27.813  57.299  0.00  0.00     0.104 A 
ATOM      8  C   UNL d   1      44.819  26.973  58.401  0.00  0.00     0.104 A 
ATOM      9  C   UNL d   1      45.054  28.490  57.764  0.00  0.00     0.102 A 
ATOM     10  C   UNL d   1      44.678  27.640  58.864  0.00  0.00     0.102 A 
ATOM     11  O   UNL d   1      44.412  28.981  59.800  0.00  0.00    -0.266 OA
ATOM     12  O   UNL d   1      44.323  24.186  57.970  0.00  0.00    -0.300 OA
ATOM     13  C   UNL d   1      44.644  25.035  56.870  0.00  0.00     0.111 C 
ATOM     14  C   UNL d   1      44.479  25.603  58.168  0.00  0.00     0.111 C 
ATOM     15  C   UNL d   1      44.320  24.845  58.467  0.00  0.00     0.142 C 
ATOM     16  C   UNL d   1      44.487  24.289  57.168  0.00  0.00     0.142 C 
ENDROOT
BRANCH   2  17
ATOM     17  C   UNL d   1      44.797  29.826  58.698  0.00  0.00     0.086 A 
ATOM     18  S   UNL d   1      44.314  30.208  58.138  0.00  0.00    -0.082 SA
ATOM     19  C   UNL d   1      44.643  30.967  57.988  0.00  0.00     0.036 A 
ATOM     20  C   UNL d   1      45.329  31.043  58.451  0.00  0.00     0.008 A 
ATOM     21  C   UNL d   1      45.423  30.342  58.893  0.00  0.00     0.012 A 
ENDBRANCH   2  17
TORSDOF 1
ENDMDL
