MODEL 1
REMARK VINA RESULT:      -9.2      0.000      0.000
REMARK  4 active torsions:
REMARK  status: ('A' for Active; 'I' for Inactive)
REMARK    1  A    between atoms: N_6  and  S_1 
REMARK    2  A    between atoms: C_10  and  S_1 
REMARK    3  A    between atoms: S_2  and  C_11 
REMARK    4  A    between atoms: N_7  and  S_2 
REMARK       I    between atoms: C_14  and  N_6 
REMARK       I    between atoms: C_15  and  N_7 
ROOT
ATOM      1  C   UNL d   1     -46.763  12.158  23.215  0.00  0.00     0.040 A 
ATOM      2  C   UNL d   1     -47.849  12.897  23.014  0.00  0.00     0.040 A 
ATOM      3  C   UNL d   1     -47.022  12.900  22.992  0.00  0.00     0.196 A 
ATOM      4  C   UNL d   1     -48.086  12.148  23.252  0.00  0.00     0.003 A 
ATOM      5  C   UNL d   1     -47.423  11.690  23.377  0.00  0.00     0.003 A 
ATOM      6  C   UNL d   1     -45.905  11.054  23.535  0.00  0.00     0.105 A 
ATOM      7  C   UNL d   1     -49.201  13.305  22.922  0.00  0.00     0.105 A 
ATOM      8  C   UNL d   1     -45.994  11.832  23.296  0.00  0.00     0.016 A 
ATOM      9  C   UNL d   1     -48.407  13.484  22.847  0.00  0.00     0.016 A 
ATOM     10  C   UNL d   1     -48.889  11.977  23.326  0.00  0.00     0.001 A 
ATOM     11  C   UNL d   1     -47.327  10.902  23.618  0.00  0.00     0.001 A 
ATOM     12  O   UNL d   1     -46.550  13.547  22.780  0.00  0.00    -0.287 OA
ATOM     13  C   UNL d   1     -49.452  12.557  23.160  0.00  0.00     0.013 A 
ATOM     14  C   UNL d   1     -46.565  10.582  23.698  0.00  0.00     0.013 A 
ENDROOT
BRANCH   6  15
ATOM     15  S   UNL d   1     -45.151  10.730  23.616  0.00  0.00     0.288 S 
ATOM     16  O   UNL d   1     -45.480   9.974  23.560  0.00  0.00    -0.198 OA
ATOM     17  O   UNL d   1     -44.811  11.483  23.674  0.00  0.00    -0.198 OA
BRANCH  15  18
ATOM     18  N   UNL d   1     -44.389  10.383  23.698  0.00  0.00    -0.118 NA
ATOM     19  C   UNL d   1     -43.757  10.676  23.254  0.00  0.00     0.289 C 
ATOM     20  O   UNL d   1     -43.876  11.312  22.729  0.00  0.00    -0.265 OA
ATOM     21  C   UNL d   1     -43.018  10.346  23.328  0.00  0.00     0.068 C 
ENDBRANCH  15  18
ENDBRANCH   6  15
BRANCH   7  22
ATOM     22  S   UNL d   1     -49.759  13.892  22.755  0.00  0.00     0.288 S 
ATOM     23  O   UNL d   1     -49.721  14.141  23.541  0.00  0.00    -0.198 OA
ATOM     24  O   UNL d   1     -49.798  13.643  21.968  0.00  0.00    -0.198 OA
BRANCH  22  25
ATOM     25  N   UNL d   1     -50.320  14.457  22.523  0.00  0.00    -0.118 NA
ATOM     26  C   UNL d   1     -50.302  15.211  22.851  0.00  0.00     0.289 C 
ATOM     27  O   UNL d   1     -50.864  15.773  22.617  0.00  0.00    -0.265 OA
ATOM     28  C   UNL d   1     -49.732  15.408  23.408  0.00  0.00     0.068 C 
ENDBRANCH  22  25
ENDBRANCH   7  22
TORSDOF 4
ENDMDL
MODEL 2
REMARK VINA RESULT:      -7.9      0.555      5.361
REMARK  4 active torsions:
REMARK  status: ('A' for Active; 'I' for Inactive)
REMARK    1  A    between atoms: N_6  and  S_1 
REMARK    2  A    between atoms: C_10  and  S_1 
REMARK    3  A    between atoms: S_2  and  C_11 
REMARK    4  A    between atoms: N_7  and  S_2 
REMARK       I    between atoms: C_14  and  N_6 
REMARK       I    between atoms: C_15  and  N_7 
ROOT
ATOM      1  C   UNL d   1     -47.794  13.036  23.174  0.00  0.00     0.040 A 
ATOM      2  C   UNL d   1     -46.682  12.316  23.283  0.00  0.00     0.040 A 
ATOM      3  C   UNL d   1     -46.980  13.070  23.114  0.00  0.00     0.196 A 
ATOM      4  C   UNL d   1     -47.323  11.829  23.444  0.00  0.00     0.003 A 
ATOM      5  C   UNL d   1     -48.008  12.266  23.378  0.00  0.00     0.003 A 
ATOM      6  C   UNL d   1     -49.177  13.416  23.166  0.00  0.00     0.105 A 
ATOM      7  C   UNL d   1     -45.795  11.235  23.495  0.00  0.00     0.105 A 
ATOM      8  C   UNL d   1     -48.390  13.617  23.067  0.00  0.00     0.016 A 
ATOM      9  C   UNL d   1     -45.910  12.021  23.307  0.00  0.00     0.016 A 
ATOM     10  C   UNL d   1     -47.198  11.036  23.633  0.00  0.00     0.001 A 
ATOM     11  C   UNL d   1     -48.808  12.067  23.478  0.00  0.00     0.001 A 
ATOM     12  O   UNL d   1     -46.524  13.733  22.921  0.00  0.00    -0.287 OA
ATOM     13  C   UNL d   1     -46.430  10.734  23.660  0.00  0.00     0.013 A 
ATOM     14  C   UNL d   1     -49.395  12.644  23.371  0.00  0.00     0.013 A 
ENDROOT
BRANCH   6  15
ATOM     15  S   UNL d   1     -49.766  13.984  23.062  0.00  0.00     0.288 S 
ATOM     16  O   UNL d   1     -49.321  14.320  22.452  0.00  0.00    -0.198 OA
ATOM     17  O   UNL d   1     -50.220  13.655  23.673  0.00  0.00    -0.198 OA
BRANCH  15  18
ATOM     18  N   UNL d   1     -50.357  14.570  22.943  0.00  0.00    -0.118 NA
ATOM     19  C   UNL d   1     -50.253  15.325  23.262  0.00  0.00     0.289 C 
ATOM     20  O   UNL d   1     -49.566  15.503  23.698  0.00  0.00    -0.265 OA
ATOM     21  C   UNL d   1     -50.820  15.897  23.150  0.00  0.00     0.068 C 
ENDBRANCH  15  18
ENDBRANCH   6  15
BRANCH   7  22
ATOM     22  S   UNL d   1     -45.023  10.940  23.520  0.00  0.00     0.288 S 
ATOM     23  O   UNL d   1     -44.738  11.694  23.343  0.00  0.00    -0.198 OA
ATOM     24  O   UNL d   1     -45.308  10.184  23.698  0.00  0.00    -0.198 OA
BRANCH  22  25
ATOM     25  N   UNL d   1     -44.275  10.582  23.560  0.00  0.00    -0.118 NA
ATOM     26  C   UNL d   1     -43.660  10.867  23.094  0.00  0.00     0.289 C 
ATOM     27  O   UNL d   1     -42.914  10.508  23.136  0.00  0.00    -0.265 OA
ATOM     28  C   UNL d   1     -43.781  11.503  22.589  0.00  0.00     0.068 C 
ENDBRANCH  22  25
ENDBRANCH   7  22
TORSDOF 4
ENDMDL
MODEL 3
REMARK VINA RESULT:      -7.1      1.579      5.467
REMARK  4 active torsions:
REMARK  status: ('A' for Active; 'I' for Inactive)
REMARK    1  A    between atoms: N_6  and  S_1 
REMARK    2  A    between atoms: C_10  and  S_1 
REMARK    3  A    between atoms: S_2  and  C_11 
REMARK    4  A    between atoms: N_7  and  S_2 
REMARK       I    between atoms: C_14  and  N_6 
REMARK       I    between atoms: C_15  and  N_7 
ROOT
ATOM      1  C   UNL d   1     -47.527  13.956  22.754  0.00  0.00     0.040 A 
ATOM      2  C   UNL d   1     -46.276  13.546  22.569  0.00  0.00     0.040 A 
ATOM      3  C   UNL d   1     -46.745  14.189  22.794  0.00  0.00     0.196 A 
ATOM      4  C   UNL d   1     -46.781  12.923  22.392  0.00  0.00     0.003 A 
ATOM      5  C   UNL d   1     -47.551  13.169  22.504  0.00  0.00     0.003 A 
ATOM      6  C   UNL d   1     -48.959  13.975  22.822  0.00  0.00     0.105 A 
ATOM      7  C   UNL d   1     -45.157  12.736  22.261  0.00  0.00     0.105 A 
ATOM      8  C   UNL d   1     -48.243  14.362  22.914  0.00  0.00     0.016 A 
ATOM      9  C   UNL d   1     -45.457  13.456  22.504  0.00  0.00     0.016 A 
ATOM     10  C   UNL d   1     -46.471  12.200  22.147  0.00  0.00     0.001 A 
ATOM     11  C   UNL d   1     -48.279  12.783  22.412  0.00  0.00     0.001 A 
ATOM     12  O   UNL d   1     -46.460  14.933  23.020  0.00  0.00    -0.287 OA
ATOM     13  C   UNL d   1     -45.654  12.102  22.081  0.00  0.00     0.013 A 
ATOM     14  C   UNL d   1     -48.987  13.187  22.572  0.00  0.00     0.013 A 
ENDROOT
BRANCH   6  15
ATOM     15  S   UNL d   1     -49.666  14.370  22.979  0.00  0.00     0.288 S 
ATOM     16  O   UNL d   1     -49.722  13.965  23.698  0.00  0.00    -0.198 OA
ATOM     17  O   UNL d   1     -49.619  14.782  22.261  0.00  0.00    -0.198 OA
BRANCH  15  18
ATOM     18  N   UNL d   1     -50.388  14.765  23.154  0.00  0.00    -0.118 NA
ATOM     19  C   UNL d   1     -50.370  15.533  23.457  0.00  0.00     0.289 C 
ATOM     20  O   UNL d   1     -49.641  15.914  23.587  0.00  0.00    -0.265 OA
ATOM     21  C   UNL d   1     -51.064  15.920  23.628  0.00  0.00     0.068 C 
ENDBRANCH  15  18
ENDBRANCH   6  15
BRANCH   7  22
ATOM     22  S   UNL d   1     -44.338  12.646  22.197  0.00  0.00     0.288 S 
ATOM     23  O   UNL d   1     -44.285  13.412  21.893  0.00  0.00    -0.198 OA
ATOM     24  O   UNL d   1     -44.389  11.879  22.501  0.00  0.00    -0.198 OA
BRANCH  22  25
ATOM     25  N   UNL d   1     -43.523  12.493  22.158  0.00  0.00    -0.118 NA
ATOM     26  C   UNL d   1     -43.095  12.722  21.495  0.00  0.00     0.289 C 
ATOM     27  O   UNL d   1     -42.281  12.568  21.459  0.00  0.00    -0.265 OA
ATOM     28  C   UNL d   1     -43.467  13.103  20.870  0.00  0.00     0.068 C 
ENDBRANCH  22  25
ENDBRANCH   7  22
TORSDOF 4
ENDMDL
MODEL 4
REMARK VINA RESULT:      -7.0      1.620      1.951
REMARK  4 active torsions:
REMARK  status: ('A' for Active; 'I' for Inactive)
REMARK    1  A    between atoms: N_6  and  S_1 
REMARK    2  A    between atoms: C_10  and  S_1 
REMARK    3  A    between atoms: S_2  and  C_11 
REMARK    4  A    between atoms: N_7  and  S_2 
REMARK       I    between atoms: C_14  and  N_6 
REMARK       I    between atoms: C_15  and  N_7 
ROOT
ATOM      1  C   UNL d   1     -46.110  13.552  22.442  0.00  0.00     0.040 A 
ATOM      2  C   UNL d   1     -47.307  14.021  22.780  0.00  0.00     0.040 A 
ATOM      3  C   UNL d   1     -46.561  14.232  22.491  0.00  0.00     0.196 A 
ATOM      4  C   UNL d   1     -47.302  13.209  22.905  0.00  0.00     0.003 A 
ATOM      5  C   UNL d   1     -46.569  12.916  22.700  0.00  0.00     0.003 A 
ATOM      6  C   UNL d   1     -45.012  12.661  22.205  0.00  0.00     0.105 A 
ATOM      7  C   UNL d   1     -48.647  14.089  23.229  0.00  0.00     0.105 A 
ATOM      8  C   UNL d   1     -45.320  13.419  22.192  0.00  0.00     0.016 A 
ATOM      9  C   UNL d   1     -47.983  14.468  22.942  0.00  0.00     0.016 A 
ATOM     10  C   UNL d   1     -47.977  12.834  23.196  0.00  0.00     0.001 A 
ATOM     11  C   UNL d   1     -46.252  12.150  22.711  0.00  0.00     0.001 A 
ATOM     12  O   UNL d   1     -46.326  14.999  22.290  0.00  0.00    -0.287 OA
ATOM     13  C   UNL d   1     -48.655  13.275  23.360  0.00  0.00     0.013 A 
ATOM     14  C   UNL d   1     -45.470  12.021  22.462  0.00  0.00     0.013 A 
ENDROOT
BRANCH   6  15
ATOM     15  S   UNL d   1     -44.237  12.525  21.960  0.00  0.00     0.288 S 
ATOM     16  O   UNL d   1     -44.075  12.179  22.693  0.00  0.00    -0.198 OA
ATOM     17  O   UNL d   1     -44.388  12.870  21.222  0.00  0.00    -0.198 OA
BRANCH  15  18
ATOM     18  N   UNL d   1     -43.442  12.380  21.726  0.00  0.00    -0.118 NA
ATOM     19  C   UNL d   1     -42.962  13.011  21.496  0.00  0.00     0.289 C 
ATOM     20  O   UNL d   1     -43.265  13.787  21.496  0.00  0.00    -0.265 OA
ATOM     21  C   UNL d   1     -42.193  12.878  21.268  0.00  0.00     0.068 C 
ENDBRANCH  15  18
ENDBRANCH   6  15
BRANCH   7  22
ATOM     22  S   UNL d   1     -49.323  14.537  23.391  0.00  0.00     0.288 S 
ATOM     23  O   UNL d   1     -49.774  13.846  23.381  0.00  0.00    -0.198 OA
ATOM     24  O   UNL d   1     -48.873  15.230  23.402  0.00  0.00    -0.198 OA
BRANCH  22  25
ATOM     25  N   UNL d   1     -49.962  15.042  23.554  0.00  0.00    -0.118 NA
ATOM     26  C   UNL d   1     -50.427  15.325  22.939  0.00  0.00     0.289 C 
ATOM     27  O   UNL d   1     -51.064  15.829  23.105  0.00  0.00    -0.265 OA
ATOM     28  C   UNL d   1     -50.265  15.112  22.162  0.00  0.00     0.068 C 
ENDBRANCH  22  25
ENDBRANCH   7  22
TORSDOF 4
ENDMDL
MODEL 5
REMARK VINA RESULT:      -6.2      1.961      2.529
REMARK  4 active torsions:
REMARK  status: ('A' for Active; 'I' for Inactive)
REMARK    1  A    between atoms: N_6  and  S_1 
REMARK    2  A    between atoms: C_10  and  S_1 
REMARK    3  A    between atoms: S_2  and  C_11 
REMARK    4  A    between atoms: N_7  and  S_2 
REMARK       I    between atoms: C_14  and  N_6 
REMARK       I    between atoms: C_15  and  N_7 
ROOT
ATOM      1  C   UNL d   1     -45.626  12.795  22.410  0.00  0.00     0.040 A 
ATOM      2  C   UNL d   1     -46.905  12.671  22.749  0.00  0.00     0.040 A 
ATOM      3  C   UNL d   1     -46.359  13.152  22.355  0.00  0.00     0.196 A 
ATOM      4  C   UNL d   1     -46.496  12.022  23.042  0.00  0.00     0.003 A 
ATOM      5  C   UNL d   1     -45.710  12.093  22.836  0.00  0.00     0.003 A 
ATOM      6  C   UNL d   1     -44.223  12.538  22.266  0.00  0.00     0.105 A 
ATOM      7  C   UNL d   1     -48.110  12.167  23.295  0.00  0.00     0.105 A 
ATOM      8  C   UNL d   1     -44.870  13.018  22.122  0.00  0.00     0.016 A 
ATOM      9  C   UNL d   1     -47.719  12.749  22.874  0.00  0.00     0.016 A 
ATOM     10  C   UNL d   1     -46.898  11.440  23.465  0.00  0.00     0.001 A 
ATOM     11  C   UNL d   1     -45.051  11.611  22.979  0.00  0.00     0.001 A 
ATOM     12  O   UNL d   1     -46.536  13.866  21.976  0.00  0.00    -0.287 OA
ATOM     13  C   UNL d   1     -47.711  11.511  23.594  0.00  0.00     0.013 A 
ATOM     14  C   UNL d   1     -44.303  11.834  22.693  0.00  0.00     0.013 A 
ENDROOT
BRANCH   6  15
ATOM     15  S   UNL d   1     -43.478  12.753  21.985  0.00  0.00     0.288 S 
ATOM     16  O   UNL d   1     -43.179  12.030  22.252  0.00  0.00    -0.198 OA
ATOM     17  O   UNL d   1     -43.768  13.480  21.713  0.00  0.00    -0.198 OA
BRANCH  15  18
ATOM     18  N   UNL d   1     -42.712  12.957  21.704  0.00  0.00    -0.118 NA
ATOM     19  C   UNL d   1     -42.558  12.945  20.893  0.00  0.00     0.289 C 
ATOM     20  O   UNL d   1     -43.160  12.732  20.357  0.00  0.00    -0.265 OA
ATOM     21  C   UNL d   1     -41.819  13.140  20.614  0.00  0.00     0.068 C 
ENDBRANCH  15  18
ENDBRANCH   6  15
BRANCH   7  22
ATOM     22  S   UNL d   1     -48.924  12.245  23.420  0.00  0.00     0.288 S 
ATOM     23  O   UNL d   1     -49.032  11.474  23.142  0.00  0.00    -0.198 OA
ATOM     24  O   UNL d   1     -48.817  13.015  23.698  0.00  0.00    -0.198 OA
BRANCH  22  25
ATOM     25  N   UNL d   1     -49.728  12.385  23.568  0.00  0.00    -0.118 NA
ATOM     26  C   UNL d   1     -50.260  12.418  22.942  0.00  0.00     0.289 C 
ATOM     27  O   UNL d   1     -51.063  12.558  23.094  0.00  0.00    -0.265 OA
ATOM     28  C   UNL d   1     -50.001  12.311  22.170  0.00  0.00     0.068 C 
ENDBRANCH  22  25
ENDBRANCH   7  22
TORSDOF 4
ENDMDL
