MODEL 1
REMARK VINA RESULT:      75.7      0.000      0.000
REMARK  4 active torsions:
REMARK  status: ('A' for Active; 'I' for Inactive)
REMARK    1  A    between atoms: C_4  and  C_1 
REMARK       I    between atoms: N_6  and  C_4 
REMARK    2  A    between atoms: C_9  and  N_6 
REMARK    3  A    between atoms: C_12  and  N_6 
REMARK    4  A    between atoms: C_17  and  C_12 
ROOT
ATOM      1  C   UNL d   1     -49.967  25.874  33.497  0.00  0.00     0.272 C 
ATOM      2  N   UNL d   1     -49.997  26.666  33.719  0.00  0.00    -0.258 N 
ATOM      3  O   UNL d   1     -49.251  25.519  33.329  0.00  0.00    -0.266 OA
ENDROOT
BRANCH   2   4
ATOM      4  C   UNL d   1     -50.729  27.037  33.892  0.00  0.00     0.150 A 
ATOM      5  N   UNL d   1     -51.084  27.515  33.309  0.00  0.00    -0.227 NA
ATOM      6  C   UNL d   1     -51.813  27.883  33.482  0.00  0.00     0.101 A 
ATOM      7  C   UNL d   1     -52.169  27.773  34.219  0.00  0.00     0.021 A 
ATOM      8  C   UNL d   1     -51.809  27.296  34.794  0.00  0.00     0.005 A 
ATOM      9  C   UNL d   1     -51.088  26.928  34.630  0.00  0.00     0.037 A 
ENDBRANCH   2   4
BRANCH   2  10
ATOM     10  C   UNL d   1     -49.296  27.115  33.776  0.00  0.00     0.084 C 
BRANCH  10  11
ATOM     11  C   UNL d   1     -49.067  27.437  34.497  0.00  0.00     0.018 A 
ATOM     12  C   UNL d   1     -49.026  26.960  35.169  0.00  0.00     0.002 A 
ATOM     13  C   UNL d   1     -48.796  27.285  35.888  0.00  0.00     0.000 A 
ATOM     14  C   UNL d   1     -48.608  28.083  35.940  0.00  0.00     0.000 A 
ATOM     15  C   UNL d   1     -48.649  28.567  35.259  0.00  0.00     0.000 A 
ATOM     16  C   UNL d   1     -48.880  28.234  34.545  0.00  0.00     0.002 A 
ENDBRANCH  10  11
ENDBRANCH   2  10
BRANCH   1  17
ATOM     17  C   UNL d   1     -50.674  25.442  33.445  0.00  0.00     0.132 A 
ATOM     18  C   UNL d   1     -50.646  24.616  33.482  0.00  0.00     0.272 A 
ATOM     19  N   UNL d   1     -51.345  24.171  33.432  0.00  0.00    -0.265 N 
ATOM     20  O   UNL d   1     -49.925  24.225  33.570  0.00  0.00    -0.266 OA
ATOM     21  C   UNL d   1     -51.490  23.366  33.451  0.00  0.00     0.123 A 
ATOM     22  C   UNL d   1     -52.066  24.563  33.344  0.00  0.00     0.181 A 
ATOM     23  C   UNL d   1     -52.297  23.247  33.377  0.00  0.00     0.043 A 
ATOM     24  S   UNL d   1     -52.663  23.992  33.309  0.00  0.00    -0.049 SA
ATOM     25  N   UNL d   1     -52.096  25.384  33.307  0.00  0.00    -0.220 NA
ATOM     26  C   UNL d   1     -51.399  25.826  33.357  0.00  0.00     0.111 A 
ENDBRANCH   1  17
TORSDOF 4
ENDMDL
MODEL 2
REMARK VINA RESULT:      76.4      2.030      4.104
REMARK  4 active torsions:
REMARK  status: ('A' for Active; 'I' for Inactive)
REMARK    1  A    between atoms: C_4  and  C_1 
REMARK       I    between atoms: N_6  and  C_4 
REMARK    2  A    between atoms: C_9  and  N_6 
REMARK    3  A    between atoms: C_12  and  N_6 
REMARK    4  A    between atoms: C_17  and  C_12 
ROOT
ATOM      1  C   UNL d   1     -52.060  25.940  34.690  0.00  0.00     0.272 C 
ATOM      2  N   UNL d   1     -51.795  25.939  33.910  0.00  0.00    -0.258 N 
ATOM      3  O   UNL d   1     -52.782  25.607  34.880  0.00  0.00    -0.266 OA
ENDROOT
BRANCH   2   4
ATOM      4  C   UNL d   1     -51.056  26.278  33.707  0.00  0.00     0.150 A 
ATOM      5  N   UNL d   1     -50.377  25.794  33.713  0.00  0.00    -0.227 NA
ATOM      6  C   UNL d   1     -49.642  26.132  33.512  0.00  0.00     0.101 A 
ATOM      7  C   UNL d   1     -49.593  26.931  33.311  0.00  0.00     0.021 A 
ATOM      8  C   UNL d   1     -50.273  27.407  33.307  0.00  0.00     0.005 A 
ATOM      9  C   UNL d   1     -51.004  27.080  33.506  0.00  0.00     0.037 A 
ENDBRANCH   2   4
BRANCH   2  10
ATOM     10  C   UNL d   1     -52.260  25.600  33.307  0.00  0.00     0.084 C 
BRANCH  10  11
ATOM     11  C   UNL d   1     -52.446  24.799  33.326  0.00  0.00     0.018 A 
ATOM     12  C   UNL d   1     -51.845  24.235  33.308  0.00  0.00     0.002 A 
ATOM     13  C   UNL d   1     -52.034  23.435  33.328  0.00  0.00     0.000 A 
ATOM     14  C   UNL d   1     -52.818  23.196  33.364  0.00  0.00     0.000 A 
ATOM     15  C   UNL d   1     -53.428  23.768  33.382  0.00  0.00     0.000 A 
ATOM     16  C   UNL d   1     -53.231  24.564  33.362  0.00  0.00     0.002 A 
ENDBRANCH  10  11
ENDBRANCH   2  10
BRANCH   1  17
ATOM     17  C   UNL d   1     -51.585  26.281  35.278  0.00  0.00     0.132 A 
ATOM     18  C   UNL d   1     -51.817  26.221  36.069  0.00  0.00     0.272 A 
ATOM     19  N   UNL d   1     -51.351  26.558  36.669  0.00  0.00    -0.265 N 
ATOM     20  O   UNL d   1     -52.513  25.828  36.273  0.00  0.00    -0.266 OA
ATOM     21  C   UNL d   1     -51.436  26.589  37.482  0.00  0.00     0.123 A 
ATOM     22  C   UNL d   1     -50.656  26.952  36.464  0.00  0.00     0.181 A 
ATOM     23  C   UNL d   1     -50.798  27.000  37.792  0.00  0.00     0.043 A 
ATOM     24  S   UNL d   1     -50.307  27.229  37.160  0.00  0.00    -0.049 SA
ATOM     25  N   UNL d   1     -50.423  27.012  35.677  0.00  0.00    -0.220 NA
ATOM     26  C   UNL d   1     -50.888  26.676  35.081  0.00  0.00     0.111 A 
ENDBRANCH   1  17
TORSDOF 4
ENDMDL
