MODEL 1
REMARK VINA RESULT:      -0.6      0.000      0.000
REMARK  4 active torsions:
REMARK  status: ('A' for Active; 'I' for Inactive)
REMARK    1  A    between atoms: N_2  and  C_1 
REMARK    2  A    between atoms: C_16  and  N_6 
REMARK    3  A    between atoms: C_14  and  C_7 
REMARK    4  A    between atoms: N_8  and  C_12 
ROOT
ATOM      1  N   UNL d   1      58.221  -0.597  29.760  0.00  0.00    -0.288 N 
ATOM      2  C   UNL d   1      58.717  -1.217  29.642  0.00  0.00     0.196 A 
ATOM      3  S   UNL d   1      58.776  -1.362  28.832  0.00  0.00    -0.092 SA
ATOM      4  C   UNL d   1      57.951  -0.331  29.038  0.00  0.00     0.268 A 
ATOM      5  C   UNL d   1      58.291  -0.800  28.460  0.00  0.00     0.093 A 
ATOM      6  O   UNL d   1      57.419   0.310  28.901  0.00  0.00    -0.266 OA
ENDROOT
BRANCH   1   7
ATOM      7  C   UNL d   1      58.053  -0.323  30.526  0.00  0.00     0.139 A 
ATOM      8  C   UNL d   1      57.336  -0.474  30.924  0.00  0.00     0.296 A 
ATOM      9  N   UNL d   1      57.374  -0.110  31.679  0.00  0.00    -0.209 N 
ATOM     10  O   UNL d   1      56.711  -0.917  30.591  0.00  0.00    -0.264 OA
ATOM     11  N   UNL d   1      58.101   0.258  31.745  0.00  0.00    -0.238 N 
ATOM     12  C   UNL d   1      58.524   0.127  31.031  0.00  0.00     0.102 A 
ATOM     13  C   UNL d   1      58.379   0.680  32.383  0.00  0.00     0.120 C 
ATOM     14  C   UNL d   1      59.284   0.406  30.871  0.00  0.00     0.022 C 
BRANCH   9  15
ATOM     15  C   UNL d   1      56.839  -0.073  32.301  0.00  0.00     0.085 A 
ATOM     16  C   UNL d   1      56.680  -0.719  32.760  0.00  0.00     0.019 A 
ATOM     17  C   UNL d   1      56.145  -0.682  33.382  0.00  0.00     0.002 A 
ATOM     18  C   UNL d   1      55.762   0.026  33.546  0.00  0.00     0.000 A 
ATOM     19  C   UNL d   1      55.916   0.678  33.093  0.00  0.00     0.002 A 
ATOM     20  C   UNL d   1      56.454   0.655  32.459  0.00  0.00     0.019 A 
ENDBRANCH   9  15
ENDBRANCH   1   7
BRANCH   2  21
ATOM     21  C   UNL d   1      59.236  -1.859  29.595  0.00  0.00    -0.001 A 
ATOM     22  C   UNL d   1      58.965  -2.629  29.761  0.00  0.00    -0.001 A 
ATOM     23  C   UNL d   1      59.491  -3.275  29.714  0.00  0.00     0.023 A 
ATOM     24  C   UNL d   1      60.275  -3.150  29.504  0.00  0.00     0.127 A 
ATOM     25  C   UNL d   1      60.544  -2.382  29.339  0.00  0.00     0.023 A 
ATOM     26  C   UNL d   1      60.017  -1.736  29.386  0.00  0.00    -0.001 A 
BRANCH  24  27
ATOM     27  N   UNL d   1      60.776  -3.791  29.462  0.00  0.00    -0.114 N 
ATOM     28  O   UNL d   1      61.095  -4.082  28.758  0.00  0.00    -0.532 OA
ATOM     29  O   UNL d   1      61.035  -4.237  30.103  0.00  0.00    -0.532 OA
ENDBRANCH  24  27
ENDBRANCH   2  21
TORSDOF 4
ENDMDL
MODEL 2
REMARK VINA RESULT:       1.1      1.742      4.896
REMARK  4 active torsions:
REMARK  status: ('A' for Active; 'I' for Inactive)
REMARK    1  A    between atoms: N_2  and  C_1 
REMARK    2  A    between atoms: C_16  and  N_6 
REMARK    3  A    between atoms: C_14  and  C_7 
REMARK    4  A    between atoms: N_8  and  C_12 
ROOT
ATOM      1  N   UNL d   1      58.526  -0.009  31.301  0.00  0.00    -0.288 N 
ATOM      2  C   UNL d   1      57.858   0.006  31.747  0.00  0.00     0.196 A 
ATOM      3  S   UNL d   1      58.008   0.435  32.435  0.00  0.00    -0.092 SA
ATOM      4  C   UNL d   1      59.113   0.405  31.685  0.00  0.00     0.268 A 
ATOM      5  C   UNL d   1      58.798   0.682  32.388  0.00  0.00     0.093 A 
ATOM      6  O   UNL d   1      59.904   0.531  31.418  0.00  0.00    -0.266 OA
ENDROOT
BRANCH   1   7
ATOM      7  C   UNL d   1      58.543  -0.404  30.570  0.00  0.00     0.139 A 
ATOM      8  C   UNL d   1      58.718  -1.215  30.488  0.00  0.00     0.296 A 
ATOM      9  N   UNL d   1      58.682  -1.410  29.673  0.00  0.00    -0.209 N 
ATOM     10  O   UNL d   1      58.895  -1.715  31.134  0.00  0.00    -0.264 OA
ATOM     11  N   UNL d   1      58.487  -0.731  29.260  0.00  0.00    -0.238 N 
ATOM     12  C   UNL d   1      58.401  -0.107  29.815  0.00  0.00     0.102 A 
ATOM     13  C   UNL d   1      58.391  -0.659  28.455  0.00  0.00     0.120 C 
ATOM     14  C   UNL d   1      58.206   0.673  29.626  0.00  0.00     0.022 C 
BRANCH   9  15
ATOM     15  C   UNL d   1      58.801  -2.115  29.267  0.00  0.00     0.085 A 
ATOM     16  C   UNL d   1      59.526  -2.311  28.968  0.00  0.00     0.019 A 
ATOM     17  C   UNL d   1      59.645  -3.016  28.563  0.00  0.00     0.002 A 
ATOM     18  C   UNL d   1      59.017  -3.534  28.455  0.00  0.00     0.000 A 
ATOM     19  C   UNL d   1      58.288  -3.344  28.751  0.00  0.00     0.002 A 
ATOM     20  C   UNL d   1      58.152  -2.635  29.164  0.00  0.00     0.019 A 
ENDBRANCH   9  15
ENDBRANCH   1   7
BRANCH   2  21
ATOM     21  C   UNL d   1      57.139  -0.021  32.152  0.00  0.00    -0.001 A 
ATOM     22  C   UNL d   1      56.663   0.662  32.204  0.00  0.00    -0.001 A 
ATOM     23  C   UNL d   1      55.936   0.633  32.613  0.00  0.00     0.023 A 
ATOM     24  C   UNL d   1      55.692  -0.068  32.965  0.00  0.00     0.127 A 
ATOM     25  C   UNL d   1      56.167  -0.746  32.913  0.00  0.00     0.023 A 
ATOM     26  C   UNL d   1      56.894  -0.717  32.503  0.00  0.00    -0.001 A 
BRANCH  24  27
ATOM     27  N   UNL d   1      54.980  -0.079  33.361  0.00  0.00    -0.114 N 
ATOM     28  O   UNL d   1      54.646  -0.760  33.688  0.00  0.00    -0.532 OA
ATOM     29  O   UNL d   1      54.497   0.572  33.493  0.00  0.00    -0.532 OA
ENDBRANCH  24  27
ENDBRANCH   2  21
TORSDOF 4
ENDMDL
