MODEL 1
REMARK VINA RESULT:      -3.7      0.000      0.000
REMARK  6 active torsions:
REMARK  status: ('A' for Active; 'I' for Inactive)
REMARK    1  A    between atoms: C_6  and  N_2 
REMARK    2  A    between atoms: C_7  and  C_6 
REMARK    3  A    between atoms: C_8  and  C_7 
REMARK       I    between atoms: N_13  and  C_8 
REMARK    4  A    between atoms: C_10  and  C_17 
REMARK    5  A    between atoms: C_14  and  N_13 
REMARK    6  A    between atoms: C_17  and  C_14 
ROOT
ATOM      1  C   UNL d   1      32.678  17.976 -23.183  0.00  0.00     0.082 C 
ENDROOT
BRANCH   1   2
ATOM      2  C   UNL d   1      32.266  17.672 -23.825  0.00  0.00     0.088 C 
BRANCH   2   3
ATOM      3  N   UNL d   1      31.984  16.898 -23.809  0.00  0.00    -0.268 N 
ATOM      4  C   UNL d   1      32.430  16.222 -23.667  0.00  0.00     0.296 A 
ATOM      5  S   UNL d   1      31.887  15.559 -23.709  0.00  0.00    -0.025 SA
ATOM      6  O   UNL d   1      33.241  16.201 -23.516  0.00  0.00    -0.259 OA
ATOM      7  C   UNL d   1      31.165  15.847 -23.867  0.00  0.00     0.050 A 
ATOM      8  C   UNL d   1      30.442  15.454 -23.965  0.00  0.00     0.008 A 
ATOM      9  C   UNL d   1      31.200  16.669 -23.933  0.00  0.00     0.073 A 
ATOM     10  C   UNL d   1      29.753  15.886 -24.130  0.00  0.00     0.001 A 
ATOM     11  C   UNL d   1      29.799  16.708 -24.194  0.00  0.00     0.002 A 
ATOM     12  C   UNL d   1      30.522  17.097 -24.095  0.00  0.00     0.018 A 
ENDBRANCH   2   3
ENDBRANCH   1   2
BRANCH   1  13
ATOM     13  C   UNL d   1      32.825  18.785 -23.125  0.00  0.00     0.281 C 
ATOM     14  O   UNL d   1      32.970  19.226 -23.809  0.00  0.00    -0.265 OA
ATOM     15  N   UNL d   1      32.829  19.158 -22.393  0.00  0.00    -0.206 NA
BRANCH  15  16
ATOM     16  C   UNL d   1      32.975  19.963 -22.338  0.00  0.00     0.102 C 
BRANCH  16  17
ATOM     17  C   UNL d   1      33.097  20.314 -21.605  0.00  0.00     0.021 C 
BRANCH  17  18
ATOM     18  C   UNL d   1      32.852  21.088 -21.465  0.00  0.00     0.002 A 
ATOM     19  C   UNL d   1      32.270  21.237 -20.885  0.00  0.00     0.000 A 
ATOM     20  C   UNL d   1      32.025  22.017 -20.746  0.00  0.00     0.000 A 
ATOM     21  C   UNL d   1      32.351  22.637 -21.173  0.00  0.00     0.000 A 
ATOM     22  C   UNL d   1      32.929  22.485 -21.748  0.00  0.00     0.000 A 
ATOM     23  C   UNL d   1      33.186  21.720 -21.902  0.00  0.00     0.000 A 
ENDBRANCH  17  18
ENDBRANCH  16  17
ENDBRANCH  15  16
ENDBRANCH   1  13
TORSDOF 6
ENDMDL
MODEL 2
REMARK VINA RESULT:      -3.0      2.094      5.867
REMARK  6 active torsions:
REMARK  status: ('A' for Active; 'I' for Inactive)
REMARK    1  A    between atoms: C_6  and  N_2 
REMARK    2  A    between atoms: C_7  and  C_6 
REMARK    3  A    between atoms: C_8  and  C_7 
REMARK       I    between atoms: N_13  and  C_8 
REMARK    4  A    between atoms: C_10  and  C_17 
REMARK    5  A    between atoms: C_14  and  N_13 
REMARK    6  A    between atoms: C_17  and  C_14 
ROOT
ATOM      1  C   UNL d   1      32.926  20.470 -22.538  0.00  0.00     0.082 C 
ENDROOT
BRANCH   1   2
ATOM      2  C   UNL d   1      33.240  20.959 -21.957  0.00  0.00     0.088 C 
BRANCH   2   3
ATOM      3  N   UNL d   1      33.065  21.763 -21.952  0.00  0.00    -0.268 N 
ATOM      4  C   UNL d   1      33.065  22.264 -22.605  0.00  0.00     0.296 A 
ATOM      5  S   UNL d   1      32.848  23.041 -22.315  0.00  0.00    -0.025 SA
ATOM      6  O   UNL d   1      33.241  22.046 -23.381  0.00  0.00    -0.259 OA
ATOM      7  C   UNL d   1      32.730  22.984 -21.533  0.00  0.00     0.050 A 
ATOM      8  C   UNL d   1      32.513  23.563 -20.981  0.00  0.00     0.008 A 
ATOM      9  C   UNL d   1      32.858  22.207 -21.287  0.00  0.00     0.073 A 
ATOM     10  C   UNL d   1      32.424  23.362 -20.181  0.00  0.00     0.001 A 
ATOM     11  C   UNL d   1      32.554  22.581 -19.946  0.00  0.00     0.002 A 
ATOM     12  C   UNL d   1      32.771  22.006 -20.499  0.00  0.00     0.018 A 
ENDBRANCH   2   3
ENDBRANCH   1   2
BRANCH   1  13
ATOM     13  C   UNL d   1      32.975  19.650 -22.466  0.00  0.00     0.281 C 
ATOM     14  O   UNL d   1      33.236  19.315 -21.758  0.00  0.00    -0.265 OA
ATOM     15  N   UNL d   1      32.766  19.163 -23.094  0.00  0.00    -0.206 NA
BRANCH  15  16
ATOM     16  C   UNL d   1      32.815  18.348 -23.020  0.00  0.00     0.102 C 
BRANCH  16  17
ATOM     17  C   UNL d   1      32.771  17.867 -23.685  0.00  0.00     0.021 C 
BRANCH  17  18
ATOM     18  C   UNL d   1      32.594  17.065 -23.612  0.00  0.00     0.002 A 
ATOM     19  C   UNL d   1      33.214  16.515 -23.515  0.00  0.00     0.000 A 
ATOM     20  C   UNL d   1      33.034  15.708 -23.442  0.00  0.00     0.000 A 
ATOM     21  C   UNL d   1      32.254  15.453 -23.464  0.00  0.00     0.000 A 
ATOM     22  C   UNL d   1      31.642  16.003 -23.561  0.00  0.00     0.000 A 
ATOM     23  C   UNL d   1      31.798  16.807 -23.636  0.00  0.00     0.000 A 
ENDBRANCH  17  18
ENDBRANCH  16  17
ENDBRANCH  15  16
ENDBRANCH   1  13
TORSDOF 6
ENDMDL
MODEL 3
REMARK VINA RESULT:      -2.8      1.442      1.989
REMARK  6 active torsions:
REMARK  status: ('A' for Active; 'I' for Inactive)
REMARK    1  A    between atoms: C_6  and  N_2 
REMARK    2  A    between atoms: C_7  and  C_6 
REMARK    3  A    between atoms: C_8  and  C_7 
REMARK       I    between atoms: N_13  and  C_8 
REMARK    4  A    between atoms: C_10  and  C_17 
REMARK    5  A    between atoms: C_14  and  N_13 
REMARK    6  A    between atoms: C_17  and  C_14 
ROOT
ATOM      1  C   UNL d   1      32.649  19.355 -22.793  0.00  0.00     0.082 C 
ENDROOT
BRANCH   1   2
ATOM      2  C   UNL d   1      33.091  18.711 -23.049  0.00  0.00     0.088 C 
BRANCH   2   3
ATOM      3  N   UNL d   1      32.891  18.321 -23.746  0.00  0.00    -0.268 N 
ATOM      4  C   UNL d   1      32.960  18.623 -24.508  0.00  0.00     0.296 A 
ATOM      5  S   UNL d   1      32.683  18.009 -25.039  0.00  0.00    -0.025 SA
ATOM      6  O   UNL d   1      33.241  19.372 -24.707  0.00  0.00    -0.259 OA
ATOM      7  C   UNL d   1      32.468  17.386 -24.598  0.00  0.00     0.050 A 
ATOM      8  C   UNL d   1      32.163  16.649 -24.825  0.00  0.00     0.008 A 
ATOM      9  C   UNL d   1      32.587  17.555 -23.799  0.00  0.00     0.073 A 
ATOM     10  C   UNL d   1      31.978  16.081 -24.249  0.00  0.00     0.001 A 
ATOM     11  C   UNL d   1      32.101  16.261 -23.452  0.00  0.00     0.002 A 
ATOM     12  C   UNL d   1      32.405  16.996 -23.230  0.00  0.00     0.018 A 
ENDBRANCH   2   3
ENDBRANCH   1   2
BRANCH   1  13
ATOM     13  C   UNL d   1      32.842  19.743 -22.092  0.00  0.00     0.281 C 
ATOM     14  O   UNL d   1      33.241  19.336 -21.494  0.00  0.00    -0.265 OA
ATOM     15  N   UNL d   1      32.641  20.532 -21.983  0.00  0.00    -0.206 NA
BRANCH  15  16
ATOM     16  C   UNL d   1      32.833  20.916 -21.285  0.00  0.00     0.102 C 
BRANCH  16  17
ATOM     17  C   UNL d   1      32.326  21.479 -20.966  0.00  0.00     0.021 C 
BRANCH  17  18
ATOM     18  C   UNL d   1      32.624  22.175 -20.640  0.00  0.00     0.002 A 
ATOM     19  C   UNL d   1      32.901  22.174 -19.853  0.00  0.00     0.000 A 
ATOM     20  C   UNL d   1      33.200  22.876 -19.526  0.00  0.00     0.000 A 
ATOM     21  C   UNL d   1      33.224  23.565 -19.973  0.00  0.00     0.000 A 
ATOM     22  C   UNL d   1      32.949  23.560 -20.754  0.00  0.00     0.000 A 
ATOM     23  C   UNL d   1      32.648  22.877 -21.098  0.00  0.00     0.000 A 
ENDBRANCH  17  18
ENDBRANCH  16  17
ENDBRANCH  15  16
ENDBRANCH   1  13
TORSDOF 6
ENDMDL
MODEL 4
REMARK VINA RESULT:      -2.2      2.665      6.203
REMARK  6 active torsions:
REMARK  status: ('A' for Active; 'I' for Inactive)
REMARK    1  A    between atoms: C_6  and  N_2 
REMARK    2  A    between atoms: C_7  and  C_6 
REMARK    3  A    between atoms: C_8  and  C_7 
REMARK       I    between atoms: N_13  and  C_8 
REMARK    4  A    between atoms: C_10  and  C_17 
REMARK    5  A    between atoms: C_14  and  N_13 
REMARK    6  A    between atoms: C_17  and  C_14 
ROOT
ATOM      1  C   UNL d   1      32.667  21.299 -21.436  0.00  0.00     0.082 C 
ENDROOT
BRANCH   1   2
ATOM      2  C   UNL d   1      33.089  21.990 -21.295  0.00  0.00     0.088 C 
BRANCH   2   3
ATOM      3  N   UNL d   1      32.748  22.604 -20.866  0.00  0.00    -0.268 N 
ATOM      4  C   UNL d   1      32.269  23.200 -21.168  0.00  0.00     0.296 A 
ATOM      5  S   UNL d   1      32.056  23.701 -20.506  0.00  0.00    -0.025 SA
ATOM      6  O   UNL d   1      32.046  23.286 -21.958  0.00  0.00    -0.259 OA
ATOM      7  C   UNL d   1      32.399  23.403 -19.856  0.00  0.00     0.050 A 
ATOM      8  C   UNL d   1      32.377  23.667 -19.071  0.00  0.00     0.008 A 
ATOM      9  C   UNL d   1      32.830  22.727 -20.053  0.00  0.00     0.073 A 
ATOM     10  C   UNL d   1      32.788  23.252 -18.481  0.00  0.00     0.001 A 
ATOM     11  C   UNL d   1      33.217  22.577 -18.690  0.00  0.00     0.002 A 
ATOM     12  C   UNL d   1      33.236  22.317 -19.474  0.00  0.00     0.018 A 
ENDBRANCH   2   3
ENDBRANCH   1   2
BRANCH   1  13
ATOM     13  C   UNL d   1      32.922  20.762 -22.008  0.00  0.00     0.281 C 
ATOM     14  O   UNL d   1      33.240  21.039 -22.718  0.00  0.00    -0.265 OA
ATOM     15  N   UNL d   1      32.862  19.953 -21.876  0.00  0.00    -0.206 NA
BRANCH  15  16
ATOM     16  C   UNL d   1      33.116  19.421 -22.445  0.00  0.00     0.102 C 
BRANCH  16  17
ATOM     17  C   UNL d   1      33.019  18.613 -22.331  0.00  0.00     0.021 C 
BRANCH  17  18
ATOM     18  C   UNL d   1      32.925  18.107 -22.976  0.00  0.00     0.002 A 
ATOM     19  C   UNL d   1      33.240  17.334 -22.940  0.00  0.00     0.000 A 
ATOM     20  C   UNL d   1      33.144  16.827 -23.590  0.00  0.00     0.000 A 
ATOM     21  C   UNL d   1      32.744  17.081 -24.260  0.00  0.00     0.000 A 
ATOM     22  C   UNL d   1      32.434  17.849 -24.290  0.00  0.00     0.000 A 
ATOM     23  C   UNL d   1      32.517  18.369 -23.658  0.00  0.00     0.000 A 
ENDBRANCH  17  18
ENDBRANCH  16  17
ENDBRANCH  15  16
ENDBRANCH   1  13
TORSDOF 6
ENDMDL
