MODEL 1
REMARK VINA RESULT:      -5.1      0.000      0.000
REMARK  1 active torsions:
REMARK  status: ('A' for Active; 'I' for Inactive)
REMARK    1  A    between atoms: C_13  and  N_3 
ROOT
ATOM      1  C   UNL d   1      58.126  -0.297  30.337  0.00  0.00     0.166 A 
ATOM      2  C   UNL d   1      57.937  -1.096  30.369  0.00  0.00     0.117 A 
ATOM      3  N   UNL d   1      58.674  -0.213  29.721  0.00  0.00    -0.289 N 
ATOM      4  C   UNL d   1      58.350  -1.492  29.797  0.00  0.00     0.038 A 
ATOM      5  N   UNL d   1      57.786   0.250  30.861  0.00  0.00    -0.225 NA
ATOM      6  C   UNL d   1      58.810  -0.942  29.393  0.00  0.00     0.067 A 
ATOM      7  N   UNL d   1      57.393  -1.333  30.945  0.00  0.00    -0.241 NA
ATOM      8  C   UNL d   1      57.256  -0.000  31.417  0.00  0.00     0.101 A 
ATOM      9  C   UNL d   1      57.062  -0.805  31.453  0.00  0.00     0.099 A 
ATOM     10  C   UNL d   1      59.297  -1.187  28.770  0.00  0.00     0.018 A 
ATOM     11  C   UNL d   1      58.379  -2.287  29.577  0.00  0.00     0.015 A 
ATOM     12  C   UNL d   1      58.862  -2.535  28.958  0.00  0.00     0.058 A 
ATOM     13  C   UNL d   1      59.322  -1.985  28.554  0.00  0.00     0.013 A 
ATOM     14 CL   UNL d   1      58.891  -3.330  28.738  0.00  0.00    -0.082 Cl
ATOM     15  C   UNL d   1      56.919   0.525  31.930  0.00  0.00     0.021 A 
ATOM     16  C   UNL d   1      56.526  -1.062  32.014  0.00  0.00     0.021 A 
ATOM     17  C   UNL d   1      56.371   0.246  32.502  0.00  0.00     0.002 A 
ATOM     18  C   UNL d   1      56.169  -0.534  32.553  0.00  0.00     0.002 A 
ENDROOT
BRANCH   3  19
ATOM     19  C   UNL d   1      59.014   0.484  29.491  0.00  0.00     0.082 C 
ATOM     20  C   UNL d   1      59.772   0.682  29.807  0.00  0.00     0.021 C 
ENDBRANCH   3  19
TORSDOF 1
ENDMDL
MODEL 2
REMARK VINA RESULT:      -3.5      1.175      2.012
REMARK  1 active torsions:
REMARK  status: ('A' for Active; 'I' for Inactive)
REMARK    1  A    between atoms: C_13  and  N_3 
ROOT
ATOM      1  C   UNL d   1      58.147  -1.035  30.173  0.00  0.00     0.166 A 
ATOM      2  C   UNL d   1      58.538  -0.313  30.204  0.00  0.00     0.117 A 
ATOM      3  N   UNL d   1      58.521  -1.476  29.580  0.00  0.00    -0.289 N 
ATOM      4  C   UNL d   1      59.130  -0.305  29.653  0.00  0.00     0.038 A 
ATOM      5  N   UNL d   1      57.509  -1.204  30.678  0.00  0.00    -0.225 NA
ATOM      6  C   UNL d   1      59.120  -1.030  29.264  0.00  0.00     0.067 A 
ATOM      7  N   UNL d   1      58.270   0.240  30.759  0.00  0.00    -0.241 NA
ATOM      8  C   UNL d   1      57.262  -0.653  31.213  0.00  0.00     0.101 A 
ATOM      9  C   UNL d   1      57.653   0.078  31.249  0.00  0.00     0.099 A 
ATOM     10  C   UNL d   1      59.669  -1.186  28.663  0.00  0.00     0.018 A 
ATOM     11  C   UNL d   1      59.689   0.264  29.441  0.00  0.00     0.015 A 
ATOM     12  C   UNL d   1      60.237   0.113  28.844  0.00  0.00     0.058 A 
ATOM     13  C   UNL d   1      60.227  -0.612  28.455  0.00  0.00     0.013 A 
ATOM     14 CL   UNL d   1      60.796   0.682  28.633  0.00  0.00    -0.082 Cl
ATOM     15  C   UNL d   1      56.643  -0.809  31.708  0.00  0.00     0.021 A 
ATOM     16  C   UNL d   1      57.405   0.638  31.789  0.00  0.00     0.021 A 
ATOM     17  C   UNL d   1      56.399  -0.223  32.259  0.00  0.00     0.002 A 
ATOM     18  C   UNL d   1      56.767   0.494  32.308  0.00  0.00     0.002 A 
ENDROOT
BRANCH   3  19
ATOM     19  C   UNL d   1      58.318  -2.226  29.358  0.00  0.00     0.082 C 
ATOM     20  C   UNL d   1      58.840  -2.858  29.563  0.00  0.00     0.021 C 
ENDBRANCH   3  19
TORSDOF 1
ENDMDL
MODEL 3
REMARK VINA RESULT:      -3.2      9.165      9.671
REMARK  1 active torsions:
REMARK  status: ('A' for Active; 'I' for Inactive)
REMARK    1  A    between atoms: C_13  and  N_3 
ROOT
ATOM      1  C   UNL d   1      59.321  -9.816  32.040  0.00  0.00     0.166 A 
ATOM      2  C   UNL d   1      58.742  -9.815  32.623  0.00  0.00     0.117 A 
ATOM      3  N   UNL d   1      60.049  -9.815  32.436  0.00  0.00    -0.289 N 
ATOM      4  C   UNL d   1      59.095  -9.814  33.352  0.00  0.00     0.038 A 
ATOM      5  N   UNL d   1      59.123  -9.817  31.233  0.00  0.00    -0.225 NA
ATOM      6  C   UNL d   1      59.909  -9.814  33.235  0.00  0.00     0.067 A 
ATOM      7  N   UNL d   1      57.953  -9.815  32.373  0.00  0.00    -0.241 NA
ATOM      8  C   UNL d   1      58.348  -9.817  31.009  0.00  0.00     0.101 A 
ATOM      9  C   UNL d   1      57.760  -9.816  31.593  0.00  0.00     0.099 A 
ATOM     10  C   UNL d   1      60.421  -9.814  33.886  0.00  0.00     0.018 A 
ATOM     11  C   UNL d   1      58.792  -9.813  34.119  0.00  0.00     0.015 A 
ATOM     12  C   UNL d   1      59.297  -9.812  34.770  0.00  0.00     0.058 A 
ATOM     13  C   UNL d   1      60.112  -9.813  34.654  0.00  0.00     0.013 A 
ATOM     14 CL   UNL d   1      58.995  -9.811  35.538  0.00  0.00    -0.082 Cl
ATOM     15  C   UNL d   1      58.146  -9.818  30.226  0.00  0.00     0.021 A 
ATOM     16  C   UNL d   1      56.974  -9.816  31.368  0.00  0.00     0.021 A 
ATOM     17  C   UNL d   1      57.335  -9.818  30.011  0.00  0.00     0.002 A 
ATOM     18  C   UNL d   1      56.747  -9.817  30.565  0.00  0.00     0.002 A 
ENDROOT
BRANCH   3  19
ATOM     19  C   UNL d   1      60.774  -9.816  32.079  0.00  0.00     0.082 C 
ATOM     20  C   UNL d   1      61.122  -9.072  31.882  0.00  0.00     0.021 C 
ENDBRANCH   3  19
TORSDOF 1
ENDMDL
MODEL 4
REMARK VINA RESULT:      -2.2      2.631      4.640
REMARK  1 active torsions:
REMARK  status: ('A' for Active; 'I' for Inactive)
REMARK    1  A    between atoms: C_13  and  N_3 
ROOT
ATOM      1  C   UNL d   1      57.478   0.656  32.871  0.00  0.00     0.166 A 
ATOM      2  C   UNL d   1      56.732   0.647  32.529  0.00  0.00     0.117 A 
ATOM      3  N   UNL d   1      57.357   0.669  33.691  0.00  0.00    -0.289 N 
ATOM      4  C   UNL d   1      56.169   0.655  33.111  0.00  0.00     0.038 A 
ATOM      5  N   UNL d   1      58.168   0.651  32.408  0.00  0.00    -0.225 NA
ATOM      6  C   UNL d   1      56.559   0.669  33.835  0.00  0.00     0.067 A 
ATOM      7  N   UNL d   1      56.695   0.633  31.702  0.00  0.00    -0.241 NA
ATOM      8  C   UNL d   1      58.112   0.636  31.603  0.00  0.00     0.101 A 
ATOM      9  C   UNL d   1      57.361   0.627  31.252  0.00  0.00     0.099 A 
ATOM     10  C   UNL d   1      56.124   0.679  34.540  0.00  0.00     0.018 A 
ATOM     11  C   UNL d   1      55.344   0.651  33.091  0.00  0.00     0.015 A 
ATOM     12  C   UNL d   1      54.907   0.662  33.789  0.00  0.00     0.058 A 
ATOM     13  C   UNL d   1      55.297   0.676  34.514  0.00  0.00     0.013 A 
ATOM     14 CL   UNL d   1      54.082   0.658  33.770  0.00  0.00    -0.082 Cl
ATOM     15  C   UNL d   1      58.777   0.631  31.144  0.00  0.00     0.021 A 
ATOM     16  C   UNL d   1      57.301   0.613  30.437  0.00  0.00     0.021 A 
ATOM     17  C   UNL d   1      58.699   0.616  30.308  0.00  0.00     0.002 A 
ATOM     18  C   UNL d   1      57.976   0.607  29.948  0.00  0.00     0.002 A 
ENDROOT
BRANCH   3  19
ATOM     19  C   UNL d   1      57.942   0.681  34.249  0.00  0.00     0.082 C 
ATOM     20  C   UNL d   1      57.717   0.666  35.063  0.00  0.00     0.021 C 
ENDBRANCH   3  19
TORSDOF 1
ENDMDL
MODEL 5
REMARK VINA RESULT:      -2.2      8.780      9.578
REMARK  1 active torsions:
REMARK  status: ('A' for Active; 'I' for Inactive)
REMARK    1  A    between atoms: C_13  and  N_3 
ROOT
ATOM      1  C   UNL d   1      59.036  -9.794  32.978  0.00  0.00     0.166 A 
ATOM      2  C   UNL d   1      59.833  -9.786  32.781  0.00  0.00     0.117 A 
ATOM      3  N   UNL d   1      58.620  -9.807  32.261  0.00  0.00    -0.289 N 
ATOM      4  C   UNL d   1      59.911  -9.794  31.976  0.00  0.00     0.038 A 
ATOM      5  N   UNL d   1      58.784  -9.788  33.770  0.00  0.00    -0.225 NA
ATOM      6  C   UNL d   1      59.155  -9.807  31.651  0.00  0.00     0.067 A 
ATOM      7  N   UNL d   1      60.377  -9.772  33.405  0.00  0.00    -0.241 NA
ATOM      8  C   UNL d   1      59.330  -9.774  34.365  0.00  0.00     0.101 A 
ATOM      9  C   UNL d   1      60.136  -9.767  34.172  0.00  0.00     0.099 A 
ATOM     10  C   UNL d   1      59.057  -9.818  30.829  0.00  0.00     0.018 A 
ATOM     11  C   UNL d   1      60.569  -9.792  31.478  0.00  0.00     0.015 A 
ATOM     12  C   UNL d   1      60.476  -9.803  30.659  0.00  0.00     0.058 A 
ATOM     13  C   UNL d   1      59.720  -9.815  30.334  0.00  0.00     0.013 A 
ATOM     14 CL   UNL d   1      61.133  -9.800  30.161  0.00  0.00    -0.082 Cl
ATOM     15  C   UNL d   1      59.095  -9.768  35.138  0.00  0.00     0.021 A 
ATOM     16  C   UNL d   1      60.690  -9.753  34.772  0.00  0.00     0.021 A 
ATOM     17  C   UNL d   1      59.676  -9.754  35.744  0.00  0.00     0.002 A 
ATOM     18  C   UNL d   1      60.466  -9.747  35.576  0.00  0.00     0.002 A 
ENDROOT
BRANCH   3  19
ATOM     19  C   UNL d   1      57.815  -9.817  32.189  0.00  0.00     0.082 C 
ATOM     20  C   UNL d   1      57.425  -9.101  31.970  0.00  0.00     0.021 C 
ENDBRANCH   3  19
TORSDOF 1
ENDMDL
