MODEL 1
REMARK VINA RESULT:      60.9      0.000      0.000
REMARK  3 active torsions:
REMARK  status: ('A' for Active; 'I' for Inactive)
REMARK    1  A    between atoms: C_12  and  C_3 
REMARK       I    between atoms: C_6  and  N_9 
REMARK    2  A    between atoms: C_7  and  C_6 
REMARK    3  A    between atoms: N_9  and  C_22 
ROOT
ATOM      1  C   UNL d   1      13.577  14.994  -4.668  0.00  0.00     0.019 A 
ATOM      2  C   UNL d   1      13.818  15.483  -4.049  0.00  0.00     0.003 A 
ATOM      3  C   UNL d   1      13.505  15.300  -5.432  0.00  0.00     0.003 A 
ATOM      4  C   UNL d   1      13.913  16.583  -4.955  0.00  0.00     0.085 A 
ATOM      5  C   UNL d   1      13.673  16.095  -5.575  0.00  0.00     0.019 A 
ATOM      6  C   UNL d   1      13.986  16.278  -4.192  0.00  0.00     0.019 A 
ENDROOT
BRANCH   4   7
ATOM      7  N   UNL d   1      14.080  17.374  -5.098  0.00  0.00    -0.208 NA
ATOM      8  C   UNL d   1      13.710  17.770  -5.710  0.00  0.00     0.279 C 
ATOM      9  O   UNL d   1      13.161  17.371  -6.193  0.00  0.00    -0.265 OA
BRANCH   8  10
ATOM     10  C   UNL d   1      13.878  18.565  -5.854  0.00  0.00     0.060 A 
ATOM     11  C   UNL d   1      14.593  18.886  -5.609  0.00  0.00     0.031 A 
ATOM     12  C   UNL d   1      14.761  19.681  -5.753  0.00  0.00     0.119 A 
ATOM     13  O   UNL d   1      15.424  20.144  -5.573  0.00  0.00    -0.300 OA
ATOM     14  C   UNL d   1      14.214  20.154  -6.141  0.00  0.00     0.119 A 
ATOM     15  C   UNL d   1      15.284  20.908  -5.851  0.00  0.00     0.304 A 
ATOM     16  O   UNL d   1      14.534  20.917  -6.204  0.00  0.00    -0.300 OA
ATOM     17  C   UNL d   1      13.494  19.834  -6.388  0.00  0.00     0.026 A 
ATOM     18  C   UNL d   1      13.326  19.039  -6.244  0.00  0.00     0.007 A 
ENDBRANCH   8  10
ENDBRANCH   4   7
BRANCH   1  19
ATOM     19  C   UNL d   1      13.409  14.199  -4.525  0.00  0.00     0.101 A 
ATOM     20  N   UNL d   1      13.260  13.605  -5.063  0.00  0.00    -0.221 NA
ATOM     21  C   UNL d   1      13.122  12.902  -4.639  0.00  0.00     0.179 A 
ATOM     22  N   UNL d   1      13.185  13.060  -3.850  0.00  0.00    -0.282 N 
ATOM     23  S   UNL d   1      12.945  12.105  -4.732  0.00  0.00    -0.048 SA
ATOM     24  C   UNL d   1      13.364  13.865  -3.767  0.00  0.00     0.101 A 
ATOM     25  C   UNL d   1      13.047  12.358  -3.445  0.00  0.00     0.089 A 
ATOM     26  C   UNL d   1      12.902  11.779  -3.977  0.00  0.00     0.057 A 
ENDBRANCH   1  19
TORSDOF 3
ENDMDL
