MODEL 1
REMARK VINA RESULT:       2.9      0.000      0.000
REMARK  9 active torsions:
REMARK  status: ('A' for Active; 'I' for Inactive)
REMARK    1  A    between atoms: S_10  and  C_2 
REMARK    2  A    between atoms: C_7  and  C_5 
REMARK    3  A    between atoms: C_9  and  C_6 
REMARK    4  A    between atoms: O_19  and  C_9 
REMARK    5  A    between atoms: C_17  and  S_10 
REMARK    6  A    between atoms: C_13  and  C_17 
REMARK    7  A    between atoms: O_20  and  C_14 
REMARK    8  A    between atoms: C_23  and  O_19 
REMARK    9  A    between atoms: C_24  and  O_20 
ROOT
ATOM      1  C   UNL d   1      57.739  -0.880  30.622  0.00  0.00     0.092 A 
ATOM      2  C   UNL d   1      57.352  -1.480  31.060  0.00  0.00     0.124 A 
ATOM      3  C   UNL d   1      58.015  -2.472  30.287  0.00  0.00     0.285 A 
ATOM      4  N   UNL d   1      57.495  -2.267  30.888  0.00  0.00    -0.201 NA
ATOM      5  C   UNL d   1      58.257  -1.083  30.023  0.00  0.00     0.023 A 
ATOM      6  C   UNL d   1      58.401  -1.873  29.849  0.00  0.00     0.122 A 
ATOM      7  C   UNL d   1      57.599  -0.096  30.791  0.00  0.00     0.103 C 
ATOM      8  N   UNL d   1      57.455   0.682  30.965  0.00  0.00    -0.191 NA
ATOM      9  O   UNL d   1      58.205  -3.319  30.059  0.00  0.00    -0.265 OA
ENDROOT
BRANCH   2  10
ATOM     10  S   UNL d   1      56.816  -1.204  31.680  0.00  0.00    -0.062 SA
BRANCH  10  11
ATOM     11  C   UNL d   1      56.336  -1.674  32.236  0.00  0.00     0.101 C 
BRANCH  11  12
ATOM     12  C   UNL d   1      55.924  -1.275  32.885  0.00  0.00     0.303 C 
ATOM     13  O   UNL d   1      55.836  -0.754  32.895  0.00  0.00    -0.263 OA
ATOM     14  N   UNL d   1      55.659  -1.821  33.534  0.00  0.00    -0.102 N 
ENDBRANCH  11  12
ENDBRANCH  10  11
ENDBRANCH   2  10
BRANCH   5  15
ATOM     15  C   UNL d   1      58.634  -0.499  29.595  0.00  0.00     0.024 A 
ATOM     16  C   UNL d   1      59.334  -0.174  29.877  0.00  0.00     0.100 A 
ATOM     17  C   UNL d   1      59.716   0.418  29.443  0.00  0.00     0.025 A 
ATOM     18  C   UNL d   1      59.395   0.681  28.732  0.00  0.00     0.002 A 
ATOM     19  C   UNL d   1      58.696   0.354  28.455  0.00  0.00     0.000 A 
ATOM     20  C   UNL d   1      58.313  -0.239  28.889  0.00  0.00     0.002 A 
BRANCH  16  21
ATOM     21  O   UNL d   1      59.670  -0.340  30.465  0.00  0.00    -0.305 OA
BRANCH  21  22
ATOM     22  C   UNL d   1      60.408   0.206  30.485  0.00  0.00     0.123 C 
ATOM     23  C   UNL d   1      60.980   0.089  31.395  0.00  0.00     0.029 C 
ENDBRANCH  21  22
ENDBRANCH  16  21
ENDBRANCH   5  15
BRANCH   6  24
ATOM     24  C   UNL d   1      58.924  -2.081  29.245  0.00  0.00     0.305 C 
ATOM     25  O   UNL d   1      58.964  -1.847  28.924  0.00  0.00    -0.259 OA
BRANCH  24  26
ATOM     26  O   UNL d   1      59.397  -2.776  29.250  0.00  0.00    -0.271 OA
BRANCH  26  27
ATOM     27  C   UNL d   1      59.613  -3.219  28.522  0.00  0.00     0.126 C 
ATOM     28  C   UNL d   1      60.463  -3.295  28.694  0.00  0.00     0.029 C 
ENDBRANCH  26  27
ENDBRANCH  24  26
ENDBRANCH   6  24
TORSDOF 9
ENDMDL
MODEL 2
REMARK VINA RESULT:       3.7      2.041      3.504
REMARK  9 active torsions:
REMARK  status: ('A' for Active; 'I' for Inactive)
REMARK    1  A    between atoms: S_10  and  C_2 
REMARK    2  A    between atoms: C_7  and  C_5 
REMARK    3  A    between atoms: C_9  and  C_6 
REMARK    4  A    between atoms: O_19  and  C_9 
REMARK    5  A    between atoms: C_17  and  S_10 
REMARK    6  A    between atoms: C_13  and  C_17 
REMARK    7  A    between atoms: O_20  and  C_14 
REMARK    8  A    between atoms: C_23  and  O_19 
REMARK    9  A    between atoms: C_24  and  O_20 
ROOT
ATOM      1  C   UNL d   1      59.644  -1.960  29.059  0.00  0.00     0.092 A 
ATOM      2  C   UNL d   1      59.113  -2.603  29.131  0.00  0.00     0.124 A 
ATOM      3  C   UNL d   1      58.128  -1.729  29.669  0.00  0.00     0.285 A 
ATOM      4  N   UNL d   1      58.363  -2.481  29.434  0.00  0.00    -0.201 NA
ATOM      5  C   UNL d   1      59.412  -1.211  29.293  0.00  0.00     0.023 A 
ATOM      6  C   UNL d   1      58.660  -1.087  29.598  0.00  0.00     0.122 A 
ATOM      7  C   UNL d   1      60.391  -2.080  28.757  0.00  0.00     0.103 C 
ATOM      8  N   UNL d   1      61.132  -2.206  28.456  0.00  0.00    -0.191 NA
ATOM      9  O   UNL d   1      57.319  -1.542  30.007  0.00  0.00    -0.265 OA
ENDROOT
BRANCH   2  10
ATOM     10  S   UNL d   1      59.414  -3.370  28.868  0.00  0.00    -0.062 SA
BRANCH  10  11
ATOM     11  C   UNL d   1      59.113  -4.167  29.052  0.00  0.00     0.101 C 
BRANCH  11  12
ATOM     12  C   UNL d   1      59.636  -4.852  28.957  0.00  0.00     0.303 C 
ATOM     13  O   UNL d   1      59.525  -5.259  28.639  0.00  0.00    -0.263 OA
ATOM     14  N   UNL d   1      60.378  -4.809  29.445  0.00  0.00    -0.102 N 
ENDBRANCH  11  12
ENDBRANCH  10  11
ENDBRANCH   2  10
BRANCH   5  15
ATOM     15  C   UNL d   1      59.931  -0.585  29.223  0.00  0.00     0.024 A 
ATOM     16  C   UNL d   1      60.509  -0.468  29.795  0.00  0.00     0.100 A 
ATOM     17  C   UNL d   1      61.035   0.167  29.724  0.00  0.00     0.025 A 
ATOM     18  C   UNL d   1      60.977   0.680  29.082  0.00  0.00     0.002 A 
ATOM     19  C   UNL d   1      60.398   0.559  28.514  0.00  0.00     0.000 A 
ATOM     20  C   UNL d   1      59.872  -0.076  28.585  0.00  0.00     0.002 A 
BRANCH  16  21
ATOM     21  O   UNL d   1      60.624  -0.854  30.364  0.00  0.00    -0.305 OA
BRANCH  21  22
ATOM     22  C   UNL d   1      61.065  -0.299  30.948  0.00  0.00     0.123 C 
ATOM     23  C   UNL d   1      61.115  -0.711  31.946  0.00  0.00     0.029 C 
ENDBRANCH  21  22
ENDBRANCH  16  21
ENDBRANCH   5  15
BRANCH   6  24
ATOM     24  C   UNL d   1      58.423  -0.333  29.834  0.00  0.00     0.305 C 
ATOM     25  O   UNL d   1      58.491  -0.017  29.598  0.00  0.00    -0.259 OA
BRANCH  24  26
ATOM     26  O   UNL d   1      58.034  -0.167  30.560  0.00  0.00    -0.271 OA
BRANCH  26  27
ATOM     27  C   UNL d   1      57.687   0.617  30.755  0.00  0.00     0.126 C 
ATOM     28  C   UNL d   1      57.719   0.534  31.621  0.00  0.00     0.029 C 
ENDBRANCH  26  27
ENDBRANCH  24  26
ENDBRANCH   6  24
TORSDOF 9
ENDMDL
