MODEL 1
REMARK VINA RESULT:      85.8      0.000      0.000
REMARK  3 active torsions:
REMARK  status: ('A' for Active; 'I' for Inactive)
REMARK    1  A    between atoms: S_3  and  N_1 
REMARK    2  A    between atoms: C_5  and  C_4 
REMARK    3  A    between atoms: C_11  and  C_6 
ROOT
ATOM      1  N   UNL d   1     -50.732  26.999  33.954  0.00  0.00    -0.155 N 
ATOM      2  N   UNL d   1     -51.012  26.311  33.620  0.00  0.00    -0.153 NA
ATOM      3  C   UNL d   1     -50.077  26.820  34.397  0.00  0.00     0.098 A 
ATOM      4  C   UNL d   1     -50.524  25.703  33.862  0.00  0.00     0.126 A 
ATOM      5  C   UNL d   1     -49.944  26.008  34.342  0.00  0.00     0.043 A 
ENDROOT
BRANCH   3   6
ATOM      6  C   UNL d   1     -49.621  27.353  34.830  0.00  0.00     0.047 A 
ATOM      7  C   UNL d   1     -49.684  27.377  35.653  0.00  0.00     0.140 A 
ATOM      8  N   UNL d   1     -49.225  27.912  36.086  0.00  0.00    -0.234 NA
ATOM      9 CL   UNL d   1     -50.203  26.868  36.042  0.00  0.00    -0.061 Cl
ATOM     10  C   UNL d   1     -48.705  28.422  35.698  0.00  0.00     0.082 A 
ATOM     11  C   UNL d   1     -48.643  28.398  34.874  0.00  0.00     0.018 A 
ATOM     12  C   UNL d   1     -48.249  28.955  36.130  0.00  0.00     0.019 A 
ATOM     13  C   UNL d   1     -49.100  27.864  34.442  0.00  0.00     0.005 A 
ATOM     14  C   UNL d   1     -48.123  28.907  34.486  0.00  0.00     0.002 A 
ATOM     15  C   UNL d   1     -47.687  29.418  34.918  0.00  0.00     0.000 A 
ATOM     16  C   UNL d   1     -47.750  29.442  35.741  0.00  0.00     0.002 A 
ATOM     17  C   UNL d   1     -47.167  29.928  34.529  0.00  0.00     0.000 C 
ENDBRANCH   3   6
BRANCH   1  18
ATOM     18  S   UNL d   1     -51.319  27.454  33.612  0.00  0.00     0.266 S 
ATOM     19  O   UNL d   1     -52.015  27.119  33.344  0.00  0.00    -0.203 OA
ATOM     20  O   UNL d   1     -51.027  28.226  33.625  0.00  0.00    -0.203 OA
ATOM     21  C   UNL d   1     -51.772  28.072  33.306  0.00  0.00     0.165 C 
ENDBRANCH   1  18
BRANCH   4  22
ATOM     22  C   UNL d   1     -50.603  24.919  33.657  0.00  0.00     0.119 A 
ATOM     23  O   UNL d   1     -50.015  24.364  33.576  0.00  0.00    -0.304 OA
ATOM     24  C   UNL d   1     -50.342  23.649  33.363  0.00  0.00     0.123 A 
ATOM     25  C   UNL d   1     -51.149  23.747  33.307  0.00  0.00     0.029 A 
ATOM     26  C   UNL d   1     -51.329  24.528  33.485  0.00  0.00     0.028 A 
ENDBRANCH   4  22
TORSDOF 3
ENDMDL
