MODEL 1
REMARK VINA RESULT:      -0.2      0.000      0.000
REMARK  3 active torsions:
REMARK  status: ('A' for Active; 'I' for Inactive)
REMARK    1  A    between atoms: C_11  and  C_6 
REMARK       I    between atoms: N_15  and  C_11 
REMARK    2  A    between atoms: C_23  and  N_15 
REMARK    3  A    between atoms: C_22  and  C_23 
ROOT
ATOM      1  C   UNL d   1     -41.712-122.566 -53.195  0.00  0.00     0.155 A 
ATOM      2  C   UNL d   1     -42.014-121.831 -52.966  0.00  0.00     0.091 A 
ATOM      3  N   UNL d   1     -41.704-122.774 -53.992  0.00  0.00    -0.210 NA
ATOM      4  N   UNL d   1     -42.293-121.521 -54.329  0.00  0.00    -0.258 N 
ATOM      5  N   UNL d   1     -41.424-123.084 -52.626  0.00  0.00    -0.272 N 
ATOM      6  C   UNL d   1     -41.732-122.143 -51.593  0.00  0.00     0.094 A 
ATOM      7  C   UNL d   1     -41.990-122.259 -54.550  0.00  0.00     0.152 A 
ATOM      8  C   UNL d   1     -42.305-121.306 -53.535  0.00  0.00     0.269 A 
ATOM      9  C   UNL d   1     -41.433-122.871 -51.820  0.00  0.00     0.175 A 
ATOM     10  C   UNL d   1     -42.025-121.616 -52.169  0.00  0.00     0.016 A 
ATOM     11  C   UNL d   1     -41.983-122.465 -55.351  0.00  0.00     0.035 A 
ATOM     12  C   UNL d   1     -42.585-120.997 -54.894  0.00  0.00     0.084 A 
ATOM     13  N   UNL d   1     -41.141-123.397 -51.248  0.00  0.00    -0.128 N 
ATOM     14  O   UNL d   1     -42.605-120.576 -53.307  0.00  0.00    -0.266 OA
ATOM     15  C   UNL d   1     -42.572-121.213 -55.685  0.00  0.00     0.019 A 
ATOM     16  C   UNL d   1     -42.270-121.949 -55.914  0.00  0.00     0.005 A 
ATOM     17  C   UNL d   1     -41.123-123.817 -52.854  0.00  0.00     0.102 C 
ATOM     18  C   UNL d   1     -41.683-123.198 -55.579  0.00  0.00     0.003 C 
ENDROOT
BRANCH   6  19
ATOM     19  C   UNL d   1     -41.742-121.929 -50.791  0.00  0.00     0.282 C 
ATOM     20  N   UNL d   1     -42.187-122.373 -50.257  0.00  0.00    -0.206 NA
ATOM     21  O   UNL d   1     -41.313-121.279 -50.533  0.00  0.00    -0.265 OA
BRANCH  20  22
ATOM     22  C   UNL d   1     -42.195-122.158 -49.463  0.00  0.00     0.104 C 
BRANCH  22  23
ATOM     23  C   UNL d   1     -42.463-122.699 -48.898  0.00  0.00     0.038 A 
ATOM     24  C   UNL d   1     -43.120-123.169 -49.064  0.00  0.00     0.101 A 
ATOM     25  N   UNL d   1     -43.390-123.709 -48.504  0.00  0.00    -0.242 NA
ATOM     26  C   UNL d   1     -43.004-123.778 -47.779  0.00  0.00     0.099 A 
ATOM     27  C   UNL d   1     -42.345-123.306 -47.613  0.00  0.00     0.021 A 
ATOM     28  C   UNL d   1     -42.078-122.767 -48.178  0.00  0.00     0.005 A 
ENDBRANCH  22  23
ENDBRANCH  20  22
ENDBRANCH   6  19
TORSDOF 3
ENDMDL
