MODEL 1
REMARK VINA RESULT:      74.3      0.000      0.000
REMARK  9 active torsions:
REMARK  status: ('A' for Active; 'I' for Inactive)
REMARK    1  A    between atoms: C_12  and  C_1 
REMARK       I    between atoms: C_4  and  N_11 
REMARK    2  A    between atoms: C_5  and  C_4 
REMARK    3  A    between atoms: O_18  and  C_6 
REMARK    4  A    between atoms: O_19  and  C_7 
REMARK    5  A    between atoms: O_20  and  C_8 
REMARK    6  A    between atoms: N_11  and  C_15 
REMARK    7  A    between atoms: C_26  and  O_18 
REMARK    8  A    between atoms: C_28  and  O_19 
REMARK    9  A    between atoms: C_27  and  O_20 
ROOT
ATOM      1  C   UNL d   1      14.636  15.925  -3.955  0.00  0.00     0.279 C 
ATOM      2  N   UNL d   1      13.989  16.360  -4.234  0.00  0.00    -0.208 NA
ATOM      3  O   UNL d   1      15.335  15.896  -4.392  0.00  0.00    -0.265 OA
ENDROOT
BRANCH   1   4
ATOM      4  C   UNL d   1      14.580  15.521  -3.241  0.00  0.00     0.062 A 
ATOM      5  C   UNL d   1      14.730  15.916  -2.531  0.00  0.00     0.032 A 
ATOM      6  C   UNL d   1      14.673  15.513  -1.817  0.00  0.00     0.125 A 
ATOM      7  C   UNL d   1      14.467  14.714  -1.809  0.00  0.00     0.145 A 
ATOM      8  C   UNL d   1      14.319  14.322  -2.514  0.00  0.00     0.125 A 
ATOM      9  C   UNL d   1      14.375  14.725  -3.223  0.00  0.00     0.032 A 
BRANCH   6  10
ATOM     10  O   UNL d   1      14.824  15.911  -1.103  0.00  0.00    -0.303 OA
BRANCH  10  11
ATOM     11  C   UNL d   1      15.133  16.680  -1.121  0.00  0.00     0.123 C 
ATOM     12  C   UNL d   1      15.259  17.088  -0.407  0.00  0.00     0.029 C 
ENDBRANCH  10  11
ENDBRANCH   6  10
BRANCH   7  13
ATOM     13  O   UNL d   1      14.411  14.310  -1.090  0.00  0.00    -0.301 OA
BRANCH  13  14
ATOM     14  C   UNL d   1      15.046  13.860  -0.823  0.00  0.00     0.123 C 
ATOM     15  C   UNL d   1      15.087  13.638  -0.028  0.00  0.00     0.029 C 
ENDBRANCH  13  14
ENDBRANCH   7  13
BRANCH   8  16
ATOM     16  O   UNL d   1      14.111  13.516  -2.506  0.00  0.00    -0.303 OA
BRANCH  16  17
ATOM     17  C   UNL d   1      13.701  13.194  -3.148  0.00  0.00     0.123 C 
ATOM     18  C   UNL d   1      13.937  12.461  -3.457  0.00  0.00     0.029 C 
ENDBRANCH  16  17
ENDBRANCH   8  16
ENDBRANCH   1   4
BRANCH   2  19
ATOM     19  C   UNL d   1      14.041  16.771  -4.957  0.00  0.00     0.085 A 
ATOM     20  C   UNL d   1      14.159  17.591  -4.951  0.00  0.00     0.022 A 
ATOM     21  C   UNL d   1      14.211  18.000  -5.662  0.00  0.00     0.037 A 
ATOM     22  C   UNL d   1      14.146  17.599  -6.382  0.00  0.00     0.003 A 
ATOM     23  C   UNL d   1      14.029  16.778  -6.383  0.00  0.00     0.002 A 
ATOM     24  C   UNL d   1      13.976  16.365  -5.677  0.00  0.00     0.019 A 
BRANCH  21  25
ATOM     25  C   UNL d   1      14.328  18.817  -5.662  0.00  0.00     0.162 A 
ATOM     26  N   UNL d   1      13.821  19.445  -5.494  0.00  0.00    -0.225 NA
ATOM     27  C   UNL d   1      14.247  20.146  -5.584  0.00  0.00     0.101 A 
ATOM     28  C   UNL d   1      14.031  20.941  -5.491  0.00  0.00     0.021 A 
ATOM     29  C   UNL d   1      15.008  19.946  -5.806  0.00  0.00     0.101 A 
ATOM     30  C   UNL d   1      14.590  21.527  -5.624  0.00  0.00     0.002 A 
ATOM     31  C   UNL d   1      15.364  21.323  -5.849  0.00  0.00     0.002 A 
ATOM     32  C   UNL d   1      15.571  20.540  -5.939  0.00  0.00     0.021 A 
ATOM     33  N   UNL d   1      15.060  19.127  -5.854  0.00  0.00    -0.225 NA
ENDBRANCH  21  25
ENDBRANCH   2  19
TORSDOF 9
ENDMDL
MODEL 2
REMARK VINA RESULT:      75.4      1.849      6.098
REMARK  9 active torsions:
REMARK  status: ('A' for Active; 'I' for Inactive)
REMARK    1  A    between atoms: C_12  and  C_1 
REMARK       I    between atoms: C_4  and  N_11 
REMARK    2  A    between atoms: C_5  and  C_4 
REMARK    3  A    between atoms: O_18  and  C_6 
REMARK    4  A    between atoms: O_19  and  C_7 
REMARK    5  A    between atoms: O_20  and  C_8 
REMARK    6  A    between atoms: N_11  and  C_15 
REMARK    7  A    between atoms: C_26  and  O_18 
REMARK    8  A    between atoms: C_28  and  O_19 
REMARK    9  A    between atoms: C_27  and  O_20 
ROOT
ATOM      1  C   UNL d   1      15.047  16.606  -3.348  0.00  0.00     0.279 C 
ATOM      2  N   UNL d   1      14.517  16.517  -2.718  0.00  0.00    -0.208 NA
ATOM      3  O   UNL d   1      15.852  16.470  -3.234  0.00  0.00    -0.265 OA
ENDROOT
BRANCH   1   4
ATOM      4  C   UNL d   1      14.767  16.829  -4.088  0.00  0.00     0.062 A 
ATOM      5  C   UNL d   1      14.885  17.601  -4.358  0.00  0.00     0.032 A 
ATOM      6  C   UNL d   1      14.605  17.824  -5.098  0.00  0.00     0.125 A 
ATOM      7  C   UNL d   1      14.207  17.279  -5.571  0.00  0.00     0.145 A 
ATOM      8  C   UNL d   1      14.091  16.512  -5.303  0.00  0.00     0.125 A 
ATOM      9  C   UNL d   1      14.370  16.292  -4.567  0.00  0.00     0.032 A 
BRANCH   6  10
ATOM     10  O   UNL d   1      14.724  18.601  -5.369  0.00  0.00    -0.303 OA
BRANCH  10  11
ATOM     11  C   UNL d   1      14.862  19.209  -4.821  0.00  0.00     0.123 C 
ATOM     12  C   UNL d   1      15.360  19.842  -5.028  0.00  0.00     0.029 C 
ENDBRANCH  10  11
ENDBRANCH   6  10
BRANCH   7  13
ATOM     13  O   UNL d   1      13.927  17.505  -6.315  0.00  0.00    -0.301 OA
BRANCH  13  14
ATOM     14  C   UNL d   1      13.179  17.839  -6.386  0.00  0.00     0.123 C 
ATOM     15  C   UNL d   1      12.996  18.531  -5.974  0.00  0.00     0.029 C 
ENDBRANCH  13  14
ENDBRANCH   7  13
BRANCH   8  16
ATOM     16  O   UNL d   1      13.689  15.961  -5.781  0.00  0.00    -0.303 OA
BRANCH  16  17
ATOM     17  C   UNL d   1      13.554  15.197  -5.497  0.00  0.00     0.123 C 
ATOM     18  C   UNL d   1      12.793  14.981  -5.248  0.00  0.00     0.029 C 
ENDBRANCH  16  17
ENDBRANCH   8  16
ENDBRANCH   1   4
BRANCH   2  19
ATOM     19  C   UNL d   1      14.795  16.290  -1.965  0.00  0.00     0.085 A 
ATOM     20  C   UNL d   1      14.755  15.494  -1.740  0.00  0.00     0.022 A 
ATOM     21  C   UNL d   1      15.029  15.266  -0.999  0.00  0.00     0.037 A 
ATOM     22  C   UNL d   1      15.343  15.826  -0.479  0.00  0.00     0.003 A 
ATOM     23  C   UNL d   1      15.382  16.622  -0.709  0.00  0.00     0.002 A 
ATOM     24  C   UNL d   1      15.110  16.855  -1.446  0.00  0.00     0.019 A 
BRANCH  21  25
ATOM     25  C   UNL d   1      14.991  14.474  -0.770  0.00  0.00     0.162 A 
ATOM     26  N   UNL d   1      15.579  13.916  -0.622  0.00  0.00    -0.225 NA
ATOM     27  C   UNL d   1      15.210  13.209  -0.410  0.00  0.00     0.101 A 
ATOM     28  C   UNL d   1      15.514  12.467  -0.203  0.00  0.00     0.021 A 
ATOM     29  C   UNL d   1      14.402  13.336  -0.428  0.00  0.00     0.101 A 
ATOM     30  C   UNL d   1      14.996  11.858  -0.015  0.00  0.00     0.002 A 
ATOM     31  C   UNL d   1      14.175  11.988  -0.034  0.00  0.00     0.002 A 
ATOM     32  C   UNL d   1      13.881  12.720  -0.238  0.00  0.00     0.021 A 
ATOM     33  N   UNL d   1      14.266  14.116  -0.650  0.00  0.00    -0.225 NA
ENDBRANCH  21  25
ENDBRANCH   2  19
TORSDOF 9
ENDMDL
MODEL 3
REMARK VINA RESULT:      76.3      1.947      6.437
REMARK  9 active torsions:
REMARK  status: ('A' for Active; 'I' for Inactive)
REMARK    1  A    between atoms: C_12  and  C_1 
REMARK       I    between atoms: C_4  and  N_11 
REMARK    2  A    between atoms: C_5  and  C_4 
REMARK    3  A    between atoms: O_18  and  C_6 
REMARK    4  A    between atoms: O_19  and  C_7 
REMARK    5  A    between atoms: O_20  and  C_8 
REMARK    6  A    between atoms: N_11  and  C_15 
REMARK    7  A    between atoms: C_26  and  O_18 
REMARK    8  A    between atoms: C_28  and  O_19 
REMARK    9  A    between atoms: C_27  and  O_20 
ROOT
ATOM      1  C   UNL d   1      15.246  17.076  -3.157  0.00  0.00     0.279 C 
ATOM      2  N   UNL d   1      14.737  16.674  -2.641  0.00  0.00    -0.208 NA
ATOM      3  O   UNL d   1      16.020  17.242  -2.928  0.00  0.00    -0.265 OA
ENDROOT
BRANCH   1   4
ATOM      4  C   UNL d   1      14.975  17.308  -3.898  0.00  0.00     0.062 A 
ATOM      5  C   UNL d   1      14.539  16.781  -4.362  0.00  0.00     0.032 A 
ATOM      6  C   UNL d   1      14.269  17.014  -5.102  0.00  0.00     0.125 A 
ATOM      7  C   UNL d   1      14.432  17.771  -5.384  0.00  0.00     0.145 A 
ATOM      8  C   UNL d   1      14.866  18.294  -4.923  0.00  0.00     0.125 A 
ATOM      9  C   UNL d   1      15.134  18.061  -4.186  0.00  0.00     0.032 A 
BRANCH   6  10
ATOM     10  O   UNL d   1      13.830  16.483  -5.569  0.00  0.00    -0.303 OA
BRANCH  10  11
ATOM     11  C   UNL d   1      13.384  15.888  -5.201  0.00  0.00     0.123 C 
ATOM     12  C   UNL d   1      13.278  15.159  -5.587  0.00  0.00     0.029 C 
ENDBRANCH  10  11
ENDBRANCH   6  10
BRANCH   7  13
ATOM     13  O   UNL d   1      14.160  18.003  -6.129  0.00  0.00    -0.301 OA
BRANCH  13  14
ATOM     14  C   UNL d   1      13.801  18.737  -6.223  0.00  0.00     0.123 C 
ATOM     15  C   UNL d   1      12.993  18.782  -6.385  0.00  0.00     0.029 C 
ENDBRANCH  13  14
ENDBRANCH   7  13
BRANCH   8  16
ATOM     16  O   UNL d   1      15.032  19.060  -5.206  0.00  0.00    -0.303 OA
BRANCH  16  17
ATOM     17  C   UNL d   1      14.700  19.715  -4.828  0.00  0.00     0.123 C 
ATOM     18  C   UNL d   1      14.260  20.263  -5.270  0.00  0.00     0.029 C 
ENDBRANCH  16  17
ENDBRANCH   8  16
ENDBRANCH   1   4
BRANCH   2  19
ATOM     19  C   UNL d   1      15.006  16.436  -1.889  0.00  0.00     0.085 A 
ATOM     20  C   UNL d   1      14.987  15.633  -1.686  0.00  0.00     0.022 A 
ATOM     21  C   UNL d   1      15.252  15.395  -0.945  0.00  0.00     0.037 A 
ATOM     22  C   UNL d   1      15.536  15.950  -0.403  0.00  0.00     0.003 A 
ATOM     23  C   UNL d   1      15.553  16.753  -0.611  0.00  0.00     0.002 A 
ATOM     24  C   UNL d   1      15.290  16.996  -1.348  0.00  0.00     0.019 A 
BRANCH  21  25
ATOM     25  C   UNL d   1      15.235  14.596  -0.737  0.00  0.00     0.162 A 
ATOM     26  N   UNL d   1      15.836  14.038  -0.650  0.00  0.00    -0.225 NA
ATOM     27  C   UNL d   1      15.488  13.322  -0.433  0.00  0.00     0.101 A 
ATOM     28  C   UNL d   1      15.810  12.576  -0.271  0.00  0.00     0.021 A 
ATOM     29  C   UNL d   1      14.680  13.444  -0.388  0.00  0.00     0.101 A 
ATOM     30  C   UNL d   1      15.310  11.958  -0.065  0.00  0.00     0.002 A 
ATOM     31  C   UNL d   1      14.489  12.082  -0.019  0.00  0.00     0.002 A 
ATOM     32  C   UNL d   1      14.177  12.818  -0.180  0.00  0.00     0.021 A 
ATOM     33  N   UNL d   1      14.523  14.228  -0.576  0.00  0.00    -0.225 NA
ENDBRANCH  21  25
ENDBRANCH   2  19
TORSDOF 9
ENDMDL
