MODEL 1
REMARK VINA RESULT:      -1.1      0.000      0.000
REMARK  4 active torsions:
REMARK  status: ('A' for Active; 'I' for Inactive)
REMARK    1  A    between atoms: C_3  and  N_1 
REMARK    2  A    between atoms: C_6  and  C_3 
REMARK    3  A    between atoms: C_9  and  C_3 
REMARK    4  A    between atoms: N_5  and  C_6 
ROOT
ATOM      1  C   UNL d   1      32.274  17.889 -23.979  0.00  0.00     0.106 C 
ENDROOT
BRANCH   1   2
ATOM      2  N   UNL d   1      32.592  17.151 -23.748  0.00  0.00    -0.228 N 
ATOM      3  N   UNL d   1      32.589  16.743 -23.026  0.00  0.00    -0.165 NA
ATOM      4  C   UNL d   1      32.990  16.048 -23.147  0.00  0.00     0.103 A 
ATOM      5  C   UNL d   1      33.128  15.453 -22.565  0.00  0.00     0.022 C 
ATOM      6  C   UNL d   1      33.241  16.009 -23.911  0.00  0.00     0.040 A 
ATOM      7  C   UNL d   1      32.999  16.691 -24.298  0.00  0.00     0.085 A 
ATOM      8  C   UNL d   1      33.133  16.891 -25.097  0.00  0.00     0.021 C 
ENDBRANCH   1   2
BRANCH   1   9
ATOM      9  C   UNL d   1      31.720  17.924 -24.590  0.00  0.00     0.167 C 
BRANCH   9  10
ATOM     10  N   UNL d   1      30.912  17.899 -24.423  0.00  0.00    -0.111 N 
ATOM     11  O   UNL d   1      30.612  17.347 -23.888  0.00  0.00    -0.532 OA
ATOM     12  O   UNL d   1      30.394  18.436 -24.800  0.00  0.00    -0.532 OA
ENDBRANCH   9  10
ENDBRANCH   1   9
BRANCH   1  13
ATOM     13  C   UNL d   1      32.522  18.608 -23.583  0.00  0.00     0.019 A 
ATOM     14  C   UNL d   1      32.948  19.177 -23.991  0.00  0.00     0.002 A 
ATOM     15  C   UNL d   1      33.184  19.866 -23.605  0.00  0.00     0.000 A 
ATOM     16  C   UNL d   1      32.995  19.988 -22.811  0.00  0.00     0.000 A 
ATOM     17  C   UNL d   1      32.570  19.420 -22.403  0.00  0.00     0.000 A 
ATOM     18  C   UNL d   1      33.241  20.699 -22.419  0.00  0.00     0.000 C 
ATOM     19  C   UNL d   1      32.334  18.730 -22.789  0.00  0.00     0.002 A 
ENDBRANCH   1  13
TORSDOF 4
ENDMDL
MODEL 2
REMARK VINA RESULT:       0.6      1.010      2.990
REMARK  4 active torsions:
REMARK  status: ('A' for Active; 'I' for Inactive)
REMARK    1  A    between atoms: C_3  and  N_1 
REMARK    2  A    between atoms: C_6  and  C_3 
REMARK    3  A    between atoms: C_9  and  C_3 
REMARK    4  A    between atoms: N_5  and  C_6 
ROOT
ATOM      1  C   UNL d   1      32.073  18.535 -24.081  0.00  0.00     0.106 C 
ENDROOT
BRANCH   1   2
ATOM      2  N   UNL d   1      32.470  19.031 -23.538  0.00  0.00    -0.228 N 
ATOM      3  N   UNL d   1      32.555  19.001 -22.713  0.00  0.00    -0.165 NA
ATOM      4  C   UNL d   1      33.006  19.643 -22.501  0.00  0.00     0.103 A 
ATOM      5  C   UNL d   1      33.237  19.841 -21.714  0.00  0.00     0.022 C 
ATOM      6  C   UNL d   1      33.202  20.067 -23.157  0.00  0.00     0.040 A 
ATOM      7  C   UNL d   1      32.874  19.696 -23.812  0.00  0.00     0.085 A 
ATOM      8  C   UNL d   1      32.931  19.938 -24.608  0.00  0.00     0.021 C 
ENDBRANCH   1   2
BRANCH   1   9
ATOM      9  C   UNL d   1      31.393  18.805 -24.463  0.00  0.00     0.167 C 
BRANCH   9  10
ATOM     10  N   UNL d   1      30.685  18.384 -24.406  0.00  0.00    -0.111 N 
ATOM     11  O   UNL d   1      30.284  18.336 -23.686  0.00  0.00    -0.532 OA
ATOM     12  O   UNL d   1      30.373  18.003 -25.082  0.00  0.00    -0.532 OA
ENDBRANCH   9  10
ENDBRANCH   1   9
BRANCH   1  13
ATOM     13  C   UNL d   1      32.370  17.746 -24.240  0.00  0.00     0.019 A 
ATOM     14  C   UNL d   1      32.246  17.142 -23.701  0.00  0.00     0.002 A 
ATOM     15  C   UNL d   1      32.534  16.386 -23.859  0.00  0.00     0.000 A 
ATOM     16  C   UNL d   1      32.947  16.232 -24.557  0.00  0.00     0.000 A 
ATOM     17  C   UNL d   1      33.071  16.835 -25.097  0.00  0.00     0.000 A 
ATOM     18  C   UNL d   1      33.241  15.453 -24.715  0.00  0.00     0.000 C 
ATOM     19  C   UNL d   1      32.782  17.592 -24.938  0.00  0.00     0.002 A 
ENDBRANCH   1  13
TORSDOF 4
ENDMDL
MODEL 3
REMARK VINA RESULT:       1.0      4.273      5.856
REMARK  4 active torsions:
REMARK  status: ('A' for Active; 'I' for Inactive)
REMARK    1  A    between atoms: C_3  and  N_1 
REMARK    2  A    between atoms: C_6  and  C_3 
REMARK    3  A    between atoms: C_9  and  C_3 
REMARK    4  A    between atoms: N_5  and  C_6 
ROOT
ATOM      1  C   UNL d   1      32.497  22.880 -20.736  0.00  0.00     0.106 C 
ENDROOT
BRANCH   1   2
ATOM      2  N   UNL d   1      32.651  22.183 -21.170  0.00  0.00    -0.228 N 
ATOM      3  N   UNL d   1      32.516  21.381 -21.005  0.00  0.00    -0.165 NA
ATOM      4  C   UNL d   1      32.787  20.961 -21.646  0.00  0.00     0.103 A 
ATOM      5  C   UNL d   1      32.764  20.122 -21.726  0.00  0.00     0.022 C 
ATOM      6  C   UNL d   1      33.083  21.468 -22.197  0.00  0.00     0.040 A 
ATOM      7  C   UNL d   1      33.005  22.234 -21.913  0.00  0.00     0.085 A 
ATOM      8  C   UNL d   1      33.236  22.938 -22.296  0.00  0.00     0.021 C 
ENDBRANCH   1   2
BRANCH   1   9
ATOM      9  C   UNL d   1      32.161  23.532 -21.113  0.00  0.00     0.167 C 
BRANCH   9  10
ATOM     10  N   UNL d   1      31.342  23.644 -21.106  0.00  0.00    -0.111 N 
ATOM     11  O   UNL d   1      30.934  23.699 -20.391  0.00  0.00    -0.532 OA
ATOM     12  O   UNL d   1      30.925  23.702 -21.828  0.00  0.00    -0.532 OA
ENDBRANCH   9  10
ENDBRANCH   1   9
BRANCH   1  13
ATOM     13  C   UNL d   1      32.687  22.918 -19.900  0.00  0.00     0.019 A 
ATOM     14  C   UNL d   1      32.847  22.232 -19.483  0.00  0.00     0.002 A 
ATOM     15  C   UNL d   1      33.029  22.274 -18.680  0.00  0.00     0.000 A 
ATOM     16  C   UNL d   1      33.052  23.002 -18.292  0.00  0.00     0.000 A 
ATOM     17  C   UNL d   1      32.893  23.689 -18.709  0.00  0.00     0.000 A 
ATOM     18  C   UNL d   1      33.240  23.040 -17.466  0.00  0.00     0.000 C 
ATOM     19  C   UNL d   1      32.710  23.646 -19.513  0.00  0.00     0.002 A 
ENDBRANCH   1  13
TORSDOF 4
ENDMDL
