MODEL 1
REMARK VINA RESULT:      -4.3      0.000      0.000
REMARK  5 active torsions:
REMARK  status: ('A' for Active; 'I' for Inactive)
REMARK    1  A    between atoms: N_4  and  C_1 
REMARK       I    between atoms: C_7  and  N_4 
REMARK    2  A    between atoms: C_8  and  C_7 
REMARK    3  A    between atoms: C_12  and  C_8 
REMARK    4  A    between atoms: S_10  and  C_12 
REMARK    5  A    between atoms: C_11  and  S_10 
ROOT
ATOM      1  C   UNL d   1      57.839   0.176  30.518  0.00  0.00     0.070 C 
ENDROOT
BRANCH   1   2
ATOM      2  C   UNL d   1      57.475   0.077  31.243  0.00  0.00     0.281 C 
ATOM      3  N   UNL d   1      56.765  -0.336  31.309  0.00  0.00    -0.187 NA
ATOM      4  O   UNL d   1      57.841   0.404  31.914  0.00  0.00    -0.265 OA
BRANCH   3   5
ATOM      5  C   UNL d   1      56.386  -0.435  32.092  0.00  0.00     0.194 A 
ATOM      6  N   UNL d   1      56.297  -1.219  32.332  0.00  0.00    -0.107 NA
ATOM      7  O   UNL d   1      55.938  -1.224  33.067  0.00  0.00    -0.210 OA
ATOM      8  C   UNL d   1      55.803  -0.435  33.283  0.00  0.00     0.128 A 
ATOM      9  C   UNL d   1      56.085   0.044  32.669  0.00  0.00     0.068 A 
ATOM     10  C   UNL d   1      55.452  -0.184  33.981  0.00  0.00     0.029 C 
ENDBRANCH   3   5
ENDBRANCH   1   2
BRANCH   1  11
ATOM     11  C   UNL d   1      58.436  -0.322  30.257  0.00  0.00     0.040 C 
BRANCH  11  12
ATOM     12  S   UNL d   1      58.767  -0.220  29.508  0.00  0.00    -0.086 SA
BRANCH  12  13
ATOM     13  C   UNL d   1      59.363  -0.747  29.243  0.00  0.00     0.029 A 
ATOM     14  C   UNL d   1      59.155  -1.490  28.949  0.00  0.00     0.007 A 
ATOM     15  C   UNL d   1      59.751  -2.016  28.684  0.00  0.00     0.012 A 
ATOM     16  C   UNL d   1      60.541  -1.784  28.720  0.00  0.00     0.058 A 
ATOM     17  C   UNL d   1      60.744  -1.039  29.015  0.00  0.00     0.012 A 
ATOM     18 CL   UNL d   1      61.133  -2.310  28.456  0.00  0.00    -0.082 Cl
ATOM     19  C   UNL d   1      60.155  -0.523  29.275  0.00  0.00     0.007 A 
ENDBRANCH  12  13
ENDBRANCH  11  12
ENDBRANCH   1  11
TORSDOF 5
ENDMDL
MODEL 2
REMARK VINA RESULT:      -3.9      2.738      5.380
REMARK  5 active torsions:
REMARK  status: ('A' for Active; 'I' for Inactive)
REMARK    1  A    between atoms: N_4  and  C_1 
REMARK       I    between atoms: C_7  and  N_4 
REMARK    2  A    between atoms: C_8  and  C_7 
REMARK    3  A    between atoms: C_12  and  C_8 
REMARK    4  A    between atoms: S_10  and  C_12 
REMARK    5  A    between atoms: C_11  and  S_10 
ROOT
ATOM      1  C   UNL d   1      57.281   0.165  30.920  0.00  0.00     0.070 C 
ENDROOT
BRANCH   1   2
ATOM      2  C   UNL d   1      58.013   0.229  30.563  0.00  0.00     0.281 C 
ATOM      3  N   UNL d   1      58.135  -0.037  29.793  0.00  0.00    -0.187 NA
ATOM      4  O   UNL d   1      58.634   0.572  30.997  0.00  0.00    -0.265 OA
BRANCH   3   5
ATOM      5  C   UNL d   1      58.925   0.039  29.421  0.00  0.00     0.194 A 
ATOM      6  N   UNL d   1      58.938   0.499  28.737  0.00  0.00    -0.107 NA
ATOM      7  O   UNL d   1      59.706   0.519  28.455  0.00  0.00    -0.210 OA
ATOM      8  C   UNL d   1      60.172   0.067  28.971  0.00  0.00     0.128 A 
ATOM      9  C   UNL d   1      59.675  -0.225  29.566  0.00  0.00     0.068 A 
ATOM     10  C   UNL d   1      60.978  -0.063  28.897  0.00  0.00     0.029 C 
ENDBRANCH   3   5
ENDBRANCH   1   2
BRANCH   1  11
ATOM     11  C   UNL d   1      57.190   0.176  31.735  0.00  0.00     0.040 C 
BRANCH  11  12
ATOM     12  S   UNL d   1      56.642  -0.321  32.101  0.00  0.00    -0.086 SA
BRANCH  12  13
ATOM     13  C   UNL d   1      56.267  -0.074  32.809  0.00  0.00     0.029 A 
ATOM     14  C   UNL d   1      56.659   0.435  33.327  0.00  0.00     0.007 A 
ATOM     15  C   UNL d   1      56.283   0.680  34.035  0.00  0.00     0.012 A 
ATOM     16  C   UNL d   1      55.523   0.410  34.204  0.00  0.00     0.058 A 
ATOM     17  C   UNL d   1      55.135  -0.099  33.682  0.00  0.00     0.012 A 
ATOM     18 CL   UNL d   1      55.151   0.657  34.910  0.00  0.00    -0.082 Cl
ATOM     19  C   UNL d   1      55.507  -0.340  32.986  0.00  0.00     0.007 A 
ENDBRANCH  12  13
ENDBRANCH  11  12
ENDBRANCH   1  11
TORSDOF 5
ENDMDL
MODEL 3
REMARK VINA RESULT:      -3.5      1.219      1.644
REMARK  5 active torsions:
REMARK  status: ('A' for Active; 'I' for Inactive)
REMARK    1  A    between atoms: N_4  and  C_1 
REMARK       I    between atoms: C_7  and  N_4 
REMARK    2  A    between atoms: C_8  and  C_7 
REMARK    3  A    between atoms: C_12  and  C_8 
REMARK    4  A    between atoms: S_10  and  C_12 
REMARK    5  A    between atoms: C_11  and  S_10 
ROOT
ATOM      1  C   UNL d   1      57.027  -0.455  31.557  0.00  0.00     0.070 C 
ENDROOT
BRANCH   1   2
ATOM      2  C   UNL d   1      56.764  -0.188  32.283  0.00  0.00     0.281 C 
ATOM      3  N   UNL d   1      55.982  -0.299  32.518  0.00  0.00    -0.187 NA
ATOM      4  O   UNL d   1      57.306   0.200  32.779  0.00  0.00    -0.265 OA
BRANCH   3   5
ATOM      5  C   UNL d   1      55.712  -0.007  33.298  0.00  0.00     0.194 A 
ATOM      6  N   UNL d   1      54.897   0.107  33.358  0.00  0.00    -0.107 NA
ATOM      7  O   UNL d   1      54.730   0.378  34.112  0.00  0.00    -0.210 OA
ATOM      8  C   UNL d   1      55.449   0.432  34.522  0.00  0.00     0.128 A 
ATOM      9  C   UNL d   1      56.050   0.190  34.006  0.00  0.00     0.068 A 
ATOM     10  C   UNL d   1      55.539   0.681  35.298  0.00  0.00     0.029 C 
ENDBRANCH   3   5
ENDBRANCH   1   2
BRANCH   1  11
ATOM     11  C   UNL d   1      57.617  -0.070  31.137  0.00  0.00     0.040 C 
BRANCH  11  12
ATOM     12  S   UNL d   1      57.656  -0.137  30.315  0.00  0.00    -0.086 SA
BRANCH  12  13
ATOM     13  C   UNL d   1      58.400  -0.104  29.931  0.00  0.00     0.029 A 
ATOM     14  C   UNL d   1      58.729  -0.790  29.609  0.00  0.00     0.007 A 
ATOM     15  C   UNL d   1      59.473  -0.756  29.226  0.00  0.00     0.012 A 
ATOM     16  C   UNL d   1      59.870  -0.036  29.175  0.00  0.00     0.058 A 
ATOM     17  C   UNL d   1      59.538   0.648  29.499  0.00  0.00     0.012 A 
ATOM     18 CL   UNL d   1      60.611  -0.005  28.792  0.00  0.00    -0.082 Cl
ATOM     19  C   UNL d   1      58.804   0.612  29.876  0.00  0.00     0.007 A 
ENDBRANCH  12  13
ENDBRANCH  11  12
ENDBRANCH   1  11
TORSDOF 5
ENDMDL
MODEL 4
REMARK VINA RESULT:      -2.9      2.863      5.612
REMARK  5 active torsions:
REMARK  status: ('A' for Active; 'I' for Inactive)
REMARK    1  A    between atoms: N_4  and  C_1 
REMARK       I    between atoms: C_7  and  N_4 
REMARK    2  A    between atoms: C_8  and  C_7 
REMARK    3  A    between atoms: C_12  and  C_8 
REMARK    4  A    between atoms: S_10  and  C_12 
REMARK    5  A    between atoms: C_11  and  S_10 
ROOT
ATOM      1  C   UNL d   1      57.080  -0.350  32.248  0.00  0.00     0.070 C 
ENDROOT
BRANCH   1   2
ATOM      2  C   UNL d   1      57.304  -0.566  31.492  0.00  0.00     0.281 C 
ATOM      3  N   UNL d   1      57.866  -0.131  31.075  0.00  0.00    -0.187 NA
ATOM      4  O   UNL d   1      56.950  -1.238  31.154  0.00  0.00    -0.265 OA
BRANCH   3   5
ATOM      5  C   UNL d   1      58.097  -0.374  30.266  0.00  0.00     0.194 A 
ATOM      6  N   UNL d   1      57.801   0.109  29.666  0.00  0.00    -0.107 NA
ATOM      7  O   UNL d   1      58.060  -0.184  28.948  0.00  0.00    -0.210 OA
ATOM      8  C   UNL d   1      58.522  -0.854  29.105  0.00  0.00     0.128 A 
ATOM      9  C   UNL d   1      58.537  -0.961  29.927  0.00  0.00     0.068 A 
ATOM     10  C   UNL d   1      58.893  -1.321  28.542  0.00  0.00     0.029 C 
ENDBRANCH   3   5
ENDBRANCH   1   2
BRANCH   1  11
ATOM     11  C   UNL d   1      56.347  -0.019  32.409  0.00  0.00     0.040 C 
BRANCH  11  12
ATOM     12  S   UNL d   1      56.287   0.647  32.892  0.00  0.00    -0.086 SA
BRANCH  12  13
ATOM     13  C   UNL d   1      55.730   0.656  33.518  0.00  0.00     0.029 A 
ATOM     14  C   UNL d   1      55.991   0.647  34.302  0.00  0.00     0.007 A 
ATOM     15  C   UNL d   1      55.434   0.656  34.927  0.00  0.00     0.012 A 
ATOM     16  C   UNL d   1      54.629   0.673  34.752  0.00  0.00     0.058 A 
ATOM     17  C   UNL d   1      54.373   0.682  33.967  0.00  0.00     0.012 A 
ATOM     18 CL   UNL d   1      54.076   0.682  35.378  0.00  0.00    -0.082 Cl
ATOM     19  C   UNL d   1      54.924   0.673  33.352  0.00  0.00     0.007 A 
ENDBRANCH  12  13
ENDBRANCH  11  12
ENDBRANCH   1  11
TORSDOF 5
ENDMDL
MODEL 5
REMARK VINA RESULT:      -2.9      9.199      9.811
REMARK  5 active torsions:
REMARK  status: ('A' for Active; 'I' for Inactive)
REMARK    1  A    between atoms: N_4  and  C_1 
REMARK       I    between atoms: C_7  and  N_4 
REMARK    2  A    between atoms: C_8  and  C_7 
REMARK    3  A    between atoms: C_12  and  C_8 
REMARK    4  A    between atoms: S_10  and  C_12 
REMARK    5  A    between atoms: C_11  and  S_10 
ROOT
ATOM      1  C   UNL d   1      58.544  -9.657  33.406  0.00  0.00     0.070 C 
ENDROOT
BRANCH   1   2
ATOM      2  C   UNL d   1      58.510  -9.707  32.591  0.00  0.00     0.281 C 
ATOM      3  N   UNL d   1      57.792  -9.649  32.191  0.00  0.00    -0.187 NA
ATOM      4  O   UNL d   1      59.221  -9.818  32.174  0.00  0.00    -0.265 OA
BRANCH   3   5
ATOM      5  C   UNL d   1      57.770  -9.704  31.317  0.00  0.00     0.194 A 
ATOM      6  N   UNL d   1      57.011  -9.757  30.997  0.00  0.00    -0.107 NA
ATOM      7  O   UNL d   1      57.079  -9.804  30.183  0.00  0.00    -0.210 OA
ATOM      8  C   UNL d   1      57.887  -9.781  29.998  0.00  0.00     0.128 A 
ATOM      9  C   UNL d   1      58.304  -9.719  30.711  0.00  0.00     0.068 A 
ATOM     10  C   UNL d   1      58.205  -9.814  29.243  0.00  0.00     0.029 C 
ENDBRANCH   3   5
ENDBRANCH   1   2
BRANCH   1  11
ATOM     11  C   UNL d   1      59.210  -9.386  33.800  0.00  0.00     0.040 C 
BRANCH  11  12
ATOM     12  S   UNL d   1      59.255  -9.431  34.622  0.00  0.00    -0.086 SA
BRANCH  12  13
ATOM     13  C   UNL d   1      59.723  -8.876  35.043  0.00  0.00     0.029 A 
ATOM     14  C   UNL d   1      60.545  -8.889  34.966  0.00  0.00     0.007 A 
ATOM     15  C   UNL d   1      61.012  -8.334  35.387  0.00  0.00     0.012 A 
ATOM     16  C   UNL d   1      60.642  -7.781  35.874  0.00  0.00     0.058 A 
ATOM     17  C   UNL d   1      59.820  -7.773  35.947  0.00  0.00     0.012 A 
ATOM     18 CL   UNL d   1      61.110  -7.230  36.292  0.00  0.00    -0.082 Cl
ATOM     19  C   UNL d   1      59.362  -8.320  35.532  0.00  0.00     0.007 A 
ENDBRANCH  12  13
ENDBRANCH  11  12
ENDBRANCH   1  11
TORSDOF 5
ENDMDL
