MODEL 1
REMARK VINA RESULT:      40.6      0.000      0.000
REMARK  6 active torsions:
REMARK  status: ('A' for Active; 'I' for Inactive)
REMARK    1  A    between atoms: C_6  and  C_2 
REMARK    2  A    between atoms: C_7  and  C_6 
REMARK    3  A    between atoms: C_8  and  C_15 
REMARK       I    between atoms: N_9  and  C_8 
REMARK    4  A    between atoms: C_16  and  N_9 
REMARK    5  A    between atoms: O_13  and  C_12 
REMARK    6  A    between atoms: C_15  and  O_13 
ROOT
ATOM      1  C   UNL d   1      13.272  13.387  -3.536  0.00  0.00     0.023 A 
ATOM      2  C   UNL d   1      13.361  12.828  -2.936  0.00  0.00     0.100 A 
ATOM      3  C   UNL d   1      13.160  13.148  -4.313  0.00  0.00     0.002 A 
ATOM      4  C   UNL d   1      13.337  12.023  -3.114  0.00  0.00     0.025 A 
ATOM      5  C   UNL d   1      13.134  12.342  -4.500  0.00  0.00     0.000 A 
ATOM      6  C   UNL d   1      13.224  11.782  -3.895  0.00  0.00     0.002 A 
ENDROOT
BRANCH   2   7
ATOM      7  O   UNL d   1      13.474  13.071  -2.153  0.00  0.00    -0.300 OA
BRANCH   7   8
ATOM      8  C   UNL d   1      13.977  12.631  -1.660  0.00  0.00     0.185 C 
BRANCH   8   9
ATOM      9  C   UNL d   1      13.676  12.286  -0.966  0.00  0.00     0.304 C 
ATOM     10  N   UNL d   1      14.039  12.448  -0.239  0.00  0.00    -0.206 NA
ATOM     11  O   UNL d   1      13.020  11.788  -1.003  0.00  0.00    -0.263 OA
BRANCH  10  12
ATOM     12  C   UNL d   1      14.695  12.946  -0.202  0.00  0.00     0.085 A 
ATOM     13  C   UNL d   1      15.456  12.633  -0.318  0.00  0.00     0.019 A 
ATOM     14  C   UNL d   1      16.116  13.127  -0.282  0.00  0.00     0.002 A 
ATOM     15  C   UNL d   1      16.019  13.938  -0.131  0.00  0.00     0.000 A 
ATOM     16  C   UNL d   1      15.257  14.243  -0.016  0.00  0.00     0.002 A 
ATOM     17  C   UNL d   1      14.600  13.745  -0.053  0.00  0.00     0.019 A 
ENDBRANCH  10  12
ENDBRANCH   8   9
ENDBRANCH   7   8
ENDBRANCH   2   7
BRANCH   1  18
ATOM     18  C   UNL d   1      13.296  14.196  -3.360  0.00  0.00     0.013 C 
BRANCH  18  19
ATOM     19  C   UNL d   1      13.682  14.723  -3.861  0.00  0.00     0.092 A 
ATOM     20  C   UNL d   1      14.028  15.434  -3.647  0.00  0.00     0.288 A 
ATOM     21  N   UNL d   1      14.348  15.780  -4.320  0.00  0.00    -0.163 NA
ATOM     22  O   UNL d   1      14.053  15.750  -2.884  0.00  0.00    -0.265 OA
ATOM     23  C   UNL d   1      14.198  15.277  -4.961  0.00  0.00     0.313 A 
ATOM     24  S   UNL d   1      13.783  14.620  -4.676  0.00  0.00    -0.021 SA
ATOM     25  O   UNL d   1      14.422  15.407  -5.750  0.00  0.00    -0.258 OA
ENDBRANCH  18  19
ENDBRANCH   1  18
TORSDOF 6
ENDMDL
MODEL 2
REMARK VINA RESULT:      41.4      1.519      4.309
REMARK  6 active torsions:
REMARK  status: ('A' for Active; 'I' for Inactive)
REMARK    1  A    between atoms: C_6  and  C_2 
REMARK    2  A    between atoms: C_7  and  C_6 
REMARK    3  A    between atoms: C_8  and  C_15 
REMARK       I    between atoms: N_9  and  C_8 
REMARK    4  A    between atoms: C_16  and  N_9 
REMARK    5  A    between atoms: O_13  and  C_12 
REMARK    6  A    between atoms: C_15  and  O_13 
ROOT
ATOM      1  C   UNL d   1      13.907  12.454  -2.990  0.00  0.00     0.023 A 
ATOM      2  C   UNL d   1      13.769  13.163  -3.388  0.00  0.00     0.100 A 
ATOM      3  C   UNL d   1      13.480  11.781  -3.181  0.00  0.00     0.002 A 
ATOM      4  C   UNL d   1      13.199  13.198  -3.983  0.00  0.00     0.025 A 
ATOM      5  C   UNL d   1      12.906  11.807  -3.778  0.00  0.00     0.000 A 
ATOM      6  C   UNL d   1      12.770  12.521  -4.177  0.00  0.00     0.002 A 
ENDROOT
BRANCH   2   7
ATOM      7  O   UNL d   1      14.201  13.842  -3.193  0.00  0.00    -0.300 OA
BRANCH   7   8
ATOM      8  C   UNL d   1      13.991  14.569  -3.536  0.00  0.00     0.185 C 
BRANCH   8   9
ATOM      9  C   UNL d   1      14.226  15.279  -3.173  0.00  0.00     0.304 C 
ATOM     10  N   UNL d   1      14.377  15.946  -3.640  0.00  0.00    -0.206 NA
ATOM     11  O   UNL d   1      14.308  15.316  -2.353  0.00  0.00    -0.263 OA
BRANCH  10  12
ATOM     12  C   UNL d   1      14.295  15.908  -4.460  0.00  0.00     0.085 A 
ATOM     13  C   UNL d   1      14.967  15.983  -4.944  0.00  0.00     0.019 A 
ATOM     14  C   UNL d   1      14.892  15.946  -5.765  0.00  0.00     0.002 A 
ATOM     15  C   UNL d   1      14.143  15.834  -6.107  0.00  0.00     0.000 A 
ATOM     16  C   UNL d   1      13.477  15.761  -5.618  0.00  0.00     0.002 A 
ATOM     17  C   UNL d   1      13.558  15.799  -4.798  0.00  0.00     0.019 A 
ENDBRANCH  10  12
ENDBRANCH   8   9
ENDBRANCH   7   8
ENDBRANCH   2   7
BRANCH   1  18
ATOM     18  C   UNL d   1      14.478  12.416  -2.392  0.00  0.00     0.013 C 
BRANCH  18  19
ATOM     19  C   UNL d   1      14.270  12.197  -1.625  0.00  0.00     0.092 A 
ATOM     20  C   UNL d   1      14.783  11.996  -1.019  0.00  0.00     0.288 A 
ATOM     21  N   UNL d   1      14.339  11.816  -0.352  0.00  0.00    -0.163 NA
ATOM     22  O   UNL d   1      15.607  11.978  -1.070  0.00  0.00    -0.265 OA
ATOM     23  C   UNL d   1      13.538  11.907  -0.547  0.00  0.00     0.313 A 
ATOM     24  S   UNL d   1      13.495  12.143  -1.338  0.00  0.00    -0.021 SA
ATOM     25  O   UNL d   1      12.893  11.782  -0.039  0.00  0.00    -0.258 OA
ENDBRANCH  18  19
ENDBRANCH   1  18
TORSDOF 6
ENDMDL
MODEL 3
REMARK VINA RESULT:      42.0      1.524      3.664
REMARK  6 active torsions:
REMARK  status: ('A' for Active; 'I' for Inactive)
REMARK    1  A    between atoms: C_6  and  C_2 
REMARK    2  A    between atoms: C_7  and  C_6 
REMARK    3  A    between atoms: C_8  and  C_15 
REMARK       I    between atoms: N_9  and  C_8 
REMARK    4  A    between atoms: C_16  and  N_9 
REMARK    5  A    between atoms: O_13  and  C_12 
REMARK    6  A    between atoms: C_15  and  O_13 
ROOT
ATOM      1  C   UNL d   1      13.946  12.457  -3.122  0.00  0.00     0.023 A 
ATOM      2  C   UNL d   1      13.822  13.137  -3.573  0.00  0.00     0.100 A 
ATOM      3  C   UNL d   1      13.487  11.789  -3.244  0.00  0.00     0.002 A 
ATOM      4  C   UNL d   1      13.233  13.148  -4.150  0.00  0.00     0.025 A 
ATOM      5  C   UNL d   1      12.893  11.791  -3.821  0.00  0.00     0.000 A 
ATOM      6  C   UNL d   1      12.770  12.476  -4.273  0.00  0.00     0.002 A 
ENDROOT
BRANCH   2   7
ATOM      7  O   UNL d   1      14.286  13.811  -3.449  0.00  0.00    -0.300 OA
BRANCH   7   8
ATOM      8  C   UNL d   1      13.914  14.541  -3.312  0.00  0.00     0.185 C 
BRANCH   8   9
ATOM      9  C   UNL d   1      13.934  15.129  -3.900  0.00  0.00     0.304 C 
ATOM     10  N   UNL d   1      14.262  15.869  -3.726  0.00  0.00    -0.206 NA
ATOM     11  O   UNL d   1      13.628  14.974  -4.650  0.00  0.00    -0.263 OA
BRANCH  10  12
ATOM     12  C   UNL d   1      14.568  16.024  -2.976  0.00  0.00     0.085 A 
ATOM     13  C   UNL d   1      15.284  16.440  -2.902  0.00  0.00     0.019 A 
ATOM     14  C   UNL d   1      15.595  16.598  -2.154  0.00  0.00     0.002 A 
ATOM     15  C   UNL d   1      15.191  16.340  -1.475  0.00  0.00     0.000 A 
ATOM     16  C   UNL d   1      14.478  15.925  -1.556  0.00  0.00     0.002 A 
ATOM     17  C   UNL d   1      14.171  15.770  -2.306  0.00  0.00     0.019 A 
ENDBRANCH  10  12
ENDBRANCH   8   9
ENDBRANCH   7   8
ENDBRANCH   2   7
BRANCH   1  18
ATOM     18  C   UNL d   1      14.537  12.444  -2.542  0.00  0.00     0.013 C 
BRANCH  18  19
ATOM     19  C   UNL d   1      14.354  12.251  -1.762  0.00  0.00     0.092 A 
ATOM     20  C   UNL d   1      14.889  12.106  -1.159  0.00  0.00     0.288 A 
ATOM     21  N   UNL d   1      14.467  11.935  -0.474  0.00  0.00    -0.163 NA
ATOM     22  O   UNL d   1      15.712  12.127  -1.226  0.00  0.00    -0.265 OA
ATOM     23  C   UNL d   1      13.660  11.975  -0.656  0.00  0.00     0.313 A 
ATOM     24  S   UNL d   1      13.589  12.171  -1.456  0.00  0.00    -0.021 SA
ATOM     25  O   UNL d   1      13.031  11.842  -0.129  0.00  0.00    -0.258 OA
ENDBRANCH  18  19
ENDBRANCH   1  18
TORSDOF 6
ENDMDL
MODEL 4
REMARK VINA RESULT:      42.2      1.946      2.955
REMARK  6 active torsions:
REMARK  status: ('A' for Active; 'I' for Inactive)
REMARK    1  A    between atoms: C_6  and  C_2 
REMARK    2  A    between atoms: C_7  and  C_6 
REMARK    3  A    between atoms: C_8  and  C_15 
REMARK       I    between atoms: N_9  and  C_8 
REMARK    4  A    between atoms: C_16  and  N_9 
REMARK    5  A    between atoms: O_13  and  C_12 
REMARK    6  A    between atoms: C_15  and  O_13 
ROOT
ATOM      1  C   UNL d   1      14.130  12.904  -1.752  0.00  0.00     0.023 A 
ATOM      2  C   UNL d   1      14.349  13.269  -1.046  0.00  0.00     0.100 A 
ATOM      3  C   UNL d   1      13.771  12.167  -1.745  0.00  0.00     0.002 A 
ATOM      4  C   UNL d   1      14.207  12.893  -0.325  0.00  0.00     0.025 A 
ATOM      5  C   UNL d   1      13.624  11.782  -1.026  0.00  0.00     0.000 A 
ATOM      6  C   UNL d   1      13.845  12.151  -0.317  0.00  0.00     0.002 A 
ENDROOT
BRANCH   2   7
ATOM      7  O   UNL d   1      14.712  14.013  -1.055  0.00  0.00    -0.300 OA
BRANCH   7   8
ATOM      8  C   UNL d   1      15.019  14.323  -0.348  0.00  0.00     0.185 C 
BRANCH   8   9
ATOM      9  C   UNL d   1      15.842  14.392  -0.251  0.00  0.00     0.304 C 
ATOM     10  N   UNL d   1      16.211  15.119  -0.395  0.00  0.00    -0.206 NA
ATOM     11  O   UNL d   1      16.286  13.738  -0.014  0.00  0.00    -0.263 OA
BRANCH  10  12
ATOM     12  C   UNL d   1      15.767  15.772  -0.631  0.00  0.00     0.085 A 
ATOM     13  C   UNL d   1      15.564  16.355  -0.074  0.00  0.00     0.019 A 
ATOM     14  C   UNL d   1      15.120  17.011  -0.305  0.00  0.00     0.002 A 
ATOM     15  C   UNL d   1      14.875  17.089  -1.095  0.00  0.00     0.000 A 
ATOM     16  C   UNL d   1      15.081  16.503  -1.645  0.00  0.00     0.002 A 
ATOM     17  C   UNL d   1      15.525  15.850  -1.409  0.00  0.00     0.019 A 
ENDBRANCH  10  12
ENDBRANCH   8   9
ENDBRANCH   7   8
ENDBRANCH   2   7
BRANCH   1  18
ATOM     18  C   UNL d   1      14.272  13.279  -2.476  0.00  0.00     0.013 C 
BRANCH  18  19
ATOM     19  C   UNL d   1      13.827  13.086  -3.143  0.00  0.00     0.092 A 
ATOM     20  C   UNL d   1      13.322  13.585  -3.552  0.00  0.00     0.288 A 
ATOM     21  N   UNL d   1      12.994  13.165  -4.177  0.00  0.00    -0.163 NA
ATOM     22  O   UNL d   1      13.167  14.375  -3.367  0.00  0.00    -0.265 OA
ATOM     23  C   UNL d   1      13.300  12.396  -4.156  0.00  0.00     0.313 A 
ATOM     24  S   UNL d   1      13.818  12.346  -3.513  0.00  0.00    -0.021 SA
ATOM     25  O   UNL d   1      13.120  11.782  -4.686  0.00  0.00    -0.258 OA
ENDBRANCH  18  19
ENDBRANCH   1  18
TORSDOF 6
ENDMDL
