MODEL 1
REMARK VINA RESULT:      66.8      0.000      0.000
REMARK  6 active torsions:
REMARK  status: ('A' for Active; 'I' for Inactive)
REMARK    1  A    between atoms: C_13  and  C_4 
REMARK    2  A    between atoms: N_16  and  C_5 
REMARK    3  A    between atoms: N_11  and  C_18 
REMARK    4  A    between atoms: C_21  and  N_16 
REMARK    5  A    between atoms: C_18  and  C_19 
REMARK    6  A    between atoms: C_19  and  C_21 
ROOT
ATOM      1  N   UNL d   1     -55.107-101.008 -42.572  0.00  0.00    -0.195 N 
ATOM      2  C   UNL d   1     -55.481-100.882 -43.296  0.00  0.00     0.167 A 
ATOM      3  N   UNL d   1     -54.774-100.299 -42.331  0.00  0.00    -0.163 NA
ATOM      4  C   UNL d   1     -55.378-100.095 -43.497  0.00  0.00     0.055 A 
ATOM      5  C   UNL d   1     -55.118-101.755 -42.227  0.00  0.00     0.167 A 
ATOM      6  C   UNL d   1     -54.942 -99.733 -42.904  0.00  0.00     0.104 A 
ATOM      7  N   UNL d   1     -55.867-101.502 -43.675  0.00  0.00    -0.227 NA
ATOM      8  C   UNL d   1     -55.506-102.383 -42.606  0.00  0.00     0.058 A 
ATOM      9  C   UNL d   1     -55.880-102.257 -43.329  0.00  0.00     0.086 A 
ATOM     10  C   UNL d   1     -54.716 -98.940 -42.892  0.00  0.00     0.023 C 
ATOM     11  C   UNL d   1     -56.271-102.879 -43.715  0.00  0.00     0.021 C 
ENDROOT
BRANCH   5  12
ATOM     12  N   UNL d   1     -54.743-101.881 -41.504  0.00  0.00    -0.225 NA
BRANCH  12  13
ATOM     13  C   UNL d   1     -55.031-102.451 -40.985  0.00  0.00     0.102 C 
BRANCH  13  14
ATOM     14  C   UNL d   1     -55.111-102.276 -40.179  0.00  0.00     0.040 C 
BRANCH  14  15
ATOM     15  C   UNL d   1     -55.317-102.868 -39.646  0.00  0.00     0.083 C 
BRANCH  15  16
ATOM     16  N   UNL d   1     -55.478-102.678 -38.852  0.00  0.00    -0.285 N 
ATOM     17  C   UNL d   1     -56.119-102.303 -38.491  0.00  0.00     0.183 A 
ATOM     18  N   UNL d   1     -55.973-102.267 -37.688  0.00  0.00    -0.222 NA
ATOM     19  C   UNL d   1     -55.245-102.617 -37.544  0.00  0.00     0.120 A 
ATOM     20  C   UNL d   1     -54.937-102.872 -38.262  0.00  0.00     0.102 A 
ENDBRANCH  15  16
ENDBRANCH  14  15
ENDBRANCH  13  14
ENDBRANCH  12  13
ENDBRANCH   5  12
BRANCH   4  21
ATOM     21  C   UNL d   1     -55.628 -99.655 -44.154  0.00  0.00     0.004 A 
ATOM     22  C   UNL d   1     -55.072 -99.384 -44.701  0.00  0.00     0.000 A 
ATOM     23  C   UNL d   1     -55.323 -98.943 -45.358  0.00  0.00     0.000 A 
ATOM     24  C   UNL d   1     -56.123 -98.776 -45.464  0.00  0.00     0.000 A 
ATOM     25  C   UNL d   1     -56.679 -99.049 -44.913  0.00  0.00     0.000 A 
ATOM     26  C   UNL d   1     -56.429 -99.488 -44.259  0.00  0.00     0.000 A 
ENDBRANCH   4  21
TORSDOF 6
ENDMDL
