MODEL 1
REMARK VINA RESULT:      -2.6      0.000      0.000
REMARK  2 active torsions:
REMARK  status: ('A' for Active; 'I' for Inactive)
REMARK    1  A    between atoms: C_10  and  N_1 
REMARK    2  A    between atoms: N_11  and  C_10 
ROOT
ATOM      1  N   UNL d   1      32.387  18.093 -23.910  0.00  0.00    -0.175 N 
ATOM      2  N   UNL d   1      31.368  18.342 -24.331  0.00  0.00    -0.161 NA
ATOM      3  C   UNL d   1      30.871  17.693 -24.249  0.00  0.00     0.102 A 
ATOM      4  C   UNL d   1      31.146  17.000 -23.901  0.00  0.00     0.024 A 
ATOM      5  C   UNL d   1      32.494  17.343 -23.595  0.00  0.00     0.282 A 
ATOM      6  C   UNL d   1      31.876  16.799 -23.590  0.00  0.00     0.059 A 
ATOM      7  C   UNL d   1      30.520  16.450 -23.897  0.00  0.00     0.002 A 
ATOM      8  C   UNL d   1      30.083  17.573 -24.458  0.00  0.00     0.019 A 
ATOM      9  C   UNL d   1      29.867  16.809 -24.242  0.00  0.00     0.002 A 
ATOM     10  O   UNL d   1      33.241  17.141 -23.278  0.00  0.00    -0.265 OA
ATOM     11  C   UNL d   1      31.994  16.042 -23.270  0.00  0.00     0.005 A 
ATOM     12  C   UNL d   1      30.634  15.706 -23.582  0.00  0.00     0.000 A 
ATOM     13  C   UNL d   1      29.529  18.065 -24.821  0.00  0.00     0.002 A 
ATOM     14  C   UNL d   1      29.102  16.543 -24.389  0.00  0.00     0.000 A 
ATOM     15  C   UNL d   1      31.368  15.492 -23.265  0.00  0.00     0.000 A 
ATOM     16  C   UNL d   1      28.759  17.793 -24.967  0.00  0.00     0.000 A 
ATOM     17  C   UNL d   1      28.547  17.035 -24.752  0.00  0.00     0.000 A 
ENDROOT
BRANCH   1  18
ATOM     18  C   UNL d   1      33.106  18.500 -23.830  0.00  0.00     0.188 C 
BRANCH  18  19
ATOM     19  N   UNL d   1      33.133  19.318 -23.963  0.00  0.00    -0.283 N 
ATOM     20  C   UNL d   1      33.079  19.836 -23.329  0.00  0.00     0.108 A 
ATOM     21  C   UNL d   1      33.106  20.654 -23.459  0.00  0.00     0.142 A 
ATOM     22  O   UNL d   1      33.187  20.941 -24.234  0.00  0.00    -0.300 OA
ATOM     23  C   UNL d   1      33.241  20.418 -24.869  0.00  0.00     0.142 A 
ATOM     24  C   UNL d   1      33.214  19.592 -24.731  0.00  0.00     0.108 A 
ENDBRANCH  18  19
ENDBRANCH   1  18
TORSDOF 2
ENDMDL
MODEL 2
REMARK VINA RESULT:      -2.3      1.612      4.993
REMARK  2 active torsions:
REMARK  status: ('A' for Active; 'I' for Inactive)
REMARK    1  A    between atoms: C_10  and  N_1 
REMARK    2  A    between atoms: N_11  and  C_10 
ROOT
ATOM      1  N   UNL d   1      33.194  19.475 -23.679  0.00  0.00    -0.175 N 
ATOM      2  N   UNL d   1      33.183  19.603 -22.557  0.00  0.00    -0.161 NA
ATOM      3  C   UNL d   1      33.194  20.404 -22.371  0.00  0.00     0.102 A 
ATOM      4  C   UNL d   1      33.209  20.968 -22.969  0.00  0.00     0.024 A 
ATOM      5  C   UNL d   1      33.210  20.155 -24.139  0.00  0.00     0.282 A 
ATOM      6  C   UNL d   1      33.217  20.899 -23.785  0.00  0.00     0.059 A 
ATOM      7  C   UNL d   1      33.217  21.721 -22.611  0.00  0.00     0.002 A 
ATOM      8  C   UNL d   1      33.192  20.802 -21.651  0.00  0.00     0.019 A 
ATOM      9  C   UNL d   1      33.206  21.612 -21.797  0.00  0.00     0.002 A 
ATOM     10  O   UNL d   1      33.218  20.080 -24.971  0.00  0.00    -0.265 OA
ATOM     11  C   UNL d   1      33.233  21.581 -24.257  0.00  0.00     0.005 A 
ATOM     12  C   UNL d   1      33.232  22.393 -23.074  0.00  0.00     0.000 A 
ATOM     13  C   UNL d   1      33.179  20.530 -20.871  0.00  0.00     0.002 A 
ATOM     14  C   UNL d   1      33.207  22.142 -21.167  0.00  0.00     0.000 A 
ATOM     15  C   UNL d   1      33.241  22.333 -23.900  0.00  0.00     0.000 A 
ATOM     16  C   UNL d   1      33.180  21.068 -20.239  0.00  0.00     0.000 A 
ATOM     17  C   UNL d   1      33.194  21.870 -20.387  0.00  0.00     0.000 A 
ENDROOT
BRANCH   1  18
ATOM     18  C   UNL d   1      33.190  18.827 -24.198  0.00  0.00     0.188 C 
BRANCH  18  19
ATOM     19  N   UNL d   1      32.815  18.123 -23.973  0.00  0.00    -0.283 N 
ATOM     20  C   UNL d   1      32.030  17.996 -24.177  0.00  0.00     0.108 A 
ATOM     21  C   UNL d   1      31.652  17.293 -23.953  0.00  0.00     0.142 A 
ATOM     22  O   UNL d   1      32.074  16.722 -23.522  0.00  0.00    -0.300 OA
ATOM     23  C   UNL d   1      32.862  16.853 -23.318  0.00  0.00     0.142 A 
ATOM     24  C   UNL d   1      33.239  17.566 -23.547  0.00  0.00     0.108 A 
ENDBRANCH  18  19
ENDBRANCH   1  18
TORSDOF 2
ENDMDL
MODEL 3
REMARK VINA RESULT:      -2.0      3.307      5.007
REMARK  2 active torsions:
REMARK  status: ('A' for Active; 'I' for Inactive)
REMARK    1  A    between atoms: C_10  and  N_1 
REMARK    2  A    between atoms: N_11  and  C_10 
ROOT
ATOM      1  N   UNL d   1      33.197  22.350 -22.495  0.00  0.00    -0.175 N 
ATOM      2  N   UNL d   1      33.202  21.309 -22.055  0.00  0.00    -0.161 NA
ATOM      3  C   UNL d   1      33.212  20.755 -22.663  0.00  0.00     0.102 A 
ATOM      4  C   UNL d   1      33.216  20.999 -23.448  0.00  0.00     0.024 A 
ATOM      5  C   UNL d   1      33.203  22.417 -23.313  0.00  0.00     0.282 A 
ATOM      6  C   UNL d   1      33.212  21.744 -23.787  0.00  0.00     0.059 A 
ATOM      7  C   UNL d   1      33.226  20.318 -23.928  0.00  0.00     0.002 A 
ATOM      8  C   UNL d   1      33.219  19.932 -22.656  0.00  0.00     0.019 A 
ATOM      9  C   UNL d   1      33.228  19.661 -23.434  0.00  0.00     0.002 A 
ATOM     10  O   UNL d   1      33.198  23.179 -23.656  0.00  0.00    -0.265 OA
ATOM     11  C   UNL d   1      33.218  21.821 -24.614  0.00  0.00     0.005 A 
ATOM     12  C   UNL d   1      33.232  20.392 -24.740  0.00  0.00     0.000 A 
ATOM     13  C   UNL d   1      33.219  19.386 -22.036  0.00  0.00     0.002 A 
ATOM     14  C   UNL d   1      33.236  18.853 -23.586  0.00  0.00     0.000 A 
ATOM     15  C   UNL d   1      33.228  21.140 -25.094  0.00  0.00     0.000 A 
ATOM     16  C   UNL d   1      33.228  18.571 -22.194  0.00  0.00     0.000 A 
ATOM     17  C   UNL d   1      33.236  18.307 -22.967  0.00  0.00     0.000 A 
ENDROOT
BRANCH   1  18
ATOM     18  C   UNL d   1      33.187  23.120 -22.184  0.00  0.00     0.188 C 
BRANCH  18  19
ATOM     19  N   UNL d   1      32.790  23.272 -21.473  0.00  0.00    -0.283 N 
ATOM     20  C   UNL d   1      32.008  23.522 -21.488  0.00  0.00     0.108 A 
ATOM     21  C   UNL d   1      31.608  23.674 -20.779  0.00  0.00     0.142 A 
ATOM     22  O   UNL d   1      32.004  23.571 -20.057  0.00  0.00    -0.300 OA
ATOM     23  C   UNL d   1      32.789  23.319 -20.045  0.00  0.00     0.142 A 
ATOM     24  C   UNL d   1      33.189  23.167 -20.765  0.00  0.00     0.108 A 
ENDBRANCH  18  19
ENDBRANCH   1  18
TORSDOF 2
ENDMDL
MODEL 4
REMARK VINA RESULT:      -1.4      2.414      5.701
REMARK  2 active torsions:
REMARK  status: ('A' for Active; 'I' for Inactive)
REMARK    1  A    between atoms: C_10  and  N_1 
REMARK    2  A    between atoms: N_11  and  C_10 
ROOT
ATOM      1  N   UNL d   1      33.196  20.673 -23.026  0.00  0.00    -0.175 N 
ATOM      2  N   UNL d   1      33.141  20.737 -21.899  0.00  0.00    -0.161 NA
ATOM      3  C   UNL d   1      33.110  21.526 -21.670  0.00  0.00     0.102 A 
ATOM      4  C   UNL d   1      33.123  22.123 -22.235  0.00  0.00     0.024 A 
ATOM      5  C   UNL d   1      33.199  21.378 -23.447  0.00  0.00     0.282 A 
ATOM      6  C   UNL d   1      33.163  22.100 -23.053  0.00  0.00     0.059 A 
ATOM      7  C   UNL d   1      33.086  22.854 -21.836  0.00  0.00     0.002 A 
ATOM      8  C   UNL d   1      33.066  21.882 -20.929  0.00  0.00     0.019 A 
ATOM      9  C   UNL d   1      33.051  22.699 -21.030  0.00  0.00     0.002 A 
ATOM     10  O   UNL d   1      33.240  21.351 -24.281  0.00  0.00    -0.265 OA
ATOM     11  C   UNL d   1      33.166  22.808 -23.486  0.00  0.00     0.005 A 
ATOM     12  C   UNL d   1      33.089  23.551 -22.261  0.00  0.00     0.000 A 
ATOM     13  C   UNL d   1      33.037  21.566 -20.167  0.00  0.00     0.002 A 
ATOM     14  C   UNL d   1      33.007  23.193 -20.373  0.00  0.00     0.000 A 
ATOM     15  C   UNL d   1      33.129  23.539 -23.088  0.00  0.00     0.000 A 
ATOM     16  C   UNL d   1      32.993  22.067 -19.507  0.00  0.00     0.000 A 
ATOM     17  C   UNL d   1      32.978  22.877 -19.610  0.00  0.00     0.000 A 
ENDROOT
BRANCH   1  18
ATOM     18  C   UNL d   1      33.238  20.055 -23.580  0.00  0.00     0.188 C 
BRANCH  18  19
ATOM     19  N   UNL d   1      32.934  19.309 -23.386  0.00  0.00    -0.283 N 
ATOM     20  C   UNL d   1      33.240  18.898 -22.744  0.00  0.00     0.108 A 
ATOM     21  C   UNL d   1      32.938  18.152 -22.549  0.00  0.00     0.142 A 
ATOM     22  O   UNL d   1      32.326  17.826 -23.005  0.00  0.00    -0.300 OA
ATOM     23  C   UNL d   1      32.020  18.242 -23.648  0.00  0.00     0.142 A 
ATOM     24  C   UNL d   1      32.330  18.996 -23.842  0.00  0.00     0.108 A 
ENDBRANCH  18  19
ENDBRANCH   1  18
TORSDOF 2
ENDMDL
MODEL 5
REMARK VINA RESULT:      -0.3      1.924      4.075
REMARK  2 active torsions:
REMARK  status: ('A' for Active; 'I' for Inactive)
REMARK    1  A    between atoms: C_10  and  N_1 
REMARK    2  A    between atoms: N_11  and  C_10 
ROOT
ATOM      1  N   UNL d   1      30.304  16.608 -24.372  0.00  0.00    -0.175 N 
ATOM      2  N   UNL d   1      30.578  17.588 -23.882  0.00  0.00    -0.161 NA
ATOM      3  C   UNL d   1      31.385  17.723 -23.967  0.00  0.00     0.102 A 
ATOM      4  C   UNL d   1      31.857  17.179 -24.363  0.00  0.00     0.024 A 
ATOM      5  C   UNL d   1      30.908  16.181 -24.729  0.00  0.00     0.282 A 
ATOM      6  C   UNL d   1      31.681  16.465 -24.724  0.00  0.00     0.059 A 
ATOM      7  C   UNL d   1      32.638  17.466 -24.358  0.00  0.00     0.002 A 
ATOM      8  C   UNL d   1      31.868  18.341 -23.720  0.00  0.00     0.019 A 
ATOM      9  C   UNL d   1      32.640  18.185 -23.960  0.00  0.00     0.002 A 
ATOM     10  O   UNL d   1      30.725  15.453 -25.097  0.00  0.00    -0.265 OA
ATOM     11  C   UNL d   1      32.285  16.026 -25.087  0.00  0.00     0.005 A 
ATOM     12  C   UNL d   1      33.234  17.036 -24.715  0.00  0.00     0.000 A 
ATOM     13  C   UNL d   1      31.705  19.035 -23.302  0.00  0.00     0.002 A 
ATOM     14  C   UNL d   1      33.241  18.719 -23.782  0.00  0.00     0.000 A 
ATOM     15  C   UNL d   1      33.067  16.314 -25.083  0.00  0.00     0.000 A 
ATOM     16  C   UNL d   1      32.314  19.571 -23.125  0.00  0.00     0.000 A 
ATOM     17  C   UNL d   1      33.078  19.412 -23.365  0.00  0.00     0.000 A 
ENDROOT
BRANCH   1  18
ATOM     18  C   UNL d   1      29.603  16.175 -24.473  0.00  0.00     0.188 C 
BRANCH  18  19
ATOM     19  N   UNL d   1      28.976  16.279 -23.941  0.00  0.00    -0.283 N 
ATOM     20  C   UNL d   1      28.485  16.933 -24.011  0.00  0.00     0.108 A 
ATOM     21  C   UNL d   1      27.859  17.039 -23.480  0.00  0.00     0.142 A 
ATOM     22  O   UNL d   1      27.733  16.480 -22.880  0.00  0.00    -0.300 OA
ATOM     23  C   UNL d   1      28.228  15.823 -22.812  0.00  0.00     0.142 A 
ATOM     24  C   UNL d   1      28.861  15.721 -23.352  0.00  0.00     0.108 A 
ENDBRANCH  18  19
ENDBRANCH   1  18
TORSDOF 2
ENDMDL
