MODEL 1
REMARK VINA RESULT:     -11.3      0.000      0.000
REMARK  4 active torsions:
REMARK  status: ('A' for Active; 'I' for Inactive)
REMARK    1  A    between atoms: C_2  and  C_1 
REMARK    2  A    between atoms: O_18  and  C_16 
REMARK    3  A    between atoms: C_17  and  C_19 
REMARK    4  A    between atoms: C_19  and  O_18 
ROOT
ATOM      1  C   UNL d   1      53.978  32.992  54.415  0.00  0.00     0.030 A 
ATOM      2  C   UNL d   1      53.466  33.628  54.291  0.00  0.00     0.027 A 
ATOM      3  C   UNL d   1      54.897  33.850  55.081  0.00  0.00     0.300 A 
ATOM      4  C   UNL d   1      54.692  33.109  54.810  0.00  0.00     0.071 A 
ATOM      5  C   UNL d   1      53.674  34.379  54.566  0.00  0.00     0.103 A 
ATOM      6  O   UNL d   1      54.388  34.495  54.961  0.00  0.00    -0.273 OA
ATOM      7  C   UNL d   1      52.743  33.515  53.892  0.00  0.00     0.027 A 
ATOM      8  O   UNL d   1      55.610  33.962  55.475  0.00  0.00    -0.259 OA
ATOM      9  C   UNL d   1      53.162  35.014  54.443  0.00  0.00     0.027 A 
ATOM     10  C   UNL d   1      52.246  34.149  53.776  0.00  0.00     0.100 A 
ATOM     11  C   UNL d   1      52.449  34.902  54.049  0.00  0.00     0.027 A 
ENDROOT
BRANCH   1  12
ATOM     12  C   UNL d   1      53.763  32.234  54.135  0.00  0.00     0.100 A 
ATOM     13  O   UNL d   1      53.710  31.999  53.348  0.00  0.00    -0.307 OA
ATOM     14  C   UNL d   1      53.482  31.213  53.338  0.00  0.00     0.100 A 
ATOM     15  C   UNL d   1      53.341  30.689  52.717  0.00  0.00     0.025 A 
ATOM     16  C   UNL d   1      53.391  30.952  54.116  0.00  0.00     0.025 A 
ATOM     17  C   UNL d   1      53.112  29.912  52.877  0.00  0.00     0.002 A 
ATOM     18  C   UNL d   1      53.024  29.660  53.659  0.00  0.00     0.000 A 
ATOM     19  C   UNL d   1      53.165  30.188  54.275  0.00  0.00     0.002 A 
ATOM     20  C   UNL d   1      53.568  31.593  54.611  0.00  0.00     0.027 A 
ENDBRANCH   1  12
BRANCH  10  21
ATOM     21  O   UNL d   1      51.527  34.035  53.379  0.00  0.00    -0.302 OA
BRANCH  21  22
ATOM     22  C   UNL d   1      51.352  34.484  52.722  0.00  0.00     0.165 C 
BRANCH  22  23
ATOM     23  C   UNL d   1      50.683  34.321  52.276  0.00  0.00     0.220 C 
ATOM     24  O   UNL d   1      50.761  34.120  51.479  0.00  0.00    -0.284 OA
ATOM     25  C   UNL d   1      49.933  34.355  52.617  0.00  0.00     0.048 C 
ENDBRANCH  22  23
ENDBRANCH  21  22
ENDBRANCH  10  21
TORSDOF 4
ENDMDL
MODEL 2
REMARK VINA RESULT:     -10.6      0.775      3.569
REMARK  4 active torsions:
REMARK  status: ('A' for Active; 'I' for Inactive)
REMARK    1  A    between atoms: C_2  and  C_1 
REMARK    2  A    between atoms: O_18  and  C_16 
REMARK    3  A    between atoms: C_17  and  C_19 
REMARK    4  A    between atoms: C_19  and  O_18 
ROOT
ATOM      1  C   UNL d   1      52.705  34.392  53.873  0.00  0.00     0.030 A 
ATOM      2  C   UNL d   1      53.201  33.738  53.962  0.00  0.00     0.027 A 
ATOM      3  C   UNL d   1      53.469  35.113  54.833  0.00  0.00     0.300 A 
ATOM      4  C   UNL d   1      52.844  35.077  54.312  0.00  0.00     0.071 A 
ATOM      5  C   UNL d   1      53.834  33.774  54.491  0.00  0.00     0.103 A 
ATOM      6  O   UNL d   1      53.973  34.460  54.929  0.00  0.00    -0.273 OA
ATOM      7  C   UNL d   1      53.064  33.043  53.521  0.00  0.00     0.027 A 
ATOM      8  O   UNL d   1      53.604  35.797  55.268  0.00  0.00    -0.259 OA
ATOM      9  C   UNL d   1      54.329  33.121  54.579  0.00  0.00     0.027 A 
ATOM     10  C   UNL d   1      53.560  32.405  53.617  0.00  0.00     0.100 A 
ATOM     11  C   UNL d   1      54.195  32.437  54.144  0.00  0.00     0.027 A 
ENDROOT
BRANCH   1  12
ATOM     12  C   UNL d   1      52.065  34.350  53.337  0.00  0.00     0.100 A 
ATOM     13  O   UNL d   1      52.111  34.383  52.516  0.00  0.00    -0.307 OA
ATOM     14  C   UNL d   1      51.350  34.321  52.222  0.00  0.00     0.100 A 
ATOM     15  C   UNL d   1      51.056  34.320  51.451  0.00  0.00     0.025 A 
ATOM     16  C   UNL d   1      50.824  34.249  52.855  0.00  0.00     0.025 A 
ATOM     17  C   UNL d   1      50.244  34.247  51.320  0.00  0.00     0.002 A 
ATOM     18  C   UNL d   1      49.726  34.176  51.959  0.00  0.00     0.000 A 
ATOM     19  C   UNL d   1      50.025  34.178  52.726  0.00  0.00     0.002 A 
ATOM     20  C   UNL d   1      51.275  34.268  53.550  0.00  0.00     0.027 A 
ENDBRANCH   1  12
BRANCH  10  21
ATOM     21  O   UNL d   1      53.423  31.715  53.178  0.00  0.00    -0.302 OA
BRANCH  21  22
ATOM     22  C   UNL d   1      53.278  31.012  53.564  0.00  0.00     0.165 C 
BRANCH  22  23
ATOM     23  C   UNL d   1      53.046  30.348  53.140  0.00  0.00     0.220 C 
ATOM     24  O   UNL d   1      52.887  30.413  52.334  0.00  0.00    -0.284 OA
ATOM     25  C   UNL d   1      52.970  29.617  53.514  0.00  0.00     0.048 C 
ENDBRANCH  22  23
ENDBRANCH  21  22
ENDBRANCH  10  21
TORSDOF 4
ENDMDL
MODEL 3
REMARK VINA RESULT:      -9.6      0.889      3.167
REMARK  4 active torsions:
REMARK  status: ('A' for Active; 'I' for Inactive)
REMARK    1  A    between atoms: C_2  and  C_1 
REMARK    2  A    between atoms: O_18  and  C_16 
REMARK    3  A    between atoms: C_17  and  C_19 
REMARK    4  A    between atoms: C_19  and  O_18 
ROOT
ATOM      1  C   UNL d   1      51.958  33.176  52.792  0.00  0.00     0.030 A 
ATOM      2  C   UNL d   1      52.248  33.776  53.281  0.00  0.00     0.027 A 
ATOM      3  C   UNL d   1      51.146  34.121  52.103  0.00  0.00     0.300 A 
ATOM      4  C   UNL d   1      51.407  33.355  52.205  0.00  0.00     0.071 A 
ATOM      5  C   UNL d   1      51.984  34.551  53.177  0.00  0.00     0.103 A 
ATOM      6  O   UNL d   1      51.433  34.729  52.589  0.00  0.00    -0.273 OA
ATOM      7  C   UNL d   1      52.806  33.600  53.876  0.00  0.00     0.027 A 
ATOM      8  O   UNL d   1      50.597  34.293  51.516  0.00  0.00    -0.259 OA
ATOM      9  C   UNL d   1      52.275  35.149  53.665  0.00  0.00     0.027 A 
ATOM     10  C   UNL d   1      53.085  34.199  54.351  0.00  0.00     0.100 A 
ATOM     11  C   UNL d   1      52.824  34.976  54.251  0.00  0.00     0.027 A 
ENDROOT
BRANCH   1  12
ATOM     12  C   UNL d   1      52.228  32.393  52.902  0.00  0.00     0.100 A 
ATOM     13  O   UNL d   1      52.951  32.086  52.658  0.00  0.00    -0.307 OA
ATOM     14  C   UNL d   1      52.976  31.299  52.882  0.00  0.00     0.100 A 
ATOM     15  C   UNL d   1      53.554  30.718  52.788  0.00  0.00     0.025 A 
ATOM     16  C   UNL d   1      52.270  31.109  53.267  0.00  0.00     0.025 A 
ATOM     17  C   UNL d   1      53.422  29.956  53.078  0.00  0.00     0.002 A 
ATOM     18  C   UNL d   1      52.713  29.776  53.461  0.00  0.00     0.000 A 
ATOM     19  C   UNL d   1      52.140  30.360  53.552  0.00  0.00     0.002 A 
ATOM     20  C   UNL d   1      51.806  31.796  53.277  0.00  0.00     0.027 A 
ENDBRANCH   1  12
BRANCH  10  21
ATOM     21  O   UNL d   1      53.639  34.023  54.943  0.00  0.00    -0.302 OA
BRANCH  21  22
ATOM     22  C   UNL d   1      54.435  34.102  54.788  0.00  0.00     0.165 C 
BRANCH  22  23
ATOM     23  C   UNL d   1      54.990  33.804  55.314  0.00  0.00     0.220 C 
ATOM     24  O   UNL d   1      55.764  34.087  55.297  0.00  0.00    -0.284 OA
ATOM     25  C   UNL d   1      54.780  33.222  55.860  0.00  0.00     0.048 C 
ENDBRANCH  22  23
ENDBRANCH  21  22
ENDBRANCH  10  21
TORSDOF 4
ENDMDL
MODEL 4
REMARK VINA RESULT:      -8.7      1.286      3.178
REMARK  4 active torsions:
REMARK  status: ('A' for Active; 'I' for Inactive)
REMARK    1  A    between atoms: C_2  and  C_1 
REMARK    2  A    between atoms: O_18  and  C_16 
REMARK    3  A    between atoms: C_17  and  C_19 
REMARK    4  A    between atoms: C_19  and  O_18 
ROOT
ATOM      1  C   UNL d   1      53.531  31.596  53.793  0.00  0.00     0.030 A 
ATOM      2  C   UNL d   1      52.818  31.792  53.426  0.00  0.00     0.027 A 
ATOM      3  C   UNL d   1      53.329  30.224  53.472  0.00  0.00     0.300 A 
ATOM      4  C   UNL d   1      53.781  30.810  53.813  0.00  0.00     0.071 A 
ATOM      5  C   UNL d   1      52.359  31.198  53.081  0.00  0.00     0.103 A 
ATOM      6  O   UNL d   1      52.611  30.412  53.101  0.00  0.00    -0.273 OA
ATOM      7  C   UNL d   1      52.560  32.585  53.404  0.00  0.00     0.027 A 
ATOM      8  O   UNL d   1      53.583  29.443  53.494  0.00  0.00    -0.259 OA
ATOM      9  C   UNL d   1      51.647  31.394  52.714  0.00  0.00     0.027 A 
ATOM     10  C   UNL d   1      51.855  32.766  53.039  0.00  0.00     0.100 A 
ATOM     11  C   UNL d   1      51.393  32.176  52.692  0.00  0.00     0.027 A 
ENDROOT
BRANCH   1  12
ATOM     12  C   UNL d   1      53.991  32.200  54.142  0.00  0.00     0.100 A 
ATOM     13  O   UNL d   1      53.930  32.480  54.913  0.00  0.00    -0.307 OA
ATOM     14  C   UNL d   1      54.489  33.070  55.009  0.00  0.00     0.100 A 
ATOM     15  C   UNL d   1      54.683  33.545  55.655  0.00  0.00     0.025 A 
ATOM     16  C   UNL d   1      54.902  33.164  54.300  0.00  0.00     0.025 A 
ATOM     17  C   UNL d   1      55.285  34.106  55.588  0.00  0.00     0.002 A 
ATOM     18  C   UNL d   1      55.692  34.192  54.874  0.00  0.00     0.000 A 
ATOM     19  C   UNL d   1      55.495  33.716  54.233  0.00  0.00     0.002 A 
ATOM     20  C   UNL d   1      54.588  32.618  53.761  0.00  0.00     0.027 A 
ENDBRANCH   1  12
BRANCH  10  21
ATOM     21  O   UNL d   1      51.600  33.555  53.018  0.00  0.00    -0.302 OA
BRANCH  21  22
ATOM     22  C   UNL d   1      50.803  33.723  53.046  0.00  0.00     0.165 C 
BRANCH  22  23
ATOM     23  C   UNL d   1      50.545  34.502  53.020  0.00  0.00     0.220 C 
ATOM     24  O   UNL d   1      51.016  35.100  53.337  0.00  0.00    -0.284 OA
ATOM     25  C   UNL d   1      49.818  34.691  52.680  0.00  0.00     0.048 C 
ENDBRANCH  22  23
ENDBRANCH  21  22
ENDBRANCH  10  21
TORSDOF 4
ENDMDL
MODEL 5
REMARK VINA RESULT:      -8.7      1.041      3.605
REMARK  4 active torsions:
REMARK  status: ('A' for Active; 'I' for Inactive)
REMARK    1  A    between atoms: C_2  and  C_1 
REMARK    2  A    between atoms: O_18  and  C_16 
REMARK    3  A    between atoms: C_17  and  C_19 
REMARK    4  A    between atoms: C_19  and  O_18 
ROOT
ATOM      1  C   UNL d   1      52.536  32.234  53.119  0.00  0.00     0.030 A 
ATOM      2  C   UNL d   1      53.200  32.519  53.519  0.00  0.00     0.027 A 
ATOM      3  C   UNL d   1      53.051  30.910  53.189  0.00  0.00     0.300 A 
ATOM      4  C   UNL d   1      52.467  31.429  52.957  0.00  0.00     0.071 A 
ATOM      5  C   UNL d   1      53.792  31.994  53.754  0.00  0.00     0.103 A 
ATOM      6  O   UNL d   1      53.722  31.188  53.591  0.00  0.00    -0.273 OA
ATOM      7  C   UNL d   1      53.274  33.333  53.685  0.00  0.00     0.027 A 
ATOM      8  O   UNL d   1      52.979  30.108  53.025  0.00  0.00    -0.259 OA
ATOM      9  C   UNL d   1      54.455  32.278  54.153  0.00  0.00     0.027 A 
ATOM     10  C   UNL d   1      53.933  33.602  54.080  0.00  0.00     0.100 A 
ATOM     11  C   UNL d   1      54.528  33.080  54.317  0.00  0.00     0.027 A 
ENDROOT
BRANCH   1  12
ATOM     12  C   UNL d   1      51.939  32.771  52.883  0.00  0.00     0.100 A 
ATOM     13  O   UNL d   1      51.935  33.230  52.201  0.00  0.00    -0.307 OA
ATOM     14  C   UNL d   1      51.245  33.669  52.200  0.00  0.00     0.100 A 
ATOM     15  C   UNL d   1      50.942  34.219  51.665  0.00  0.00     0.025 A 
ATOM     16  C   UNL d   1      50.813  33.488  52.881  0.00  0.00     0.025 A 
ATOM     17  C   UNL d   1      50.215  34.582  51.813  0.00  0.00     0.002 A 
ATOM     18  C   UNL d   1      49.792  34.394  52.497  0.00  0.00     0.000 A 
ATOM     19  C   UNL d   1      50.098  33.845  53.027  0.00  0.00     0.002 A 
ATOM     20  C   UNL d   1      51.251  32.926  53.305  0.00  0.00     0.027 A 
ENDBRANCH   1  12
BRANCH  10  21
ATOM     21  O   UNL d   1      54.005  34.412  54.245  0.00  0.00    -0.302 OA
BRANCH  21  22
ATOM     22  C   UNL d   1      53.533  34.753  54.815  0.00  0.00     0.165 C 
BRANCH  22  23
ATOM     23  C   UNL d   1      53.321  35.543  54.758  0.00  0.00     0.220 C 
ATOM     24  O   UNL d   1      53.787  36.061  54.317  0.00  0.00    -0.284 OA
ATOM     25  C   UNL d   1      52.644  35.824  55.137  0.00  0.00     0.048 C 
ENDBRANCH  22  23
ENDBRANCH  21  22
ENDBRANCH  10  21
TORSDOF 4
ENDMDL
