MODEL 1
REMARK VINA RESULT:      -1.7      0.000      0.000
REMARK  6 active torsions:
REMARK  status: ('A' for Active; 'I' for Inactive)
REMARK    1  A    between atoms: N_5  and  S_1 
REMARK    2  A    between atoms: C_6  and  S_1 
REMARK    3  A    between atoms: C_2  and  C_10 
REMARK       I    between atoms: N_3  and  C_2 
REMARK    4  A    between atoms: C_11  and  N_4 
REMARK    5  A    between atoms: C_17  and  N_5 
REMARK    6  A    between atoms: O_29  and  C_23 
ROOT
ATOM      1  C   UNL d   1      58.408   0.206  30.224  0.00  0.00     0.057 A 
ATOM      2  C   UNL d   1      57.609   0.506  31.635  0.00  0.00     0.094 A 
ATOM      3  C   UNL d   1      58.779   0.055  30.949  0.00  0.00     0.006 A 
ATOM      4  C   UNL d   1      57.639   0.506  30.214  0.00  0.00     0.006 A 
ATOM      5  C   UNL d   1      58.373   0.208  31.651  0.00  0.00     0.020 A 
ATOM      6  C   UNL d   1      57.244   0.655  30.909  0.00  0.00     0.020 A 
ENDROOT
BRANCH   1   7
ATOM      7  C   UNL d   1      58.809   0.056  29.511  0.00  0.00     0.265 C 
ATOM      8  N   UNL d   1      59.118  -0.699  29.355  0.00  0.00    -0.269 N 
ATOM      9  C   UNL d   1      59.510  -0.843  28.655  0.00  0.00     0.102 A 
ATOM     10  C   UNL d   1      59.026  -1.300  29.910  0.00  0.00     0.102 A 
ATOM     11  C   UNL d   1      59.817  -1.593  28.500  0.00  0.00     0.100 A 
ATOM     12  N   UNL d   1      59.723  -2.190  29.057  0.00  0.00    -0.301 N 
ATOM     13  C   UNL d   1      59.331  -2.045  29.758  0.00  0.00     0.100 A 
ATOM     14  O   UNL d   1      58.898   0.659  28.958  0.00  0.00    -0.267 OA
BRANCH  12  15
ATOM     15  C   UNL d   1      60.023  -2.927  28.909  0.00  0.00     0.064 A 
ATOM     16  C   UNL d   1      59.512  -3.548  28.724  0.00  0.00     0.020 A 
ATOM     17  C   UNL d   1      59.813  -4.295  28.573  0.00  0.00     0.026 A 
ATOM     18  C   UNL d   1      60.627  -4.430  28.606  0.00  0.00     0.094 A 
ATOM     19  C   UNL d   1      61.133  -3.800  28.793  0.00  0.00     0.026 A 
ATOM     20  C   UNL d   1      60.830  -3.060  28.941  0.00  0.00     0.020 A 
BRANCH  18  21
ATOM     21  O   UNL d   1      60.929  -5.178  28.455  0.00  0.00    -0.328 OA
ATOM     22  C   UNL d   1      60.847  -5.771  29.019  0.00  0.00     0.181 C 
ENDBRANCH  18  21
ENDBRANCH  12  15
ENDBRANCH   1   7
BRANCH   2  23
ATOM     23  N   UNL d   1      57.220   0.652  32.336  0.00  0.00    -0.158 NA
BRANCH  23  24
ATOM     24  S   UNL d   1      56.676   0.109  32.638  0.00  0.00     0.285 S 
ATOM     25  O   UNL d   1      56.203   0.219  31.978  0.00  0.00    -0.198 OA
ATOM     26  O   UNL d   1      57.159   0.008  33.295  0.00  0.00    -0.198 OA
BRANCH  24  27
ATOM     27  C   UNL d   1      56.142  -0.431  32.945  0.00  0.00     0.107 A 
ATOM     28  C   UNL d   1      56.096  -1.188  32.638  0.00  0.00     0.043 A 
ATOM     29  C   UNL d   1      55.557  -1.734  32.950  0.00  0.00     0.141 A 
ATOM     30  F   UNL d   1      55.506  -2.504  32.641  0.00  0.00    -0.204 F 
ATOM     31  C   UNL d   1      55.063  -1.510  33.574  0.00  0.00     0.030 A 
ATOM     32  C   UNL d   1      55.110  -0.742  33.886  0.00  0.00     0.003 A 
ATOM     33  C   UNL d   1      55.651  -0.204  33.569  0.00  0.00     0.013 A 
ENDBRANCH  24  27
ENDBRANCH  23  24
ENDBRANCH   2  23
TORSDOF 6
ENDMDL
MODEL 2
REMARK VINA RESULT:       0.3      1.956      6.418
REMARK  6 active torsions:
REMARK  status: ('A' for Active; 'I' for Inactive)
REMARK    1  A    between atoms: N_5  and  S_1 
REMARK    2  A    between atoms: C_6  and  S_1 
REMARK    3  A    between atoms: C_2  and  C_10 
REMARK       I    between atoms: N_3  and  C_2 
REMARK    4  A    between atoms: C_11  and  N_4 
REMARK    5  A    between atoms: C_17  and  N_5 
REMARK    6  A    between atoms: O_29  and  C_23 
ROOT
ATOM      1  C   UNL d   1      58.257   0.081  31.674  0.00  0.00     0.057 A 
ATOM      2  C   UNL d   1      58.322  -0.434  30.108  0.00  0.00     0.094 A 
ATOM      3  C   UNL d   1      57.692  -0.455  31.391  0.00  0.00     0.006 A 
ATOM      4  C   UNL d   1      58.849   0.354  31.168  0.00  0.00     0.006 A 
ATOM      5  C   UNL d   1      57.731  -0.708  30.607  0.00  0.00     0.020 A 
ATOM      6  C   UNL d   1      58.883   0.101  30.396  0.00  0.00     0.020 A 
ENDROOT
BRANCH   1   7
ATOM      7  C   UNL d   1      58.227   0.342  32.463  0.00  0.00     0.265 C 
ATOM      8  N   UNL d   1      57.501   0.383  32.863  0.00  0.00    -0.269 N 
ATOM      9  C   UNL d   1      57.474   0.639  33.636  0.00  0.00     0.102 A 
ATOM     10  C   UNL d   1      56.808   0.163  32.476  0.00  0.00     0.102 A 
ATOM     11  C   UNL d   1      56.752   0.680  34.034  0.00  0.00     0.100 A 
ATOM     12  N   UNL d   1      56.064   0.460  33.643  0.00  0.00    -0.301 N 
ATOM     13  C   UNL d   1      56.090   0.203  32.869  0.00  0.00     0.100 A 
ATOM     14  O   UNL d   1      58.921   0.561  32.847  0.00  0.00    -0.267 OA
BRANCH  12  15
ATOM     15  C   UNL d   1      55.353   0.498  34.030  0.00  0.00     0.064 A 
ATOM     16  C   UNL d   1      55.336   0.502  34.855  0.00  0.00     0.020 A 
ATOM     17  C   UNL d   1      54.619   0.540  35.249  0.00  0.00     0.026 A 
ATOM     18  C   UNL d   1      53.912   0.576  34.824  0.00  0.00     0.094 A 
ATOM     19  C   UNL d   1      53.939   0.571  33.994  0.00  0.00     0.026 A 
ATOM     20  C   UNL d   1      54.654   0.533  33.608  0.00  0.00     0.020 A 
BRANCH  18  21
ATOM     21  O   UNL d   1      53.193   0.614  35.218  0.00  0.00    -0.328 OA
ATOM     22  C   UNL d   1      52.494   0.650  34.786  0.00  0.00     0.181 C 
ENDBRANCH  18  21
ENDBRANCH  12  15
ENDBRANCH   1   7
BRANCH   2  23
ATOM     23  N   UNL d   1      58.349  -0.692  29.336  0.00  0.00    -0.158 NA
BRANCH  23  24
ATOM     24  S   UNL d   1      58.823  -1.334  29.121  0.00  0.00     0.285 S 
ATOM     25  O   UNL d   1      59.492  -0.893  29.292  0.00  0.00    -0.198 OA
ATOM     26  O   UNL d   1      58.143  -1.765  28.953  0.00  0.00    -0.198 OA
BRANCH  24  27
ATOM     27  C   UNL d   1      59.284  -1.975  28.906  0.00  0.00     0.107 A 
ATOM     28  C   UNL d   1      58.964  -2.728  28.890  0.00  0.00     0.043 A 
ATOM     29  C   UNL d   1      59.432  -3.376  28.672  0.00  0.00     0.141 A 
ATOM     30  F   UNL d   1      59.111  -4.143  28.654  0.00  0.00    -0.204 F 
ATOM     31  C   UNL d   1      60.225  -3.259  28.471  0.00  0.00     0.030 A 
ATOM     32  C   UNL d   1      60.550  -2.495  28.488  0.00  0.00     0.003 A 
ATOM     33  C   UNL d   1      60.076  -1.854  28.706  0.00  0.00     0.013 A 
ENDBRANCH  24  27
ENDBRANCH  23  24
ENDBRANCH   2  23
TORSDOF 6
ENDMDL
MODEL 3
REMARK VINA RESULT:       0.5      1.812      5.863
REMARK  6 active torsions:
REMARK  status: ('A' for Active; 'I' for Inactive)
REMARK    1  A    between atoms: N_5  and  S_1 
REMARK    2  A    between atoms: C_6  and  S_1 
REMARK    3  A    between atoms: C_2  and  C_10 
REMARK       I    between atoms: N_3  and  C_2 
REMARK    4  A    between atoms: C_11  and  N_4 
REMARK    5  A    between atoms: C_17  and  N_5 
REMARK    6  A    between atoms: O_29  and  C_23 
ROOT
ATOM      1  C   UNL d   1      58.666  -0.382  29.374  0.00  0.00     0.057 A 
ATOM      2  C   UNL d   1      59.887  -1.442  29.050  0.00  0.00     0.094 A 
ATOM      3  C   UNL d   1      59.192  -0.603  29.975  0.00  0.00     0.006 A 
ATOM      4  C   UNL d   1      58.757  -0.696  28.616  0.00  0.00     0.006 A 
ATOM      5  C   UNL d   1      59.801  -1.134  29.805  0.00  0.00     0.020 A 
ATOM      6  C   UNL d   1      59.359  -1.219  28.455  0.00  0.00     0.020 A 
ENDROOT
BRANCH   1   7
ATOM      7  C   UNL d   1      58.049   0.152  29.535  0.00  0.00     0.265 C 
ATOM      8  N   UNL d   1      57.679   0.153  30.278  0.00  0.00    -0.269 N 
ATOM      9  C   UNL d   1      57.075   0.678  30.433  0.00  0.00     0.102 A 
ATOM     10  C   UNL d   1      57.925  -0.378  30.858  0.00  0.00     0.102 A 
ATOM     11  C   UNL d   1      56.707   0.678  31.172  0.00  0.00     0.100 A 
ATOM     12  N   UNL d   1      56.956   0.147  31.746  0.00  0.00    -0.301 N 
ATOM     13  C   UNL d   1      57.560  -0.378  31.592  0.00  0.00     0.100 A 
ATOM     14  O   UNL d   1      57.806   0.681  28.954  0.00  0.00    -0.267 OA
BRANCH  12  15
ATOM     15  C   UNL d   1      56.597   0.145  32.472  0.00  0.00     0.064 A 
ATOM     16  C   UNL d   1      56.898   0.616  33.079  0.00  0.00     0.020 A 
ATOM     17  C   UNL d   1      56.537   0.616  33.815  0.00  0.00     0.026 A 
ATOM     18  C   UNL d   1      55.872   0.146  33.953  0.00  0.00     0.094 A 
ATOM     19  C   UNL d   1      55.577  -0.325  33.336  0.00  0.00     0.026 A 
ATOM     20  C   UNL d   1      55.939  -0.321  32.608  0.00  0.00     0.020 A 
BRANCH  18  21
ATOM     21  O   UNL d   1      55.511   0.146  34.689  0.00  0.00    -0.328 OA
ATOM     22  C   UNL d   1      54.788   0.526  34.788  0.00  0.00     0.181 C 
ENDBRANCH  18  21
ENDBRANCH  12  15
ENDBRANCH   1   7
BRANCH   2  23
ATOM     23  N   UNL d   1      60.493  -1.965  28.896  0.00  0.00    -0.158 NA
BRANCH  23  24
ATOM     24  S   UNL d   1      60.348  -2.778  28.853  0.00  0.00     0.285 S 
ATOM     25  O   UNL d   1      61.102  -2.925  29.135  0.00  0.00    -0.198 OA
ATOM     26  O   UNL d   1      59.593  -2.617  28.569  0.00  0.00    -0.198 OA
BRANCH  24  27
ATOM     27  C   UNL d   1      60.195  -3.581  28.806  0.00  0.00     0.107 A 
ATOM     28  C   UNL d   1      59.437  -3.850  28.655  0.00  0.00     0.043 A 
ATOM     29  C   UNL d   1      59.284  -4.663  28.608  0.00  0.00     0.141 A 
ATOM     30  F   UNL d   1      58.515  -4.941  28.455  0.00  0.00    -0.204 F 
ATOM     31  C   UNL d   1      59.901  -5.202  28.714  0.00  0.00     0.030 A 
ATOM     32  C   UNL d   1      60.671  -4.929  28.868  0.00  0.00     0.003 A 
ATOM     33  C   UNL d   1      60.815  -4.117  28.913  0.00  0.00     0.013 A 
ENDBRANCH  24  27
ENDBRANCH  23  24
ENDBRANCH   2  23
TORSDOF 6
ENDMDL
