MODEL 1
REMARK VINA RESULT:      37.9      0.000      0.000
REMARK  3 active torsions:
REMARK  status: ('A' for Active; 'I' for Inactive)
REMARK    1  A    between atoms: C_9  and  N_1 
REMARK    2  A    between atoms: C_5  and  C_9 
REMARK       I    between atoms: N_8  and  C_5 
REMARK    3  A    between atoms: O_14  and  C_12 
ROOT
ATOM      1  N   UNL d   1      13.582  13.073  -2.539  0.00  0.00    -0.268 N 
ATOM      2  C   UNL d   1      13.470  12.478  -1.985  0.00  0.00     0.265 A 
ATOM      3  C   UNL d   1      13.972  12.433  -1.327  0.00  0.00     0.059 A 
ATOM      4  C   UNL d   1      14.578  12.981  -1.231  0.00  0.00     0.028 A 
ATOM      5  C   UNL d   1      14.690  13.576  -1.786  0.00  0.00     0.021 A 
ATOM      6  C   UNL d   1      14.195  13.624  -2.439  0.00  0.00     0.083 A 
ATOM      7  O   UNL d   1      12.864  11.929  -2.079  0.00  0.00    -0.267 OA
ATOM      8  C   UNL d   1      15.074  12.931  -0.575  0.00  0.00     0.094 A 
ATOM      9  C   UNL d   1      13.854  11.833  -0.773  0.00  0.00     0.005 A 
ATOM     10  C   UNL d   1      14.351  11.780  -0.113  0.00  0.00     0.002 A 
ATOM     11  C   UNL d   1      14.957  12.326  -0.014  0.00  0.00     0.024 A 
ENDROOT
BRANCH   1  12
ATOM     12  C   UNL d   1      13.088  13.121  -3.192  0.00  0.00     0.144 C 
BRANCH  12  13
ATOM     13  C   UNL d   1      13.160  12.575  -3.815  0.00  0.00     0.283 C 
ATOM     14  N   UNL d   1      13.337  12.847  -4.570  0.00  0.00    -0.271 N 
ATOM     15  C   UNL d   1      13.394  12.221  -5.153  0.00  0.00     0.083 A 
ATOM     16  C   UNL d   1      13.417  13.585  -4.615  0.00  0.00     0.083 A 
ATOM     17  C   UNL d   1      13.533  12.201  -5.859  0.00  0.00     0.019 A 
ATOM     18  C   UNL d   1      13.696  12.848  -6.364  0.00  0.00     0.002 A 
ATOM     19  C   UNL d   1      13.729  13.697  -6.123  0.00  0.00     0.002 A 
ATOM     20  C   UNL d   1      13.600  14.044  -5.312  0.00  0.00     0.019 A 
ATOM     21  O   UNL d   1      13.058  11.779  -3.683  0.00  0.00    -0.265 OA
ENDBRANCH  12  13
ENDBRANCH   1  12
BRANCH   8  22
ATOM     22  O   UNL d   1      15.683  13.473  -0.469  0.00  0.00    -0.328 OA
ATOM     23  C   UNL d   1      15.535  14.191  -0.109  0.00  0.00     0.181 C 
ENDBRANCH   8  22
TORSDOF 3
ENDMDL
