MODEL 1
REMARK VINA RESULT:      31.1      0.000      0.000
REMARK  4 active torsions:
REMARK  status: ('A' for Active; 'I' for Inactive)
REMARK    1  A    between atoms: C_10  and  C_3 
REMARK    2  A    between atoms: C_12  and  N_6 
REMARK    3  A    between atoms: O_15  and  C_10 
REMARK    4  A    between atoms: C_18  and  O_15 
ROOT
ATOM      1  C   UNL d   1     -58.569 -98.811 -43.874  0.00  0.00     0.086 A 
ATOM      2  C   UNL d   1     -58.909 -98.793 -44.626  0.00  0.00     0.038 A 
ATOM      3  C   UNL d   1     -58.433 -98.794 -45.298  0.00  0.00     0.165 A 
ATOM      4  C   UNL d   1     -57.746 -98.829 -43.798  0.00  0.00     0.282 A 
ATOM      5  N   UNL d   1     -57.617 -98.812 -45.218  0.00  0.00    -0.157 NA
ATOM      6  N   UNL d   1     -57.274 -98.829 -44.468  0.00  0.00    -0.194 N 
ATOM      7  C   UNL d   1     -59.180 -98.806 -43.319  0.00  0.00     0.137 A 
ATOM      8  C   UNL d   1     -59.727 -98.778 -44.540  0.00  0.00     0.039 A 
ATOM      9  S   UNL d   1     -59.898 -98.786 -43.723  0.00  0.00    -0.066 SA
ATOM     10  O   UNL d   1     -57.402 -98.846 -43.049  0.00  0.00    -0.265 OA
ATOM     11  N   UNL d   1     -59.087 -98.819 -42.496  0.00  0.00    -0.141 N 
ENDROOT
BRANCH   6  12
ATOM     12  C   UNL d   1     -56.451 -98.847 -44.392  0.00  0.00     0.086 A 
ATOM     13  C   UNL d   1     -56.104 -98.798 -43.648  0.00  0.00     0.019 A 
ATOM     14  C   UNL d   1     -55.284 -98.816 -43.575  0.00  0.00     0.002 A 
ATOM     15  C   UNL d   1     -54.811 -98.883 -44.247  0.00  0.00     0.000 A 
ATOM     16  C   UNL d   1     -55.161 -98.933 -44.995  0.00  0.00     0.002 A 
ATOM     17  C   UNL d   1     -55.981 -98.915 -45.067  0.00  0.00     0.019 A 
ENDBRANCH   6  12
BRANCH   3  18
ATOM     18  C   UNL d   1     -58.777 -98.776 -46.048  0.00  0.00     0.320 C 
ATOM     19  O   UNL d   1     -58.300 -98.779 -46.720  0.00  0.00    -0.257 OA
BRANCH  18  20
ATOM     20  O   UNL d   1     -59.600 -98.756 -46.123  0.00  0.00    -0.270 OA
BRANCH  20  21
ATOM     21  C   UNL d   1     -59.945 -98.763 -46.870  0.00  0.00     0.126 C 
ATOM     22  C   UNL d   1     -59.943 -99.454 -47.317  0.00  0.00     0.029 C 
ENDBRANCH  20  21
ENDBRANCH  18  20
ENDBRANCH   3  18
TORSDOF 4
ENDMDL
