MODEL 1
REMARK VINA RESULT:     106.7      0.000      0.000
REMARK  5 active torsions:
REMARK  status: ('A' for Active; 'I' for Inactive)
REMARK    1  A    between atoms: N_10  and  C_3 
REMARK    2  A    between atoms: N_11  and  C_6 
REMARK    3  A    between atoms: C_12  and  N_10 
REMARK    4  A    between atoms: C_13  and  N_11 
REMARK    5  A    between atoms: C_21  and  C_13 
ROOT
ATOM      1  C   UNL d   1      60.967  45.009  49.247  0.00  0.00     0.187 A 
ATOM      2  C   UNL d   1      61.557  44.505  49.386  0.00  0.00     0.094 A 
ATOM      3  C   UNL d   1      62.247  44.771  49.666  0.00  0.00     0.185 A 
ATOM      4  N   UNL d   1      61.060  45.774  49.385  0.00  0.00    -0.040 NA
ATOM      5  N   UNL d   1      62.333  45.540  49.802  0.00  0.00    -0.040 NA
ATOM      6  C   UNL d   1      61.741  46.041  49.662  0.00  0.00     0.753 A 
ATOM      7  N   UNL d   1      60.185  43.965  48.828  0.00  0.00    -0.162 NA
ATOM      8  N   UNL d   1      60.277  44.744  48.968  0.00  0.00    -0.208 N 
ATOM      9  C   UNL d   1      60.777  43.465  48.968  0.00  0.00     0.127 A 
ATOM     10  C   UNL d   1      59.688  45.242  48.828  0.00  0.00     0.123 C 
ENDROOT
BRANCH   3  11
ATOM     11  N   UNL d   1      62.868  44.256  49.814  0.00  0.00    -0.226 NA
BRANCH  11  12
ATOM     12  C   UNL d   1      62.776  43.637  50.347  0.00  0.00     0.083 A 
ATOM     13  C   UNL d   1      62.299  43.724  51.023  0.00  0.00     0.021 A 
ATOM     14  C   UNL d   1      62.206  43.104  51.559  0.00  0.00     0.031 A 
ATOM     15  C   UNL d   1      62.595  42.382  51.420  0.00  0.00     0.140 A 
ATOM     16  C   UNL d   1      63.066  42.291  50.754  0.00  0.00     0.031 A 
ATOM     17  F   UNL d   1      62.508  41.758  51.948  0.00  0.00    -0.204 F 
ATOM     18  C   UNL d   1      63.158  42.919  50.215  0.00  0.00     0.021 A 
ENDBRANCH  11  12
ENDBRANCH   3  11
BRANCH   6  19
ATOM     19  N   UNL d   1      61.844  46.852  49.809  0.00  0.00    -0.058 NA
BRANCH  19  20
ATOM     20  C   UNL d   1      61.455  47.206  50.453  0.00  0.00     0.118 C 
BRANCH  20  21
ATOM     21  C   UNL d   1      61.144  47.955  50.610  0.00  0.00     0.020 A 
ATOM     22  C   UNL d   1      61.509  48.637  50.311  0.00  0.00     0.002 A 
ATOM     23  C   UNL d   1      61.184  49.384  50.478  0.00  0.00     0.000 A 
ATOM     24  C   UNL d   1      60.505  49.448  50.935  0.00  0.00     0.000 A 
ATOM     25  C   UNL d   1      60.141  48.775  51.231  0.00  0.00     0.000 A 
ATOM     26  C   UNL d   1      60.461  48.030  51.069  0.00  0.00     0.002 A 
ENDBRANCH  20  21
ENDBRANCH  19  20
ENDBRANCH   6  19
TORSDOF 5
ENDMDL
MODEL 2
REMARK VINA RESULT:     109.1      7.305      8.652
REMARK  5 active torsions:
REMARK  status: ('A' for Active; 'I' for Inactive)
REMARK    1  A    between atoms: N_10  and  C_3 
REMARK    2  A    between atoms: N_11  and  C_6 
REMARK    3  A    between atoms: C_12  and  N_10 
REMARK    4  A    between atoms: C_13  and  N_11 
REMARK    5  A    between atoms: C_21  and  C_13 
ROOT
ATOM      1  C   UNL d   1      57.895  38.285  55.012  0.00  0.00     0.187 A 
ATOM      2  C   UNL d   1      58.608  38.540  55.230  0.00  0.00     0.094 A 
ATOM      3  C   UNL d   1      58.687  39.243  55.582  0.00  0.00     0.185 A 
ATOM      4  N   UNL d   1      57.261  38.725  55.141  0.00  0.00    -0.040 NA
ATOM      5  N   UNL d   1      58.046  39.681  55.708  0.00  0.00    -0.040 NA
ATOM      6  C   UNL d   1      57.335  39.422  55.489  0.00  0.00     0.753 A 
ATOM      7  N   UNL d   1      58.462  37.134  54.529  0.00  0.00    -0.162 NA
ATOM      8  N   UNL d   1      57.816  37.582  54.660  0.00  0.00    -0.208 N 
ATOM      9  C   UNL d   1      59.173  37.393  54.749  0.00  0.00     0.127 A 
ATOM     10  C   UNL d   1      57.108  37.325  54.442  0.00  0.00     0.123 C 
ENDROOT
BRANCH   3  11
ATOM     11  N   UNL d   1      59.424  39.519  55.813  0.00  0.00    -0.226 NA
BRANCH  11  12
ATOM     12  C   UNL d   1      59.625  40.308  55.704  0.00  0.00     0.083 A 
ATOM     13  C   UNL d   1      59.904  40.580  54.969  0.00  0.00     0.021 A 
ATOM     14  C   UNL d   1      60.106  41.372  54.857  0.00  0.00     0.031 A 
ATOM     15  C   UNL d   1      60.029  41.905  55.491  0.00  0.00     0.140 A 
ATOM     16  C   UNL d   1      59.754  41.643  56.219  0.00  0.00     0.031 A 
ATOM     17  F   UNL d   1      60.228  42.697  55.390  0.00  0.00    -0.204 F 
ATOM     18  C   UNL d   1      59.551  40.843  56.327  0.00  0.00     0.021 A 
ENDBRANCH  11  12
ENDBRANCH   3  11
BRANCH   6  19
ATOM     19  N   UNL d   1      56.665  39.893  55.628  0.00  0.00    -0.058 NA
BRANCH  19  20
ATOM     20  C   UNL d   1      56.108  40.008  55.020  0.00  0.00     0.118 C 
BRANCH  20  21
ATOM     21  C   UNL d   1      56.084  40.452  54.324  0.00  0.00     0.020 A 
ATOM     22  C   UNL d   1      56.061  40.078  53.584  0.00  0.00     0.002 A 
ATOM     23  C   UNL d   1      56.037  40.539  52.892  0.00  0.00     0.000 A 
ATOM     24  C   UNL d   1      56.035  41.359  52.939  0.00  0.00     0.000 A 
ATOM     25  C   UNL d   1      56.057  41.730  53.671  0.00  0.00     0.000 A 
ATOM     26  C   UNL d   1      56.081  41.277  54.362  0.00  0.00     0.002 A 
ENDBRANCH  20  21
ENDBRANCH  19  20
ENDBRANCH   6  19
TORSDOF 5
ENDMDL
MODEL 3
REMARK VINA RESULT:     109.2      2.289      5.178
REMARK  5 active torsions:
REMARK  status: ('A' for Active; 'I' for Inactive)
REMARK    1  A    between atoms: N_10  and  C_3 
REMARK    2  A    between atoms: N_11  and  C_6 
REMARK    3  A    between atoms: C_12  and  N_10 
REMARK    4  A    between atoms: C_13  and  N_11 
REMARK    5  A    between atoms: C_21  and  C_13 
ROOT
ATOM      1  C   UNL d   1      61.633  46.715  50.084  0.00  0.00     0.187 A 
ATOM      2  C   UNL d   1      61.440  47.419  50.382  0.00  0.00     0.094 A 
ATOM      3  C   UNL d   1      61.046  47.466  51.065  0.00  0.00     0.185 A 
ATOM      4  N   UNL d   1      61.436  46.058  50.462  0.00  0.00    -0.040 NA
ATOM      5  N   UNL d   1      60.851  46.802  51.440  0.00  0.00    -0.040 NA
ATOM      6  C   UNL d   1      61.046  46.100  51.139  0.00  0.00     0.753 A 
ATOM      7  N   UNL d   1      62.227  47.337  49.017  0.00  0.00    -0.162 NA
ATOM      8  N   UNL d   1      62.027  46.668  49.401  0.00  0.00    -0.208 N 
ATOM      9  C   UNL d   1      62.032  48.039  49.318  0.00  0.00     0.127 A 
ATOM     10  C   UNL d   1      62.221  45.969  49.102  0.00  0.00     0.123 C 
ENDROOT
BRANCH   3  11
ATOM     11  N   UNL d   1      60.840  48.192  51.385  0.00  0.00    -0.226 NA
BRANCH  11  12
ATOM     12  C   UNL d   1      60.152  48.571  51.144  0.00  0.00     0.083 A 
ATOM     13  C   UNL d   1      60.168  49.146  50.543  0.00  0.00     0.021 A 
ATOM     14  C   UNL d   1      59.478  49.528  50.301  0.00  0.00     0.031 A 
ATOM     15  C   UNL d   1      58.755  49.333  50.664  0.00  0.00     0.140 A 
ATOM     16  C   UNL d   1      58.733  48.766  51.258  0.00  0.00     0.031 A 
ATOM     17  F   UNL d   1      58.062  49.707  50.429  0.00  0.00    -0.204 F 
ATOM     18  C   UNL d   1      59.432  48.383  51.499  0.00  0.00     0.021 A 
ENDBRANCH  11  12
ENDBRANCH   3  11
BRANCH   6  19
ATOM     19  N   UNL d   1      60.835  45.406  51.543  0.00  0.00    -0.058 NA
BRANCH  19  20
ATOM     20  C   UNL d   1      60.922  44.668  51.169  0.00  0.00     0.118 C 
BRANCH  20  21
ATOM     21  C   UNL d   1      61.273  43.948  51.369  0.00  0.00     0.020 A 
ATOM     22  C   UNL d   1      61.094  43.574  52.087  0.00  0.00     0.002 A 
ATOM     23  C   UNL d   1      61.456  42.849  52.275  0.00  0.00     0.000 A 
ATOM     24  C   UNL d   1      61.987  42.504  51.753  0.00  0.00     0.000 A 
ATOM     25  C   UNL d   1      62.166  42.872  51.041  0.00  0.00     0.000 A 
ATOM     26  C   UNL d   1      61.809  43.593  50.850  0.00  0.00     0.002 A 
ENDBRANCH  20  21
ENDBRANCH  19  20
ENDBRANCH   6  19
TORSDOF 5
ENDMDL
