MODEL 1
REMARK VINA RESULT:      -7.9      0.000      0.000
REMARK  4 active torsions:
REMARK  status: ('A' for Active; 'I' for Inactive)
REMARK    1  A    between atoms: C_18  and  C_5 
REMARK    2  A    between atoms: C_7  and  C_8 
REMARK       I    between atoms: C_8  and  N_17 
REMARK    3  A    between atoms: N_17  and  C_19 
REMARK    4  A    between atoms: C_19  and  C_18 
ROOT
ATOM      1  C   UNL d   1      53.324  30.844  53.490  0.00  0.00     0.148 A 
ATOM      2  N   UNL d   1      53.492  30.860  54.299  0.00  0.00    -0.288 N 
ATOM      3  N   UNL d   1      53.421  31.600  53.196  0.00  0.00    -0.227 NA
ATOM      4  C   UNL d   1      53.695  31.640  54.495  0.00  0.00     0.101 A 
ATOM      5  C   UNL d   1      53.650  32.093  53.809  0.00  0.00     0.102 A 
ATOM      6  C   UNL d   1      53.103  30.130  53.140  0.00  0.00     0.035 A 
ATOM      7  C   UNL d   1      53.441  30.175  54.752  0.00  0.00     0.082 A 
ATOM      8  C   UNL d   1      53.221  29.470  54.398  0.00  0.00     0.019 A 
ATOM      9  C   UNL d   1      53.050  29.443  53.585  0.00  0.00     0.004 A 
ATOM     10  C   UNL d   1      52.930  30.102  52.323  0.00  0.00     0.003 C 
ENDROOT
BRANCH   5  11
ATOM     11  C   UNL d   1      53.807  32.905  53.744  0.00  0.00     0.042 C 
BRANCH  11  12
ATOM     12  C   UNL d   1      53.184  33.439  53.628  0.00  0.00     0.104 C 
BRANCH  12  13
ATOM     13  N   UNL d   1      53.245  34.208  53.904  0.00  0.00    -0.205 NA
ATOM     14  C   UNL d   1      52.678  34.773  53.692  0.00  0.00     0.302 C 
ATOM     15  O   UNL d   1      52.744  35.534  53.970  0.00  0.00    -0.263 OA
BRANCH  14  16
ATOM     16  C   UNL d   1      52.051  34.554  53.200  0.00  0.00     0.158 A 
ATOM     17  O   UNL d   1      51.322  34.367  53.524  0.00  0.00    -0.300 OA
ATOM     18  C   UNL d   1      50.808  34.173  52.907  0.00  0.00     0.123 A 
ATOM     19  C   UNL d   1      51.217  34.239  52.206  0.00  0.00     0.029 A 
ATOM     20  C   UNL d   1      51.996  34.478  52.384  0.00  0.00     0.032 A 
ENDBRANCH  14  16
ENDBRANCH  12  13
ENDBRANCH  11  12
ENDBRANCH   5  11
TORSDOF 4
ENDMDL
MODEL 2
REMARK VINA RESULT:      -7.8      2.192      4.476
REMARK  4 active torsions:
REMARK  status: ('A' for Active; 'I' for Inactive)
REMARK    1  A    between atoms: C_18  and  C_5 
REMARK    2  A    between atoms: C_7  and  C_8 
REMARK       I    between atoms: C_8  and  N_17 
REMARK    3  A    between atoms: N_17  and  C_19 
REMARK    4  A    between atoms: C_19  and  C_18 
ROOT
ATOM      1  C   UNL d   1      53.846  33.189  54.330  0.00  0.00     0.148 A 
ATOM      2  N   UNL d   1      53.154  33.428  53.948  0.00  0.00    -0.288 N 
ATOM      3  N   UNL d   1      54.055  32.454  54.040  0.00  0.00    -0.227 NA
ATOM      4  C   UNL d   1      52.943  32.826  53.418  0.00  0.00     0.101 A 
ATOM      5  C   UNL d   1      53.503  32.227  53.480  0.00  0.00     0.102 A 
ATOM      6  C   UNL d   1      54.186  33.686  54.894  0.00  0.00     0.035 A 
ATOM      7  C   UNL d   1      52.806  34.153  54.124  0.00  0.00     0.082 A 
ATOM      8  C   UNL d   1      53.149  34.642  54.685  0.00  0.00     0.019 A 
ATOM      9  C   UNL d   1      53.845  34.410  55.076  0.00  0.00     0.004 A 
ATOM     10  C   UNL d   1      54.886  33.455  55.287  0.00  0.00     0.003 C 
ENDROOT
BRANCH   5  11
ATOM     11  C   UNL d   1      53.513  31.515  53.052  0.00  0.00     0.042 C 
BRANCH  11  12
ATOM     12  C   UNL d   1      53.232  30.818  53.401  0.00  0.00     0.104 C 
BRANCH  12  13
ATOM     13  N   UNL d   1      52.808  30.277  52.955  0.00  0.00    -0.205 NA
ATOM     14  C   UNL d   1      52.682  29.511  53.241  0.00  0.00     0.302 C 
ATOM     15  O   UNL d   1      52.261  28.978  52.794  0.00  0.00    -0.263 OA
BRANCH  14  16
ATOM     16  C   UNL d   1      52.987  29.296  53.979  0.00  0.00     0.158 A 
ATOM     17  O   UNL d   1      52.511  29.331  54.645  0.00  0.00    -0.300 OA
ATOM     18  C   UNL d   1      52.959  29.088  55.295  0.00  0.00     0.123 A 
ATOM     19  C   UNL d   1      53.707  28.904  55.033  0.00  0.00     0.029 A 
ATOM     20  C   UNL d   1      53.730  29.032  54.209  0.00  0.00     0.032 A 
ENDBRANCH  14  16
ENDBRANCH  12  13
ENDBRANCH  11  12
ENDBRANCH   5  11
TORSDOF 4
ENDMDL
MODEL 3
REMARK VINA RESULT:      -7.6      0.762      1.316
REMARK  4 active torsions:
REMARK  status: ('A' for Active; 'I' for Inactive)
REMARK    1  A    between atoms: C_18  and  C_5 
REMARK    2  A    between atoms: C_7  and  C_8 
REMARK       I    between atoms: C_8  and  N_17 
REMARK    3  A    between atoms: N_17  and  C_19 
REMARK    4  A    between atoms: C_19  and  C_18 
ROOT
ATOM      1  C   UNL d   1      53.380  30.463  53.933  0.00  0.00     0.148 A 
ATOM      2  N   UNL d   1      53.252  30.794  53.188  0.00  0.00    -0.288 N 
ATOM      3  N   UNL d   1      53.691  31.041  54.419  0.00  0.00    -0.227 NA
ATOM      4  C   UNL d   1      53.490  31.587  53.224  0.00  0.00     0.101 A 
ATOM      5  C   UNL d   1      53.761  31.735  53.988  0.00  0.00     0.102 A 
ATOM      6  C   UNL d   1      53.189  29.669  54.059  0.00  0.00     0.035 A 
ATOM      7  C   UNL d   1      52.939  30.342  52.575  0.00  0.00     0.082 A 
ATOM      8  C   UNL d   1      52.752  29.555  52.706  0.00  0.00     0.019 A 
ATOM      9  C   UNL d   1      52.877  29.212  53.453  0.00  0.00     0.004 A 
ATOM     10  C   UNL d   1      53.314  29.323  54.809  0.00  0.00     0.003 C 
ENDROOT
BRANCH   5  11
ATOM     11  C   UNL d   1      54.054  32.456  54.276  0.00  0.00     0.042 C 
BRANCH  11  12
ATOM     12  C   UNL d   1      53.580  33.135  54.252  0.00  0.00     0.104 C 
BRANCH  12  13
ATOM     13  N   UNL d   1      53.700  33.739  54.793  0.00  0.00    -0.205 NA
ATOM     14  C   UNL d   1      53.313  34.464  54.698  0.00  0.00     0.302 C 
ATOM     15  O   UNL d   1      53.436  35.060  55.238  0.00  0.00    -0.263 OA
BRANCH  14  16
ATOM     16  C   UNL d   1      52.804  34.574  54.056  0.00  0.00     0.158 A 
ATOM     17  O   UNL d   1      52.006  34.407  54.132  0.00  0.00    -0.300 OA
ATOM     18  C   UNL d   1      51.639  34.567  53.409  0.00  0.00     0.123 A 
ATOM     19  C   UNL d   1      52.207  34.830  52.889  0.00  0.00     0.029 A 
ATOM     20  C   UNL d   1      52.939  34.836  53.289  0.00  0.00     0.032 A 
ENDBRANCH  14  16
ENDBRANCH  12  13
ENDBRANCH  11  12
ENDBRANCH   5  11
TORSDOF 4
ENDMDL
MODEL 4
REMARK VINA RESULT:      -7.2      2.009      4.136
REMARK  4 active torsions:
REMARK  status: ('A' for Active; 'I' for Inactive)
REMARK    1  A    between atoms: C_18  and  C_5 
REMARK    2  A    between atoms: C_7  and  C_8 
REMARK       I    between atoms: C_8  and  N_17 
REMARK    3  A    between atoms: N_17  and  C_19 
REMARK    4  A    between atoms: C_19  and  C_18 
ROOT
ATOM      1  C   UNL d   1      50.951  34.661  52.958  0.00  0.00     0.148 A 
ATOM      2  N   UNL d   1      51.435  34.404  52.340  0.00  0.00    -0.288 N 
ATOM      3  N   UNL d   1      51.431  34.880  53.582  0.00  0.00    -0.227 NA
ATOM      4  C   UNL d   1      52.221  34.468  52.597  0.00  0.00     0.101 A 
ATOM      5  C   UNL d   1      52.212  34.763  53.366  0.00  0.00     0.102 A 
ATOM      6  C   UNL d   1      50.133  34.658  52.855  0.00  0.00     0.035 A 
ATOM      7  C   UNL d   1      51.109  34.146  51.630  0.00  0.00     0.082 A 
ATOM      8  C   UNL d   1      50.295  34.144  51.535  0.00  0.00     0.019 A 
ATOM      9  C   UNL d   1      49.799  34.402  52.150  0.00  0.00     0.004 A 
ATOM     10  C   UNL d   1      49.633  34.916  53.473  0.00  0.00     0.003 C 
ENDROOT
BRANCH   5  11
ATOM     11  C   UNL d   1      52.875  34.917  53.842  0.00  0.00     0.042 C 
BRANCH  11  12
ATOM     12  C   UNL d   1      53.321  34.289  54.146  0.00  0.00     0.104 C 
BRANCH  12  13
ATOM     13  N   UNL d   1      53.931  34.436  54.673  0.00  0.00    -0.205 NA
ATOM     14  C   UNL d   1      54.424  33.819  54.921  0.00  0.00     0.302 C 
ATOM     15  O   UNL d   1      55.028  33.971  55.444  0.00  0.00    -0.263 OA
BRANCH  14  16
ATOM     16  C   UNL d   1      54.296  33.055  54.632  0.00  0.00     0.158 A 
ATOM     17  O   UNL d   1      53.862  32.517  55.072  0.00  0.00    -0.300 OA
ATOM     18  C   UNL d   1      53.826  31.808  54.650  0.00  0.00     0.123 A 
ATOM     19  C   UNL d   1      54.235  31.906  53.954  0.00  0.00     0.029 A 
ATOM     20  C   UNL d   1      54.532  32.685  53.937  0.00  0.00     0.032 A 
ENDBRANCH  14  16
ENDBRANCH  12  13
ENDBRANCH  11  12
ENDBRANCH   5  11
TORSDOF 4
ENDMDL
MODEL 5
REMARK VINA RESULT:      -5.5      2.796      5.522
REMARK  4 active torsions:
REMARK  status: ('A' for Active; 'I' for Inactive)
REMARK    1  A    between atoms: C_18  and  C_5 
REMARK    2  A    between atoms: C_7  and  C_8 
REMARK       I    between atoms: C_8  and  N_17 
REMARK    3  A    between atoms: N_17  and  C_19 
REMARK    4  A    between atoms: C_19  and  C_18 
ROOT
ATOM      1  C   UNL d   1      48.584  35.606  52.978  0.00  0.00     0.148 A 
ATOM      2  N   UNL d   1      48.505  35.349  52.197  0.00  0.00    -0.288 N 
ATOM      3  N   UNL d   1      49.163  35.155  53.336  0.00  0.00    -0.227 NA
ATOM      4  C   UNL d   1      49.048  34.732  52.083  0.00  0.00     0.101 A 
ATOM      5  C   UNL d   1      49.452  34.617  52.791  0.00  0.00     0.102 A 
ATOM      6  C   UNL d   1      48.106  36.222  53.247  0.00  0.00     0.035 A 
ATOM      7  C   UNL d   1      47.959  35.700  51.692  0.00  0.00     0.082 A 
ATOM      8  C   UNL d   1      47.488  36.312  51.965  0.00  0.00     0.019 A 
ATOM      9  C   UNL d   1      47.559  36.578  52.750  0.00  0.00     0.004 A 
ATOM     10  C   UNL d   1      48.176  36.491  54.036  0.00  0.00     0.003 C 
ENDROOT
BRANCH   5  11
ATOM     11  C   UNL d   1      50.047  34.056  52.933  0.00  0.00     0.042 C 
BRANCH  11  12
ATOM     12  C   UNL d   1      50.843  34.260  52.824  0.00  0.00     0.104 C 
BRANCH  12  13
ATOM     13  N   UNL d   1      51.359  33.727  52.476  0.00  0.00    -0.205 NA
ATOM     14  C   UNL d   1      52.155  33.711  52.703  0.00  0.00     0.302 C 
ATOM     15  O   UNL d   1      52.663  33.181  52.354  0.00  0.00    -0.263 OA
BRANCH  14  16
ATOM     16  C   UNL d   1      52.424  34.236  53.283  0.00  0.00     0.158 A 
ATOM     17  O   UNL d   1      52.508  33.982  54.057  0.00  0.00    -0.300 OA
ATOM     18  C   UNL d   1      52.782  34.618  54.509  0.00  0.00     0.123 A 
ATOM     19  C   UNL d   1      52.867  35.260  54.016  0.00  0.00     0.029 A 
ATOM     20  C   UNL d   1      52.644  35.026  53.248  0.00  0.00     0.032 A 
ENDBRANCH  14  16
ENDBRANCH  12  13
ENDBRANCH  11  12
ENDBRANCH   5  11
TORSDOF 4
ENDMDL
MODEL 6
REMARK VINA RESULT:      -5.5      1.816      3.003
REMARK  4 active torsions:
REMARK  status: ('A' for Active; 'I' for Inactive)
REMARK    1  A    between atoms: C_18  and  C_5 
REMARK    2  A    between atoms: C_7  and  C_8 
REMARK       I    between atoms: C_8  and  N_17 
REMARK    3  A    between atoms: N_17  and  C_19 
REMARK    4  A    between atoms: C_19  and  C_18 
ROOT
ATOM      1  C   UNL d   1      53.339  33.308  53.831  0.00  0.00     0.148 A 
ATOM      2  N   UNL d   1      53.354  34.033  54.227  0.00  0.00    -0.288 N 
ATOM      3  N   UNL d   1      52.879  33.394  53.161  0.00  0.00    -0.227 NA
ATOM      4  C   UNL d   1      52.894  34.565  53.789  0.00  0.00     0.101 A 
ATOM      5  C   UNL d   1      52.602  34.165  53.131  0.00  0.00     0.102 A 
ATOM      6  C   UNL d   1      53.756  32.669  54.146  0.00  0.00     0.035 A 
ATOM      7  C   UNL d   1      53.777  34.120  54.928  0.00  0.00     0.082 A 
ATOM      8  C   UNL d   1      54.188  33.482  55.236  0.00  0.00     0.019 A 
ATOM      9  C   UNL d   1      54.180  32.748  54.844  0.00  0.00     0.004 A 
ATOM     10  C   UNL d   1      53.748  31.932  53.754  0.00  0.00     0.003 C 
ENDROOT
BRANCH   5  11
ATOM     11  C   UNL d   1      52.115  34.481  52.538  0.00  0.00     0.042 C 
BRANCH  11  12
ATOM     12  C   UNL d   1      51.296  34.356  52.565  0.00  0.00     0.104 C 
BRANCH  12  13
ATOM     13  N   UNL d   1      50.893  34.129  51.889  0.00  0.00    -0.205 NA
ATOM     14  C   UNL d   1      50.084  34.291  51.813  0.00  0.00     0.302 C 
ATOM     15  O   UNL d   1      49.689  34.063  51.140  0.00  0.00    -0.263 OA
BRANCH  14  16
ATOM     16  C   UNL d   1      49.688  34.682  52.425  0.00  0.00     0.158 A 
ATOM     17  O   UNL d   1      49.166  35.289  52.252  0.00  0.00    -0.300 OA
ATOM     18  C   UNL d   1      48.857  35.573  52.964  0.00  0.00     0.123 A 
ATOM     19  C   UNL d   1      49.186  35.144  53.572  0.00  0.00     0.029 A 
ATOM     20  C   UNL d   1      49.707  34.585  53.240  0.00  0.00     0.032 A 
ENDBRANCH  14  16
ENDBRANCH  12  13
ENDBRANCH  11  12
ENDBRANCH   5  11
TORSDOF 4
ENDMDL
MODEL 7
REMARK VINA RESULT:      -4.9      2.901      4.554
REMARK  4 active torsions:
REMARK  status: ('A' for Active; 'I' for Inactive)
REMARK    1  A    between atoms: C_18  and  C_5 
REMARK    2  A    between atoms: C_7  and  C_8 
REMARK       I    between atoms: C_8  and  N_17 
REMARK    3  A    between atoms: N_17  and  C_19 
REMARK    4  A    between atoms: C_19  and  C_18 
ROOT
ATOM      1  C   UNL d   1      51.339  34.310  52.993  0.00  0.00     0.148 A 
ATOM      2  N   UNL d   1      51.005  33.582  53.193  0.00  0.00    -0.288 N 
ATOM      3  N   UNL d   1      50.784  34.739  52.575  0.00  0.00    -0.227 NA
ATOM      4  C   UNL d   1      50.233  33.571  52.889  0.00  0.00     0.101 A 
ATOM      5  C   UNL d   1      50.102  34.289  52.508  0.00  0.00     0.102 A 
ATOM      6  C   UNL d   1      52.113  34.474  53.227  0.00  0.00     0.035 A 
ATOM      7  C   UNL d   1      51.435  33.025  53.620  0.00  0.00     0.082 A 
ATOM      8  C   UNL d   1      52.203  33.194  53.849  0.00  0.00     0.019 A 
ATOM      9  C   UNL d   1      52.549  33.925  53.653  0.00  0.00     0.004 A 
ATOM     10  C   UNL d   1      52.462  35.208  53.030  0.00  0.00     0.003 C 
ENDROOT
BRANCH   5  11
ATOM     11  C   UNL d   1      49.404  34.522  52.123  0.00  0.00     0.042 C 
BRANCH  11  12
ATOM     12  C   UNL d   1      48.947  35.140  52.432  0.00  0.00     0.104 C 
BRANCH  12  13
ATOM     13  N   UNL d   1      48.398  35.522  51.957  0.00  0.00    -0.205 NA
ATOM     14  C   UNL d   1      47.822  36.009  52.298  0.00  0.00     0.302 C 
ATOM     15  O   UNL d   1      47.280  36.385  51.822  0.00  0.00    -0.263 OA
BRANCH  14  16
ATOM     16  C   UNL d   1      47.805  36.107  53.119  0.00  0.00     0.158 A 
ATOM     17  O   UNL d   1      47.315  35.637  53.578  0.00  0.00    -0.300 OA
ATOM     18  C   UNL d   1      47.414  35.857  54.368  0.00  0.00     0.123 A 
ATOM     19  C   UNL d   1      47.961  36.458  54.398  0.00  0.00     0.029 A 
ATOM     20  C   UNL d   1      48.209  36.619  53.618  0.00  0.00     0.032 A 
ENDBRANCH  14  16
ENDBRANCH  12  13
ENDBRANCH  11  12
ENDBRANCH   5  11
TORSDOF 4
ENDMDL
