MODEL 1
REMARK VINA RESULT:      38.8      0.000      0.000
REMARK  2 active torsions:
REMARK  status: ('A' for Active; 'I' for Inactive)
REMARK    1  A    between atoms: C_9  and  N_2 
REMARK    2  A    between atoms: C_7  and  C_4 
ROOT
ATOM      1  C   UNL d   1     -50.852  26.822  33.322  0.00  0.00     0.136 A 
ATOM      2  N   UNL d   1     -51.110  26.037  33.322  0.00  0.00    -0.282 N 
ATOM      3  C   UNL d   1     -51.411  27.434  33.317  0.00  0.00     0.152 A 
ATOM      4  C   UNL d   1     -51.925  25.866  33.318  0.00  0.00     0.158 A 
ATOM      5  N   UNL d   1     -52.476  26.482  33.314  0.00  0.00    -0.189 NA
ATOM      6  C   UNL d   1     -52.218  27.265  33.313  0.00  0.00     0.292 A 
ATOM      7  C   UNL d   1     -51.153  28.216  33.316  0.00  0.00     0.108 C 
ATOM      8  N   UNL d   1     -50.897  29.005  33.315  0.00  0.00    -0.191 NA
ATOM      9  S   UNL d   1     -50.047  27.000  33.326  0.00  0.00    -0.058 SA
ATOM     10  O   UNL d   1     -52.770  27.886  33.308  0.00  0.00    -0.264 OA
ENDROOT
BRANCH   2  11
ATOM     11  C   UNL d   1     -50.560  25.428  33.327  0.00  0.00     0.066 A 
ATOM     12  C   UNL d   1     -49.755  25.605  33.306  0.00  0.00     0.018 A 
ATOM     13  C   UNL d   1     -49.206  24.992  33.311  0.00  0.00     0.002 A 
ATOM     14  C   UNL d   1     -49.457  24.204  33.337  0.00  0.00     0.000 A 
ATOM     15  C   UNL d   1     -50.267  24.029  33.358  0.00  0.00     0.002 A 
ATOM     16  C   UNL d   1     -48.907  23.591  33.342  0.00  0.00     0.000 C 
ATOM     17  C   UNL d   1     -50.818  24.642  33.353  0.00  0.00     0.018 A 
ENDBRANCH   2  11
BRANCH   4  18
ATOM     18  C   UNL d   1     -52.183  25.083  33.319  0.00  0.00     0.064 A 
ATOM     19  S   UNL d   1     -51.703  24.418  33.315  0.00  0.00    -0.083 SA
ATOM     20  C   UNL d   1     -52.191  23.759  33.317  0.00  0.00     0.035 A 
ATOM     21  C   UNL d   1     -52.972  24.016  33.323  0.00  0.00     0.008 A 
ATOM     22  C   UNL d   1     -52.977  24.828  33.324  0.00  0.00     0.010 A 
ENDBRANCH   4  18
TORSDOF 2
ENDMDL
