MODEL 1
REMARK VINA RESULT:      -6.8      0.000      0.000
REMARK  5 active torsions:
REMARK  status: ('A' for Active; 'I' for Inactive)
REMARK    1  A    between atoms: S_2  and  C_1 
REMARK    2  A    between atoms: N_11  and  S_2 
REMARK    3  A    between atoms: C_14  and  N_11 
REMARK    4  A    between atoms: C_16  and  C_14 
REMARK    5  A    between atoms: C_15  and  C_16 
ROOT
ATOM      1  S   UNL d   1     -48.495  14.561  22.778  0.00  0.00     0.287 S 
ATOM      2  O   UNL d   1     -48.340  15.144  22.170  0.00  0.00    -0.198 OA
ATOM      3  O   UNL d   1     -48.631  13.998  23.369  0.00  0.00    -0.198 OA
ENDROOT
BRANCH   1   4
ATOM      4  C   UNL d   1     -49.296  14.540  22.554  0.00  0.00     0.125 A 
ATOM      5  C   UNL d   1     -49.853  15.044  22.929  0.00  0.00     0.121 A 
ATOM      6  N   UNL d   1     -49.773  15.615  23.535  0.00  0.00    -0.190 NA
ATOM      7  C   UNL d   1     -50.644  15.011  22.695  0.00  0.00     0.110 A 
ATOM      8  S   UNL d   1     -50.528  15.922  23.658  0.00  0.00     0.117 SA
ATOM      9  N   UNL d   1     -51.064  15.552  23.143  0.00  0.00    -0.190 NA
ATOM     10  C   UNL d   1     -50.881  14.476  22.087  0.00  0.00     0.021 A 
ATOM     11  C   UNL d   1     -50.321  13.989  21.729  0.00  0.00     0.002 A 
ATOM     12  C   UNL d   1     -49.530  14.012  21.954  0.00  0.00     0.015 A 
ENDBRANCH   1   4
BRANCH   1  13
ATOM     13  N   UNL d   1     -47.684  14.589  22.996  0.00  0.00    -0.157 NA
BRANCH  13  14
ATOM     14  C   UNL d   1     -47.152  13.989  22.757  0.00  0.00     0.112 C 
BRANCH  14  15
ATOM     15  C   UNL d   1     -46.343  14.055  22.913  0.00  0.00     0.021 C 
BRANCH  15  16
ATOM     16  C   UNL d   1     -45.841  13.403  22.720  0.00  0.00     0.002 A 
ATOM     17  C   UNL d   1     -45.266  13.492  22.128  0.00  0.00     0.000 A 
ATOM     18  C   UNL d   1     -44.784  12.860  21.946  0.00  0.00     0.000 A 
ATOM     19  C   UNL d   1     -44.871  12.152  22.344  0.00  0.00     0.000 A 
ATOM     20  C   UNL d   1     -45.429  12.063  22.920  0.00  0.00     0.000 A 
ATOM     21  C   UNL d   1     -45.918  12.695  23.108  0.00  0.00     0.000 A 
ENDBRANCH  15  16
ENDBRANCH  14  15
ENDBRANCH  13  14
ENDBRANCH   1  13
TORSDOF 5
ENDMDL
MODEL 2
REMARK VINA RESULT:      -6.3      1.926      4.887
REMARK  5 active torsions:
REMARK  status: ('A' for Active; 'I' for Inactive)
REMARK    1  A    between atoms: S_2  and  C_1 
REMARK    2  A    between atoms: N_11  and  S_2 
REMARK    3  A    between atoms: C_14  and  N_11 
REMARK    4  A    between atoms: C_16  and  C_14 
REMARK    5  A    between atoms: C_15  and  C_16 
ROOT
ATOM      1  S   UNL d   1     -47.347  12.731  23.129  0.00  0.00     0.287 S 
ATOM      2  O   UNL d   1     -47.552  12.139  22.544  0.00  0.00    -0.198 OA
ATOM      3  O   UNL d   1     -47.163  13.304  23.698  0.00  0.00    -0.198 OA
ENDROOT
BRANCH   1   4
ATOM      4  C   UNL d   1     -46.553  12.698  22.884  0.00  0.00     0.125 A 
ATOM      5  C   UNL d   1     -46.053  12.078  23.150  0.00  0.00     0.121 A 
ATOM      6  N   UNL d   1     -46.191  11.426  23.654  0.00  0.00    -0.190 NA
ATOM      7  C   UNL d   1     -45.268  12.060  22.897  0.00  0.00     0.110 A 
ATOM      8  S   UNL d   1     -45.476  11.019  23.698  0.00  0.00     0.117 SA
ATOM      9  N   UNL d   1     -44.908  11.406  23.234  0.00  0.00    -0.190 NA
ATOM     10  C   UNL d   1     -44.979  12.660  22.379  0.00  0.00     0.021 A 
ATOM     11  C   UNL d   1     -45.483  13.262  22.127  0.00  0.00     0.002 A 
ATOM     12  C   UNL d   1     -46.267  13.290  22.372  0.00  0.00     0.015 A 
ENDBRANCH   1   4
BRANCH   1  13
ATOM     13  N   UNL d   1     -48.152  12.757  23.369  0.00  0.00    -0.157 NA
BRANCH  13  14
ATOM     14  C   UNL d   1     -48.731  13.136  22.897  0.00  0.00     0.112 C 
BRANCH  14  15
ATOM     15  C   UNL d   1     -49.518  13.178  23.147  0.00  0.00     0.021 C 
BRANCH  15  16
ATOM     16  C   UNL d   1     -50.046  13.687  22.728  0.00  0.00     0.002 A 
ATOM     17  C   UNL d   1     -50.199  14.448  23.023  0.00  0.00     0.000 A 
ATOM     18  C   UNL d   1     -50.710  14.935  22.615  0.00  0.00     0.000 A 
ATOM     19  C   UNL d   1     -51.064  14.673  21.927  0.00  0.00     0.000 A 
ATOM     20  C   UNL d   1     -50.916  13.934  21.638  0.00  0.00     0.000 A 
ATOM     21  C   UNL d   1     -50.403  13.438  22.043  0.00  0.00     0.000 A 
ENDBRANCH  15  16
ENDBRANCH  14  15
ENDBRANCH  13  14
ENDBRANCH   1  13
TORSDOF 5
ENDMDL
MODEL 3
REMARK VINA RESULT:      -5.8      8.563      9.384
REMARK  5 active torsions:
REMARK  status: ('A' for Active; 'I' for Inactive)
REMARK    1  A    between atoms: S_2  and  C_1 
REMARK    2  A    between atoms: N_11  and  S_2 
REMARK    3  A    between atoms: C_14  and  N_11 
REMARK    4  A    between atoms: C_16  and  C_14 
REMARK    5  A    between atoms: C_15  and  C_16 
ROOT
ATOM      1  S   UNL d   1     -40.270  14.660  18.961  0.00  0.00     0.287 S 
ATOM      2  O   UNL d   1     -39.806  15.373  19.070  0.00  0.00    -0.198 OA
ATOM      3  O   UNL d   1     -40.722  13.973  18.869  0.00  0.00    -0.198 OA
ENDROOT
BRANCH   1   4
ATOM      4  C   UNL d   1     -40.047  14.638  18.160  0.00  0.00     0.125 A 
ATOM      5  C   UNL d   1     -40.454  15.104  17.593  0.00  0.00     0.121 A 
ATOM      6  N   UNL d   1     -41.095  15.637  17.663  0.00  0.00    -0.190 NA
ATOM      7  C   UNL d   1     -40.219  15.070  16.803  0.00  0.00     0.110 A 
ATOM      8  S   UNL d   1     -41.238  15.919  16.902  0.00  0.00     0.117 SA
ATOM      9  N   UNL d   1     -40.702  15.573  16.373  0.00  0.00    -0.190 NA
ATOM     10  C   UNL d   1     -39.578  14.571  16.576  0.00  0.00     0.021 A 
ATOM     11  C   UNL d   1     -39.189  14.119  17.145  0.00  0.00     0.002 A 
ATOM     12  C   UNL d   1     -39.414  14.145  17.935  0.00  0.00     0.015 A 
ENDBRANCH   1   4
BRANCH   1  13
ATOM     13  N   UNL d   1     -40.490  14.693  19.771  0.00  0.00    -0.157 NA
BRANCH  13  14
ATOM     14  C   UNL d   1     -39.941  14.506  20.375  0.00  0.00     0.112 C 
BRANCH  14  15
ATOM     15  C   UNL d   1     -40.173  14.494  21.168  0.00  0.00     0.021 C 
BRANCH  15  16
ATOM     16  C   UNL d   1     -39.584  14.361  21.758  0.00  0.00     0.002 A 
ATOM     17  C   UNL d   1     -39.242  15.010  22.146  0.00  0.00     0.000 A 
ATOM     18  C   UNL d   1     -38.673  14.876  22.715  0.00  0.00     0.000 A 
ATOM     19  C   UNL d   1     -38.448  14.112  22.897  0.00  0.00     0.000 A 
ATOM     20  C   UNL d   1     -38.780  13.480  22.521  0.00  0.00     0.000 A 
ATOM     21  C   UNL d   1     -39.352  13.606  21.947  0.00  0.00     0.000 A 
ENDBRANCH  15  16
ENDBRANCH  14  15
ENDBRANCH  13  14
ENDBRANCH   1  13
TORSDOF 5
ENDMDL
MODEL 4
REMARK VINA RESULT:      -5.7      1.520      1.728
REMARK  5 active torsions:
REMARK  status: ('A' for Active; 'I' for Inactive)
REMARK    1  A    between atoms: S_2  and  C_1 
REMARK    2  A    between atoms: N_11  and  S_2 
REMARK    3  A    between atoms: C_14  and  N_11 
REMARK    4  A    between atoms: C_16  and  C_14 
REMARK    5  A    between atoms: C_15  and  C_16 
ROOT
ATOM      1  S   UNL d   1     -48.320  13.244  22.576  0.00  0.00     0.287 S 
ATOM      2  O   UNL d   1     -48.401  13.669  23.315  0.00  0.00    -0.198 OA
ATOM      3  O   UNL d   1     -48.229  12.840  21.859  0.00  0.00    -0.198 OA
ENDROOT
BRANCH   1   4
ATOM      4  C   UNL d   1     -49.062  12.888  22.699  0.00  0.00     0.125 A 
ATOM      5  C   UNL d   1     -49.757  13.239  22.385  0.00  0.00     0.121 A 
ATOM      6  N   UNL d   1     -49.880  13.932  21.934  0.00  0.00    -0.190 NA
ATOM      7  C   UNL d   1     -50.484  12.873  22.516  0.00  0.00     0.110 A 
ATOM      8  S   UNL d   1     -50.691  13.973  21.798  0.00  0.00     0.117 SA
ATOM      9  N   UNL d   1     -51.064  13.324  22.155  0.00  0.00    -0.190 NA
ATOM     10  C   UNL d   1     -50.521  12.157  22.961  0.00  0.00     0.021 A 
ATOM     11  C   UNL d   1     -49.829  11.825  23.263  0.00  0.00     0.002 A 
ATOM     12  C   UNL d   1     -49.098  12.181  23.138  0.00  0.00     0.015 A 
ENDBRANCH   1   4
BRANCH   1  13
ATOM     13  N   UNL d   1     -47.572  13.609  22.461  0.00  0.00    -0.157 NA
BRANCH  13  14
ATOM     14  C   UNL d   1     -46.863  13.168  22.519  0.00  0.00     0.112 C 
BRANCH  14  15
ATOM     15  C   UNL d   1     -46.131  13.548  22.557  0.00  0.00     0.021 C 
BRANCH  15  16
ATOM     16  C   UNL d   1     -45.433  13.096  22.405  0.00  0.00     0.002 A 
ATOM     17  C   UNL d   1     -44.869  13.384  21.869  0.00  0.00     0.000 A 
ATOM     18  C   UNL d   1     -44.198  12.944  21.726  0.00  0.00     0.000 A 
ATOM     19  C   UNL d   1     -44.088  12.230  22.109  0.00  0.00     0.000 A 
ATOM     20  C   UNL d   1     -44.635  11.949  22.630  0.00  0.00     0.000 A 
ATOM     21  C   UNL d   1     -45.313  12.386  22.779  0.00  0.00     0.000 A 
ENDBRANCH  15  16
ENDBRANCH  14  15
ENDBRANCH  13  14
ENDBRANCH   1  13
TORSDOF 5
ENDMDL
MODEL 5
REMARK VINA RESULT:      -4.9      1.715      2.145
REMARK  5 active torsions:
REMARK  status: ('A' for Active; 'I' for Inactive)
REMARK    1  A    between atoms: S_2  and  C_1 
REMARK    2  A    between atoms: N_11  and  S_2 
REMARK    3  A    between atoms: C_14  and  N_11 
REMARK    4  A    between atoms: C_16  and  C_14 
REMARK    5  A    between atoms: C_15  and  C_16 
ROOT
ATOM      1  S   UNL d   1     -49.635  12.364  22.599  0.00  0.00     0.287 S 
ATOM      2  O   UNL d   1     -50.244  12.188  23.176  0.00  0.00    -0.198 OA
ATOM      3  O   UNL d   1     -49.039  12.522  22.048  0.00  0.00    -0.198 OA
ENDROOT
BRANCH   1   4
ATOM      4  C   UNL d   1     -50.097  12.989  22.303  0.00  0.00     0.125 A 
ATOM      5  C   UNL d   1     -50.137  13.718  22.717  0.00  0.00     0.121 A 
ATOM      6  N   UNL d   1     -49.782  13.979  23.428  0.00  0.00    -0.190 NA
ATOM      7  C   UNL d   1     -50.599  14.328  22.409  0.00  0.00     0.110 A 
ATOM      8  S   UNL d   1     -50.040  14.753  23.538  0.00  0.00     0.117 SA
ATOM      9  N   UNL d   1     -50.542  14.970  22.914  0.00  0.00    -0.190 NA
ATOM     10  C   UNL d   1     -51.022  14.213  21.688  0.00  0.00     0.021 A 
ATOM     11  C   UNL d   1     -50.972  13.490  21.295  0.00  0.00     0.002 A 
ATOM     12  C   UNL d   1     -50.515  12.875  21.592  0.00  0.00     0.015 A 
ENDBRANCH   1   4
BRANCH   1  13
ATOM     13  N   UNL d   1     -49.177  11.729  22.906  0.00  0.00    -0.157 NA
BRANCH  13  14
ATOM     14  C   UNL d   1     -48.347  11.797  22.988  0.00  0.00     0.112 C 
BRANCH  14  15
ATOM     15  C   UNL d   1     -47.949  11.407  23.599  0.00  0.00     0.021 C 
BRANCH  15  16
ATOM     16  C   UNL d   1     -47.105  11.382  23.579  0.00  0.00     0.002 A 
ATOM     17  C   UNL d   1     -46.715  10.659  23.698  0.00  0.00     0.000 A 
ATOM     18  C   UNL d   1     -45.900  10.640  23.678  0.00  0.00     0.000 A 
ATOM     19  C   UNL d   1     -45.479  11.327  23.541  0.00  0.00     0.000 A 
ATOM     20  C   UNL d   1     -45.856  12.031  23.425  0.00  0.00     0.000 A 
ATOM     21  C   UNL d   1     -46.676  12.057  23.444  0.00  0.00     0.000 A 
ENDBRANCH  15  16
ENDBRANCH  14  15
ENDBRANCH  13  14
ENDBRANCH   1  13
TORSDOF 5
ENDMDL
MODEL 6
REMARK VINA RESULT:      -4.0      2.134      4.712
REMARK  5 active torsions:
REMARK  status: ('A' for Active; 'I' for Inactive)
REMARK    1  A    between atoms: S_2  and  C_1 
REMARK    2  A    between atoms: N_11  and  S_2 
REMARK    3  A    between atoms: C_14  and  N_11 
REMARK    4  A    between atoms: C_16  and  C_14 
REMARK    5  A    between atoms: C_15  and  C_16 
ROOT
ATOM      1  S   UNL d   1     -48.298  11.783  23.361  0.00  0.00     0.287 S 
ATOM      2  O   UNL d   1     -48.272  12.575  23.687  0.00  0.00    -0.198 OA
ATOM      3  O   UNL d   1     -48.337  11.019  23.045  0.00  0.00    -0.198 OA
ENDROOT
BRANCH   1   4
ATOM      4  C   UNL d   1     -47.468  11.738  23.405  0.00  0.00     0.125 A 
ATOM      5  C   UNL d   1     -46.997  12.403  23.205  0.00  0.00     0.121 A 
ATOM      6  N   UNL d   1     -47.196  13.173  22.946  0.00  0.00    -0.190 NA
ATOM      7  C   UNL d   1     -46.176  12.342  23.254  0.00  0.00     0.110 A 
ATOM      8  S   UNL d   1     -46.481  13.568  22.843  0.00  0.00     0.117 SA
ATOM      9  N   UNL d   1     -45.853  13.060  23.031  0.00  0.00    -0.190 NA
ATOM     10  C   UNL d   1     -45.822  11.617  23.504  0.00  0.00     0.021 A 
ATOM     11  C   UNL d   1     -46.300  10.973  23.697  0.00  0.00     0.002 A 
ATOM     12  C   UNL d   1     -47.119  11.023  23.652  0.00  0.00     0.015 A 
ENDBRANCH   1   4
BRANCH   1  13
ATOM     13  N   UNL d   1     -49.135  11.839  23.320  0.00  0.00    -0.157 NA
BRANCH  13  14
ATOM     14  C   UNL d   1     -49.517  12.583  23.295  0.00  0.00     0.112 C 
BRANCH  14  15
ATOM     15  C   UNL d   1     -50.299  12.648  23.034  0.00  0.00     0.021 C 
BRANCH  15  16
ATOM     16  C   UNL d   1     -50.559  13.388  22.722  0.00  0.00     0.002 A 
ATOM     17  C   UNL d   1     -50.689  13.464  21.906  0.00  0.00     0.000 A 
ATOM     18  C   UNL d   1     -50.940  14.181  21.610  0.00  0.00     0.000 A 
ATOM     19  C   UNL d   1     -51.062  14.813  22.115  0.00  0.00     0.000 A 
ATOM     20  C   UNL d   1     -50.936  14.741  22.909  0.00  0.00     0.000 A 
ATOM     21  C   UNL d   1     -50.683  14.023  23.214  0.00  0.00     0.000 A 
ENDBRANCH  15  16
ENDBRANCH  14  15
ENDBRANCH  13  14
ENDBRANCH   1  13
TORSDOF 5
ENDMDL
