MODEL 1
REMARK VINA RESULT:      12.2      0.000      0.000
REMARK  5 active torsions:
REMARK  status: ('A' for Active; 'I' for Inactive)
REMARK    1  A    between atoms: N_2  and  S_1 
REMARK    2  A    between atoms: C_3  and  S_1 
REMARK    3  A    between atoms: C_4  and  N_2 
REMARK    4  A    between atoms: C_5  and  C_4 
REMARK       I    between atoms: C_8  and  N_9 
REMARK    5  A    between atoms: N_9  and  C_14 
ROOT
ATOM      1  C   UNL d   1      13.843  12.170  -1.764  0.00  0.00     0.105 A 
ATOM      2  C   UNL d   1      14.246  12.564  -2.377  0.00  0.00     0.015 A 
ATOM      3  C   UNL d   1      13.134  11.783  -1.920  0.00  0.00     0.015 A 
ATOM      4  C   UNL d   1      13.226  12.181  -3.295  0.00  0.00     0.085 A 
ATOM      5  C   UNL d   1      12.827  11.790  -2.688  0.00  0.00     0.020 A 
ATOM      6  C   UNL d   1      13.937  12.568  -3.140  0.00  0.00     0.020 A 
ENDROOT
BRANCH   1   7
ATOM      7  S   UNL d   1      14.154  12.166  -1.002  0.00  0.00     0.285 S 
ATOM      8  O   UNL d   1      13.751  11.783  -0.393  0.00  0.00    -0.198 OA
ATOM      9  O   UNL d   1      14.702  12.595  -1.447  0.00  0.00    -0.198 OA
BRANCH   7  10
ATOM     10  N   UNL d   1      14.872  12.547  -0.839  0.00  0.00    -0.150 NA
BRANCH  10  11
ATOM     11  C   UNL d   1      14.924  13.096  -0.229  0.00  0.00     0.182 C 
BRANCH  11  12
ATOM     12  C   UNL d   1      15.619  13.518  -0.104  0.00  0.00     0.232 C 
ATOM     13  O   UNL d   1      16.335  13.112  -0.049  0.00  0.00    -0.643 OA
ATOM     14  O   UNL d   1      15.603  14.338  -0.034  0.00  0.00    -0.643 OA
ENDBRANCH  11  12
ENDBRANCH  10  11
ENDBRANCH   7  10
ENDBRANCH   1   7
BRANCH   4  15
ATOM     15  N   UNL d   1      12.913  12.184  -4.061  0.00  0.00    -0.208 NA
ATOM     16  C   UNL d   1      13.399  12.022  -4.705  0.00  0.00     0.279 C 
ATOM     17  O   UNL d   1      14.199  11.856  -4.588  0.00  0.00    -0.265 OA
ATOM     18  C   UNL d   1      13.087  12.024  -5.474  0.00  0.00     0.068 C 
ENDBRANCH   4  15
TORSDOF 5
ENDMDL
