MODEL 1
REMARK VINA RESULT:      18.2      0.000      0.000
REMARK  3 active torsions:
REMARK  status: ('A' for Active; 'I' for Inactive)
REMARK    1  A    between atoms: C_7  and  C_2 
REMARK    2  A    between atoms: N_5  and  C_8 
REMARK    3  A    between atoms: C_9  and  C_7 
ROOT
ATOM      1  C   UNL d   1      13.416  13.374  -3.868  0.00  0.00     0.127 A 
ATOM      2  C   UNL d   1      13.703  12.807  -3.335  0.00  0.00     0.023 A 
ATOM      3  C   UNL d   1      13.519  12.013  -3.445  0.00  0.00     0.002 A 
ATOM      4  C   UNL d   1      12.953  13.146  -4.501  0.00  0.00     0.024 A 
ATOM      5  C   UNL d   1      13.050  11.779  -4.083  0.00  0.00     0.000 A 
ATOM      6  C   UNL d   1      12.769  12.352  -4.610  0.00  0.00     0.002 A 
ENDROOT
BRANCH   2   7
ATOM      7  C   UNL d   1      14.169  13.041  -2.700  0.00  0.00     0.013 C 
BRANCH   7   8
ATOM      8  C   UNL d   1      14.138  12.623  -1.989  0.00  0.00     0.092 A 
ATOM      9  C   UNL d   1      14.778  12.274  -1.601  0.00  0.00     0.288 A 
ATOM     10  N   UNL d   1      14.488  11.918  -0.914  0.00  0.00    -0.163 NA
ATOM     11  O   UNL d   1      15.561  12.284  -1.856  0.00  0.00    -0.265 OA
ATOM     12  C   UNL d   1      13.679  12.043  -0.876  0.00  0.00     0.313 A 
ATOM     13  S   UNL d   1      13.458  12.478  -1.539  0.00  0.00    -0.021 SA
ATOM     14  O   UNL d   1      13.174  11.779  -0.279  0.00  0.00    -0.258 OA
ENDBRANCH   7   8
ENDBRANCH   2   7
BRANCH   1  15
ATOM     15  N   UNL d   1      13.603  14.173  -3.756  0.00  0.00    -0.114 N 
ATOM     16  O   UNL d   1      14.387  14.408  -3.647  0.00  0.00    -0.532 OA
ATOM     17  O   UNL d   1      12.997  14.739  -3.753  0.00  0.00    -0.532 OA
ENDBRANCH   1  15
TORSDOF 3
ENDMDL
MODEL 2
REMARK VINA RESULT:      20.3      9.393     10.281
REMARK  3 active torsions:
REMARK  status: ('A' for Active; 'I' for Inactive)
REMARK    1  A    between atoms: C_7  and  C_2 
REMARK    2  A    between atoms: N_5  and  C_8 
REMARK    3  A    between atoms: C_9  and  C_7 
ROOT
ATOM      1  C   UNL d   1      23.289  12.625  -2.947  0.00  0.00     0.127 A 
ATOM      2  C   UNL d   1      23.808  12.351  -2.362  0.00  0.00     0.023 A 
ATOM      3  C   UNL d   1      24.544  12.054  -2.574  0.00  0.00     0.002 A 
ATOM      4  C   UNL d   1      23.508  12.600  -3.734  0.00  0.00     0.024 A 
ATOM      5  C   UNL d   1      24.768  12.027  -3.369  0.00  0.00     0.000 A 
ATOM      6  C   UNL d   1      24.244  12.303  -3.947  0.00  0.00     0.002 A 
ENDROOT
BRANCH   2   7
ATOM      7  C   UNL d   1      23.584  12.379  -1.571  0.00  0.00     0.013 C 
BRANCH   7   8
ATOM      8  C   UNL d   1      24.008  12.846  -1.038  0.00  0.00     0.092 A 
ATOM      9  C   UNL d   1      24.437  12.574  -0.387  0.00  0.00     0.288 A 
ATOM     10  N   UNL d   1      24.768  13.233  -0.014  0.00  0.00    -0.163 NA
ATOM     11  O   UNL d   1      24.518  11.787  -0.156  0.00  0.00    -0.265 OA
ATOM     12  C   UNL d   1      24.547  13.905  -0.428  0.00  0.00     0.313 A 
ATOM     13  S   UNL d   1      24.077  13.670  -1.062  0.00  0.00    -0.021 SA
ATOM     14  O   UNL d   1      24.758  14.681  -0.243  0.00  0.00    -0.258 OA
ENDBRANCH   7   8
ENDBRANCH   2   7
BRANCH   1  15
ATOM     15  N   UNL d   1      22.548  12.924  -2.731  0.00  0.00    -0.114 N 
ATOM     16  O   UNL d   1      22.074  13.310  -3.286  0.00  0.00    -0.532 OA
ATOM     17  O   UNL d   1      22.281  12.835  -1.951  0.00  0.00    -0.532 OA
ENDBRANCH   1  15
TORSDOF 3
ENDMDL
