MODEL 1
REMARK VINA RESULT:      23.0      0.000      0.000
REMARK  1 active torsions:
REMARK  status: ('A' for Active; 'I' for Inactive)
REMARK    1  A    between atoms: C_11  and  C_3 
ROOT
ATOM      1  C   UNL d   1      59.423  49.673  50.735  0.00  0.00     0.052 A 
ATOM      2  C   UNL d   1      60.020  49.697  50.150  0.00  0.00     0.115 A 
ATOM      3  C   UNL d   1      58.693  49.667  50.365  0.00  0.00     0.011 A 
ATOM      4  C   UNL d   1      59.644  49.658  51.567  0.00  0.00     0.139 A 
ATOM      5  N   UNL d   1      60.848  49.707  50.388  0.00  0.00    -0.217 NA
ATOM      6  S   UNL d   1      59.666  49.707  49.412  0.00  0.00    -0.067 SA
ATOM      7  C   UNL d   1      58.835  49.689  49.547  0.00  0.00     0.037 A 
ATOM      8  N   UNL d   1      60.442  49.668  51.775  0.00  0.00    -0.213 NA
ATOM      9  C   UNL d   1      61.063  49.694  51.167  0.00  0.00     0.200 A 
ATOM     10  S   UNL d   1      59.065  49.633  52.180  0.00  0.00    -0.057 SA
ENDROOT
BRANCH   3  11
ATOM     11  C   UNL d   1      57.897  49.652  50.381  0.00  0.00     0.001 A 
ATOM     12  C   UNL d   1      57.474  49.683  51.088  0.00  0.00     0.000 A 
ATOM     13  C   UNL d   1      56.643  49.666  51.091  0.00  0.00     0.000 A 
ATOM     14  C   UNL d   1      56.240  49.618  50.373  0.00  0.00     0.000 A 
ATOM     15  C   UNL d   1      56.664  49.587  49.666  0.00  0.00     0.000 A 
ATOM     16  C   UNL d   1      57.491  49.604  49.676  0.00  0.00     0.000 A 
ENDBRANCH   3  11
TORSDOF 1
ENDMDL
MODEL 2
REMARK VINA RESULT:      23.0      1.735      3.403
REMARK  1 active torsions:
REMARK  status: ('A' for Active; 'I' for Inactive)
REMARK    1  A    between atoms: C_11  and  C_3 
ROOT
ATOM      1  C   UNL d   1      57.610  49.629  50.381  0.00  0.00     0.052 A 
ATOM      2  C   UNL d   1      56.898  49.650  50.819  0.00  0.00     0.115 A 
ATOM      3  C   UNL d   1      58.240  49.662  50.902  0.00  0.00     0.011 A 
ATOM      4  C   UNL d   1      57.579  49.579  49.522  0.00  0.00     0.139 A 
ATOM      5  N   UNL d   1      56.143  49.622  50.405  0.00  0.00    -0.217 NA
ATOM      6  S   UNL d   1      57.080  49.697  51.615  0.00  0.00    -0.067 SA
ATOM      7  C   UNL d   1      57.920  49.705  51.667  0.00  0.00     0.037 A 
ATOM      8  N   UNL d   1      56.846  49.553  49.143  0.00  0.00    -0.213 NA
ATOM      9  C   UNL d   1      56.106  49.575  49.599  0.00  0.00     0.200 A 
ATOM     10  S   UNL d   1      58.279  49.555  49.052  0.00  0.00    -0.057 SA
ENDROOT
BRANCH   3  11
ATOM     11  C   UNL d   1      59.020  49.676  51.062  0.00  0.00     0.001 A 
ATOM     12  C   UNL d   1      59.588  49.687  50.464  0.00  0.00     0.000 A 
ATOM     13  C   UNL d   1      60.400  49.701  50.644  0.00  0.00     0.000 A 
ATOM     14  C   UNL d   1      60.635  49.704  51.435  0.00  0.00     0.000 A 
ATOM     15  C   UNL d   1      60.066  49.693  52.032  0.00  0.00     0.000 A 
ATOM     16  C   UNL d   1      59.262  49.679  51.839  0.00  0.00     0.000 A 
ENDBRANCH   3  11
TORSDOF 1
ENDMDL
