MODEL 1
REMARK VINA RESULT:      -7.5      0.000      0.000
REMARK  4 active torsions:
REMARK  status: ('A' for Active; 'I' for Inactive)
REMARK    1  A    between atoms: N_2  and  S_1 
REMARK    2  A    between atoms: N_3  and  S_1 
REMARK    3  A    between atoms: C_8  and  N_3 
REMARK    4  A    between atoms: C_7  and  C_6 
ROOT
ATOM      1  N   UNL d   1     -48.408  13.281  21.898  0.00  0.00    -0.144 NA
ENDROOT
BRANCH   1   2
ATOM      2  S   UNL d   1     -49.043  13.074  22.381  0.00  0.00     0.351 S 
ATOM      3  O   UNL d   1     -49.230  13.849  22.587  0.00  0.00    -0.180 OA
ATOM      4  O   UNL d   1     -48.856  12.300  22.174  0.00  0.00    -0.180 OA
BRANCH   2   5
ATOM      5  N   UNL d   1     -49.664  12.800  22.847  0.00  0.00    -0.215 N 
ATOM      6  C   UNL d   1     -49.621  12.042  23.183  0.00  0.00     0.093 C 
ATOM      7  C   UNL d   1     -50.238  11.774  23.644  0.00  0.00     0.020 C 
ATOM      8  C   UNL d   1     -50.940  12.191  23.691  0.00  0.00     0.003 C 
ATOM      9  C   UNL d   1     -51.023  12.892  23.267  0.00  0.00     0.020 C 
ATOM     10  C   UNL d   1     -50.405  13.175  22.795  0.00  0.00     0.093 C 
ENDBRANCH   2   5
ENDBRANCH   1   2
BRANCH   1  11
ATOM     11  C   UNL d   1     -47.688  13.552  22.238  0.00  0.00     0.095 A 
ATOM     12  C   UNL d   1     -47.001  13.085  22.183  0.00  0.00     0.023 A 
ATOM     13  C   UNL d   1     -46.289  13.358  22.508  0.00  0.00     0.041 A 
ATOM     14  C   UNL d   1     -46.267  14.096  22.893  0.00  0.00     0.003 A 
ATOM     15  C   UNL d   1     -46.948  14.575  22.954  0.00  0.00     0.002 A 
ATOM     16  C   UNL d   1     -47.665  14.296  22.618  0.00  0.00     0.020 A 
BRANCH  13  17
ATOM     17  C   UNL d   1     -45.646  12.843  22.584  0.00  0.00     0.196 C 
ATOM     18  O   UNL d   1     -45.589  12.358  23.246  0.00  0.00    -0.287 OA
ATOM     19  C   UNL d   1     -45.067  12.819  21.996  0.00  0.00     0.045 C 
ENDBRANCH  13  17
ENDBRANCH   1  11
TORSDOF 4
ENDMDL
MODEL 2
REMARK VINA RESULT:      -7.3      1.570      3.666
REMARK  4 active torsions:
REMARK  status: ('A' for Active; 'I' for Inactive)
REMARK    1  A    between atoms: N_2  and  S_1 
REMARK    2  A    between atoms: N_3  and  S_1 
REMARK    3  A    between atoms: C_8  and  N_3 
REMARK    4  A    between atoms: C_7  and  C_6 
ROOT
ATOM      1  N   UNL d   1     -48.763  13.155  21.539  0.00  0.00    -0.144 NA
ENDROOT
BRANCH   1   2
ATOM      2  S   UNL d   1     -48.280  12.810  22.111  0.00  0.00     0.351 S 
ATOM      3  O   UNL d   1     -48.815  12.213  22.303  0.00  0.00    -0.180 OA
ATOM      4  O   UNL d   1     -47.747  13.405  21.919  0.00  0.00    -0.180 OA
BRANCH   2   5
ATOM      5  N   UNL d   1     -47.751  12.514  22.668  0.00  0.00    -0.215 N 
ATOM      6  C   UNL d   1     -46.992  12.845  22.728  0.00  0.00     0.093 C 
ATOM      7  C   UNL d   1     -46.470  12.550  23.281  0.00  0.00     0.020 C 
ATOM      8  C   UNL d   1     -46.641  11.868  23.698  0.00  0.00     0.003 C 
ATOM      9  C   UNL d   1     -47.351  11.474  23.557  0.00  0.00     0.020 C 
ATOM     10  C   UNL d   1     -47.889  11.763  23.000  0.00  0.00     0.093 C 
ENDBRANCH   2   5
ENDBRANCH   1   2
BRANCH   1  11
ATOM     11  C   UNL d   1     -49.513  13.470  21.752  0.00  0.00     0.095 A 
ATOM     12  C   UNL d   1     -49.561  14.214  22.123  0.00  0.00     0.023 A 
ATOM     13  C   UNL d   1     -50.300  14.530  22.321  0.00  0.00     0.041 A 
ATOM     14  C   UNL d   1     -50.992  14.098  22.154  0.00  0.00     0.003 A 
ATOM     15  C   UNL d   1     -50.959  13.351  21.781  0.00  0.00     0.002 A 
ATOM     16  C   UNL d   1     -50.207  13.039  21.577  0.00  0.00     0.020 A 
BRANCH  13  17
ATOM     17  C   UNL d   1     -50.347  15.193  22.814  0.00  0.00     0.196 C 
ATOM     18  O   UNL d   1     -49.965  15.889  22.598  0.00  0.00    -0.287 OA
ATOM     19  C   UNL d   1     -50.777  15.153  23.518  0.00  0.00     0.045 C 
ENDBRANCH  13  17
ENDBRANCH   1  11
TORSDOF 4
ENDMDL
MODEL 3
REMARK VINA RESULT:      -7.0      1.629      3.489
REMARK  4 active torsions:
REMARK  status: ('A' for Active; 'I' for Inactive)
REMARK    1  A    between atoms: N_2  and  S_1 
REMARK    2  A    between atoms: N_3  and  S_1 
REMARK    3  A    between atoms: C_8  and  N_3 
REMARK    4  A    between atoms: C_7  and  C_6 
ROOT
ATOM      1  N   UNL d   1     -47.845  14.005  22.121  0.00  0.00    -0.144 NA
ENDROOT
BRANCH   1   2
ATOM      2  S   UNL d   1     -47.564  13.381  22.581  0.00  0.00     0.351 S 
ATOM      3  O   UNL d   1     -47.396  13.848  23.238  0.00  0.00    -0.180 OA
ATOM      4  O   UNL d   1     -47.732  12.915  21.924  0.00  0.00    -0.180 OA
BRANCH   2   5
ATOM      5  N   UNL d   1     -47.296  12.715  22.985  0.00  0.00    -0.215 N 
ATOM      6  C   UNL d   1     -46.511  12.686  23.253  0.00  0.00     0.093 C 
ATOM      7  C   UNL d   1     -46.250  12.025  23.652  0.00  0.00     0.020 C 
ATOM      8  C   UNL d   1     -46.711  11.352  23.698  0.00  0.00     0.003 C 
ATOM      9  C   UNL d   1     -47.450  11.342  23.335  0.00  0.00     0.020 C 
ATOM     10  C   UNL d   1     -47.728  12.006  22.926  0.00  0.00     0.093 C 
ENDBRANCH   2   5
ENDBRANCH   1   2
BRANCH   1  11
ATOM     11  C   UNL d   1     -48.554  14.403  22.336  0.00  0.00     0.095 A 
ATOM     12  C   UNL d   1     -49.291  14.096  22.101  0.00  0.00     0.023 A 
ATOM     13  C   UNL d   1     -49.989  14.482  22.323  0.00  0.00     0.041 A 
ATOM     14  C   UNL d   1     -49.950  15.180  22.775  0.00  0.00     0.003 A 
ATOM     15  C   UNL d   1     -49.217  15.498  23.019  0.00  0.00     0.002 A 
ATOM     16  C   UNL d   1     -48.512  15.100  22.796  0.00  0.00     0.020 A 
BRANCH  13  17
ATOM     17  C   UNL d   1     -50.708  14.266  21.975  0.00  0.00     0.196 C 
ATOM     18  O   UNL d   1     -51.063  14.768  21.428  0.00  0.00    -0.287 OA
ATOM     19  C   UNL d   1     -51.064  13.550  22.178  0.00  0.00     0.045 C 
ENDBRANCH  13  17
ENDBRANCH   1  11
TORSDOF 4
ENDMDL
MODEL 4
REMARK VINA RESULT:      -5.9      8.429     10.032
REMARK  4 active torsions:
REMARK  status: ('A' for Active; 'I' for Inactive)
REMARK    1  A    between atoms: N_2  and  S_1 
REMARK    2  A    between atoms: N_3  and  S_1 
REMARK    3  A    between atoms: C_8  and  N_3 
REMARK    4  A    between atoms: C_7  and  C_6 
ROOT
ATOM      1  N   UNL d   1     -40.578  14.113  18.128  0.00  0.00    -0.144 NA
ENDROOT
BRANCH   1   2
ATOM      2  S   UNL d   1     -39.914  14.056  17.644  0.00  0.00     0.351 S 
ATOM      3  O   UNL d   1     -39.964  14.830  17.366  0.00  0.00    -0.180 OA
ATOM      4  O   UNL d   1     -39.865  13.283  17.922  0.00  0.00    -0.180 OA
BRANCH   2   5
ATOM      5  N   UNL d   1     -39.244  13.933  17.182  0.00  0.00    -0.215 N 
ATOM      6  C   UNL d   1     -39.148  14.359  16.476  0.00  0.00     0.093 C 
ATOM      7  C   UNL d   1     -38.483  14.234  16.020  0.00  0.00     0.020 C 
ATOM      8  C   UNL d   1     -37.968  13.623  16.189  0.00  0.00     0.003 C 
ATOM      9  C   UNL d   1     -38.122  13.127  16.828  0.00  0.00     0.020 C 
ATOM     10  C   UNL d   1     -38.793  13.243  17.298  0.00  0.00     0.093 C 
ENDBRANCH   2   5
ENDBRANCH   1   2
BRANCH   1  11
ATOM     11  C   UNL d   1     -40.563  14.604  18.812  0.00  0.00     0.095 A 
ATOM     12  C   UNL d   1     -40.407  14.271  19.559  0.00  0.00     0.023 A 
ATOM     13  C   UNL d   1     -40.381  14.756  20.229  0.00  0.00     0.041 A 
ATOM     14  C   UNL d   1     -40.518  15.574  20.153  0.00  0.00     0.003 A 
ATOM     15  C   UNL d   1     -40.674  15.921  19.409  0.00  0.00     0.002 A 
ATOM     16  C   UNL d   1     -40.693  15.425  18.732  0.00  0.00     0.020 A 
BRANCH  13  17
ATOM     17  C   UNL d   1     -40.370  14.417  20.984  0.00  0.00     0.196 C 
ATOM     18  O   UNL d   1     -41.050  14.060  21.280  0.00  0.00    -0.287 OA
ATOM     19  C   UNL d   1     -39.679  14.440  21.435  0.00  0.00     0.045 C 
ENDBRANCH  13  17
ENDBRANCH   1  11
TORSDOF 4
ENDMDL
MODEL 5
REMARK VINA RESULT:      -5.7      8.440      9.666
REMARK  4 active torsions:
REMARK  status: ('A' for Active; 'I' for Inactive)
REMARK    1  A    between atoms: N_2  and  S_1 
REMARK    2  A    between atoms: N_3  and  S_1 
REMARK    3  A    between atoms: C_8  and  N_3 
REMARK    4  A    between atoms: C_7  and  C_6 
ROOT
ATOM      1  N   UNL d   1     -40.588  14.319  18.860  0.00  0.00    -0.144 NA
ENDROOT
BRANCH   1   2
ATOM      2  S   UNL d   1     -40.414  14.767  19.529  0.00  0.00     0.351 S 
ATOM      3  O   UNL d   1     -40.931  15.380  19.339  0.00  0.00    -0.180 OA
ATOM      4  O   UNL d   1     -39.898  14.155  19.718  0.00  0.00    -0.180 OA
BRANCH   2   5
ATOM      5  N   UNL d   1     -40.196  15.165  20.216  0.00  0.00    -0.215 N 
ATOM      6  C   UNL d   1     -39.453  15.018  20.556  0.00  0.00     0.093 C 
ATOM      7  C   UNL d   1     -39.240  15.414  21.238  0.00  0.00     0.020 C 
ATOM      8  C   UNL d   1     -39.783  15.865  21.648  0.00  0.00     0.003 C 
ATOM      9  C   UNL d   1     -40.557  15.922  21.369  0.00  0.00     0.020 C 
ATOM     10  C   UNL d   1     -40.785  15.526  20.680  0.00  0.00     0.093 C 
ENDBRANCH   2   5
ENDBRANCH   1   2
BRANCH   1  11
ATOM     11  C   UNL d   1     -40.387  14.604  18.094  0.00  0.00     0.095 A 
ATOM     12  C   UNL d   1     -39.676  14.363  17.734  0.00  0.00     0.023 A 
ATOM     13  C   UNL d   1     -39.485  14.635  16.976  0.00  0.00     0.041 A 
ATOM     14  C   UNL d   1     -40.002  15.153  16.580  0.00  0.00     0.003 A 
ATOM     15  C   UNL d   1     -40.719  15.402  16.928  0.00  0.00     0.002 A 
ATOM     16  C   UNL d   1     -40.911  15.119  17.695  0.00  0.00     0.020 A 
BRANCH  13  17
ATOM     17  C   UNL d   1     -38.722  14.517  16.675  0.00  0.00     0.196 C 
ATOM     18  O   UNL d   1     -38.161  15.114  16.744  0.00  0.00    -0.287 OA
ATOM     19  C   UNL d   1     -38.531  13.802  16.309  0.00  0.00     0.045 C 
ENDBRANCH  13  17
ENDBRANCH   1  11
TORSDOF 4
ENDMDL
MODEL 6
REMARK VINA RESULT:      -5.5      9.278     10.246
REMARK  4 active torsions:
REMARK  status: ('A' for Active; 'I' for Inactive)
REMARK    1  A    between atoms: N_2  and  S_1 
REMARK    2  A    between atoms: N_3  and  S_1 
REMARK    3  A    between atoms: C_8  and  N_3 
REMARK    4  A    between atoms: C_7  and  C_6 
ROOT
ATOM      1  N   UNL d   1     -38.126  14.262  19.548  0.00  0.00    -0.144 NA
ENDROOT
BRANCH   1   2
ATOM      2  S   UNL d   1     -38.303  13.968  20.297  0.00  0.00     0.351 S 
ATOM      3  O   UNL d   1     -38.035  13.205  20.138  0.00  0.00    -0.180 OA
ATOM      4  O   UNL d   1     -38.570  14.729  20.456  0.00  0.00    -0.180 OA
BRANCH   2   5
ATOM      5  N   UNL d   1     -38.503  13.738  21.062  0.00  0.00    -0.215 N 
ATOM      6  C   UNL d   1     -39.135  14.110  21.450  0.00  0.00     0.093 C 
ATOM      7  C   UNL d   1     -39.330  13.879  22.208  0.00  0.00     0.020 C 
ATOM      8  C   UNL d   1     -38.849  13.370  22.629  0.00  0.00     0.003 C 
ATOM      9  C   UNL d   1     -38.158  13.086  22.282  0.00  0.00     0.020 C 
ATOM     10  C   UNL d   1     -37.949  13.311  21.514  0.00  0.00     0.093 C 
ENDBRANCH   2   5
ENDBRANCH   1   2
BRANCH   1  11
ATOM     11  C   UNL d   1     -38.527  13.965  18.870  0.00  0.00     0.095 A 
ATOM     12  C   UNL d   1     -39.224  14.335  18.605  0.00  0.00     0.023 A 
ATOM     13  C   UNL d   1     -39.612  14.049  17.931  0.00  0.00     0.041 A 
ATOM     14  C   UNL d   1     -39.305  13.390  17.526  0.00  0.00     0.003 A 
ATOM     15  C   UNL d   1     -38.606  13.010  17.780  0.00  0.00     0.002 A 
ATOM     16  C   UNL d   1     -38.214  13.308  18.461  0.00  0.00     0.020 A 
BRANCH  13  17
ATOM     17  C   UNL d   1     -40.374  14.317  17.748  0.00  0.00     0.196 C 
ATOM     18  O   UNL d   1     -41.028  13.932  18.065  0.00  0.00    -0.287 OA
ATOM     19  C   UNL d   1     -40.472  14.968  17.250  0.00  0.00     0.045 C 
ENDBRANCH  13  17
ENDBRANCH   1  11
TORSDOF 4
ENDMDL
MODEL 7
REMARK VINA RESULT:      -5.3      1.245      3.830
REMARK  4 active torsions:
REMARK  status: ('A' for Active; 'I' for Inactive)
REMARK    1  A    between atoms: N_2  and  S_1 
REMARK    2  A    between atoms: N_3  and  S_1 
REMARK    3  A    between atoms: C_8  and  N_3 
REMARK    4  A    between atoms: C_7  and  C_6 
ROOT
ATOM      1  N   UNL d   1     -48.250  13.883  22.660  0.00  0.00    -0.144 NA
ENDROOT
BRANCH   1   2
ATOM      2  S   UNL d   1     -47.509  13.528  22.600  0.00  0.00     0.351 S 
ATOM      3  O   UNL d   1     -47.534  13.451  21.780  0.00  0.00    -0.180 OA
ATOM      4  O   UNL d   1     -47.484  13.605  23.418  0.00  0.00    -0.180 OA
BRANCH   2   5
ATOM      5  N   UNL d   1     -46.763  13.178  22.610  0.00  0.00    -0.215 N 
ATOM      6  C   UNL d   1     -46.588  12.602  23.182  0.00  0.00     0.093 C 
ATOM      7  C   UNL d   1     -45.848  12.259  23.189  0.00  0.00     0.020 C 
ATOM      8  C   UNL d   1     -45.247  12.546  22.716  0.00  0.00     0.003 C 
ATOM      9  C   UNL d   1     -45.390  13.193  22.226  0.00  0.00     0.020 C 
ATOM     10  C   UNL d   1     -46.136  13.551  22.209  0.00  0.00     0.093 C 
ENDBRANCH   2   5
ENDBRANCH   1   2
BRANCH   1  11
ATOM     11  C   UNL d   1     -48.940  13.466  22.421  0.00  0.00     0.095 A 
ATOM     12  C   UNL d   1     -49.370  13.020  22.977  0.00  0.00     0.023 A 
ATOM     13  C   UNL d   1     -50.056  12.620  22.744  0.00  0.00     0.041 A 
ATOM     14  C   UNL d   1     -50.310  12.661  21.952  0.00  0.00     0.003 A 
ATOM     15  C   UNL d   1     -49.889  13.106  21.384  0.00  0.00     0.002 A 
ATOM     16  C   UNL d   1     -49.197  13.515  21.627  0.00  0.00     0.020 A 
BRANCH  13  17
ATOM     17  C   UNL d   1     -50.403  12.065  23.251  0.00  0.00     0.196 C 
ATOM     18  O   UNL d   1     -50.084  11.308  23.305  0.00  0.00    -0.287 OA
ATOM     19  C   UNL d   1     -51.065  12.273  23.698  0.00  0.00     0.045 C 
ENDBRANCH  13  17
ENDBRANCH   1  11
TORSDOF 4
ENDMDL
MODEL 8
REMARK VINA RESULT:      -5.1      8.159      9.388
REMARK  4 active torsions:
REMARK  status: ('A' for Active; 'I' for Inactive)
REMARK    1  A    between atoms: N_2  and  S_1 
REMARK    2  A    between atoms: N_3  and  S_1 
REMARK    3  A    between atoms: C_8  and  N_3 
REMARK    4  A    between atoms: C_7  and  C_6 
ROOT
ATOM      1  N   UNL d   1     -40.101  15.877  19.760  0.00  0.00    -0.144 NA
ENDROOT
BRANCH   1   2
ATOM      2  S   UNL d   1     -40.149  15.686  18.959  0.00  0.00     0.351 S 
ATOM      3  O   UNL d   1     -39.357  15.472  18.891  0.00  0.00    -0.180 OA
ATOM      4  O   UNL d   1     -40.940  15.901  19.028  0.00  0.00    -0.180 OA
BRANCH   2   5
ATOM      5  N   UNL d   1     -40.265  15.514  18.163  0.00  0.00    -0.215 N 
ATOM      6  C   UNL d   1     -39.670  15.120  17.738  0.00  0.00     0.093 C 
ATOM      7  C   UNL d   1     -39.788  14.952  16.948  0.00  0.00     0.020 C 
ATOM      8  C   UNL d   1     -40.429  15.257  16.545  0.00  0.00     0.003 C 
ATOM      9  C   UNL d   1     -40.964  15.742  16.942  0.00  0.00     0.020 C 
ATOM     10  C   UNL d   1     -40.857  15.921  17.742  0.00  0.00     0.093 C 
ENDBRANCH   2   5
ENDBRANCH   1   2
BRANCH   1  11
ATOM     11  C   UNL d   1     -40.218  15.283  20.344  0.00  0.00     0.095 A 
ATOM     12  C   UNL d   1     -39.568  14.988  20.772  0.00  0.00     0.023 A 
ATOM     13  C   UNL d   1     -39.684  14.412  21.356  0.00  0.00     0.041 A 
ATOM     14  C   UNL d   1     -40.452  14.127  21.507  0.00  0.00     0.003 A 
ATOM     15  C   UNL d   1     -41.114  14.416  21.087  0.00  0.00     0.002 A 
ATOM     16  C   UNL d   1     -40.990  15.004  20.501  0.00  0.00     0.020 A 
BRANCH  13  17
ATOM     17  C   UNL d   1     -39.035  14.014  21.679  0.00  0.00     0.196 C 
ATOM     18  O   UNL d   1     -38.695  13.387  21.268  0.00  0.00    -0.287 OA
ATOM     19  C   UNL d   1     -38.731  14.248  22.410  0.00  0.00     0.045 C 
ENDBRANCH  13  17
ENDBRANCH   1  11
TORSDOF 4
ENDMDL
