MODEL 1
REMARK VINA RESULT:      15.8      0.000      0.000
REMARK  1 active torsions:
REMARK  status: ('A' for Active; 'I' for Inactive)
REMARK    1  A    between atoms: C_7  and  C_1 
ROOT
ATOM      1  C   UNL d   1     -58.434 -98.757 -44.494  0.00  0.00     0.102 A 
ATOM      2  C   UNL d   1     -58.304 -98.756 -43.677  0.00  0.00     0.303 A 
ATOM      3  C   UNL d   1     -57.785 -98.758 -45.009  0.00  0.00     0.011 A 
ATOM      4  O   UNL d   1     -57.524 -98.755 -43.374  0.00  0.00    -0.273 OA
ATOM      5  C   UNL d   1     -57.021 -98.757 -44.720  0.00  0.00     0.023 A 
ATOM      6  C   UNL d   1     -56.891 -98.756 -43.903  0.00  0.00     0.103 A 
ATOM      7  O   UNL d   1     -58.961 -98.755 -43.145  0.00  0.00    -0.259 OA
ATOM      8  C   UNL d   1     -56.385 -98.757 -45.232  0.00  0.00     0.002 A 
ATOM      9  C   UNL d   1     -56.124 -98.755 -43.598  0.00  0.00     0.025 A 
ATOM     10  C   UNL d   1     -55.626 -98.757 -44.943  0.00  0.00     0.000 A 
ATOM     11  C   UNL d   1     -55.496 -98.756 -44.126  0.00  0.00     0.002 A 
ENDROOT
BRANCH   1  12
ATOM     12  C   UNL d   1     -59.222 -98.758 -44.779  0.00  0.00     0.201 C 
ATOM     13  O   UNL d   1     -59.353 -98.755 -45.596  0.00  0.00    -0.286 OA
ATOM     14  C   UNL d   1     -59.859 -98.760 -44.266  0.00  0.00     0.045 C 
ENDBRANCH   1  12
TORSDOF 1
ENDMDL
MODEL 2
REMARK VINA RESULT:      17.7      1.111      3.006
REMARK  1 active torsions:
REMARK  status: ('A' for Active; 'I' for Inactive)
REMARK    1  A    between atoms: C_7  and  C_1 
ROOT
ATOM      1  C   UNL d   1     -56.977 -98.785 -44.608  0.00  0.00     0.102 A 
ATOM      2  C   UNL d   1     -57.417 -98.783 -45.308  0.00  0.00     0.303 A 
ATOM      3  C   UNL d   1     -57.373 -98.779 -43.880  0.00  0.00     0.011 A 
ATOM      4  O   UNL d   1     -58.253 -98.775 -45.282  0.00  0.00    -0.273 OA
ATOM      5  C   UNL d   1     -58.190 -98.772 -43.847  0.00  0.00     0.023 A 
ATOM      6  C   UNL d   1     -58.629 -98.770 -44.548  0.00  0.00     0.103 A 
ATOM      7  O   UNL d   1     -57.020 -98.789 -46.055  0.00  0.00    -0.259 OA
ATOM      8  C   UNL d   1     -58.574 -98.766 -43.127  0.00  0.00     0.002 A 
ATOM      9  C   UNL d   1     -59.454 -98.762 -44.529  0.00  0.00     0.025 A 
ATOM     10  C   UNL d   1     -59.387 -98.758 -43.097  0.00  0.00     0.000 A 
ATOM     11  C   UNL d   1     -59.826 -98.756 -43.797  0.00  0.00     0.002 A 
ENDROOT
BRANCH   1  12
ATOM     12  C   UNL d   1     -56.141 -98.793 -44.653  0.00  0.00     0.201 C 
ATOM     13  O   UNL d   1     -55.780 -98.782 -45.397  0.00  0.00    -0.286 OA
ATOM     14  C   UNL d   1     -55.679 -98.811 -43.978  0.00  0.00     0.045 C 
ENDBRANCH   1  12
TORSDOF 1
ENDMDL
MODEL 3
REMARK VINA RESULT:      18.1      1.487      2.683
REMARK  1 active torsions:
REMARK  status: ('A' for Active; 'I' for Inactive)
REMARK    1  A    between atoms: C_7  and  C_1 
ROOT
ATOM      1  C   UNL d   1     -58.976 -98.779 -43.960  0.00  0.00     0.102 A 
ATOM      2  C   UNL d   1     -58.181 -98.764 -44.187  0.00  0.00     0.303 A 
ATOM      3  C   UNL d   1     -59.565 -98.787 -44.542  0.00  0.00     0.011 A 
ATOM      4  O   UNL d   1     -57.974 -98.756 -44.997  0.00  0.00    -0.273 OA
ATOM      5  C   UNL d   1     -59.369 -98.779 -45.335  0.00  0.00     0.023 A 
ATOM      6  C   UNL d   1     -58.574 -98.763 -45.563  0.00  0.00     0.103 A 
ATOM      7  O   UNL d   1     -57.574 -98.756 -43.598  0.00  0.00    -0.259 OA
ATOM      8  C   UNL d   1     -59.955 -98.786 -45.905  0.00  0.00     0.002 A 
ATOM      9  C   UNL d   1     -58.364 -98.755 -46.360  0.00  0.00     0.025 A 
ATOM     10  C   UNL d   1     -59.758 -98.779 -46.694  0.00  0.00     0.000 A 
ATOM     11  C   UNL d   1     -58.963 -98.763 -46.921  0.00  0.00     0.002 A 
ENDROOT
BRANCH   1  12
ATOM     12  C   UNL d   1     -59.165 -98.787 -43.143  0.00  0.00     0.201 C 
ATOM     13  O   UNL d   1     -58.550 -98.808 -42.590  0.00  0.00    -0.286 OA
ATOM     14  C   UNL d   1     -59.941 -98.774 -42.887  0.00  0.00     0.045 C 
ENDBRANCH   1  12
TORSDOF 1
ENDMDL
