MODEL 1
REMARK VINA RESULT:      -5.7      0.000      0.000
REMARK  4 active torsions:
REMARK  status: ('A' for Active; 'I' for Inactive)
REMARK    1  A    between atoms: C_9  and  C_2 
REMARK    2  A    between atoms: S_8  and  C_4 
REMARK       I    between atoms: N_6  and  C_7 
REMARK    3  A    between atoms: C_7  and  C_10 
REMARK    4  A    between atoms: C_10  and  S_8 
ROOT
ATOM      1  N   UNL d   1     -41.556-122.284 -52.825  0.00  0.00    -0.212 NA
ATOM      2  C   UNL d   1     -41.516-122.721 -53.513  0.00  0.00     0.171 A 
ATOM      3  N   UNL d   1     -41.255-123.479 -53.323  0.00  0.00    -0.188 NA
ATOM      4  C   UNL d   1     -41.322-122.761 -52.197  0.00  0.00     0.160 A 
ATOM      5  S   UNL d   1     -41.135-123.504 -52.508  0.00  0.00     0.041 SA
ENDROOT
BRANCH   4   6
ATOM      6  S   UNL d   1     -41.278-122.546 -51.402  0.00  0.00    -0.054 SA
BRANCH   6   7
ATOM      7  C   UNL d   1     -41.788-122.882 -50.859  0.00  0.00     0.098 C 
BRANCH   7   8
ATOM      8  C   UNL d   1     -41.732-122.695 -50.055  0.00  0.00     0.272 C 
ATOM      9  N   UNL d   1     -42.266-123.002 -49.505  0.00  0.00    -0.267 N 
ATOM     10  C   UNL d   1     -42.192-122.802 -48.713  0.00  0.00     0.110 A 
ATOM     11  C   UNL d   1     -42.866-123.506 -49.761  0.00  0.00     0.110 A 
ATOM     12  C   UNL d   1     -42.731-123.114 -48.163  0.00  0.00     0.142 A 
ATOM     13  O   UNL d   1     -43.333-123.617 -48.407  0.00  0.00    -0.300 OA
ATOM     14  C   UNL d   1     -43.406-123.817 -49.211  0.00  0.00     0.142 A 
ATOM     15  O   UNL d   1     -41.125-122.186 -49.799  0.00  0.00    -0.266 OA
ENDBRANCH   7   8
ENDBRANCH   6   7
ENDBRANCH   4   6
BRANCH   2  16
ATOM     16  C   UNL d   1     -41.703-122.458 -54.273  0.00  0.00     0.036 A 
ATOM     17  C   UNL d   1     -41.150-122.509 -54.868  0.00  0.00     0.003 A 
ATOM     18  C   UNL d   1     -41.321-122.253 -55.625  0.00  0.00     0.000 A 
ATOM     19  C   UNL d   1     -42.068-121.936 -55.788  0.00  0.00     0.000 A 
ATOM     20  C   UNL d   1     -42.631-121.881 -55.194  0.00  0.00     0.000 A 
ATOM     21  C   UNL d   1     -42.451-122.139 -54.444  0.00  0.00     0.003 A 
ENDBRANCH   2  16
TORSDOF 4
ENDMDL
MODEL 2
REMARK VINA RESULT:      -5.6      1.806      5.143
REMARK  4 active torsions:
REMARK  status: ('A' for Active; 'I' for Inactive)
REMARK    1  A    between atoms: C_9  and  C_2 
REMARK    2  A    between atoms: S_8  and  C_4 
REMARK       I    between atoms: N_6  and  C_7 
REMARK    3  A    between atoms: C_7  and  C_10 
REMARK    4  A    between atoms: C_10  and  S_8 
ROOT
ATOM      1  N   UNL d   1     -41.624-123.320 -50.937  0.00  0.00    -0.212 NA
ATOM      2  C   UNL d   1     -41.646-122.887 -50.246  0.00  0.00     0.171 A 
ATOM      3  N   UNL d   1     -41.338-122.138 -50.400  0.00  0.00    -0.188 NA
ATOM      4  C   UNL d   1     -41.303-122.850 -51.531  0.00  0.00     0.160 A 
ATOM      5  S   UNL d   1     -41.125-122.115 -51.196  0.00  0.00     0.041 SA
ENDROOT
BRANCH   4   6
ATOM      6  S   UNL d   1     -41.177-123.065 -52.318  0.00  0.00    -0.054 SA
BRANCH   6   7
ATOM      7  C   UNL d   1     -41.537-122.645 -52.919  0.00  0.00     0.098 C 
BRANCH   7   8
ATOM      8  C   UNL d   1     -41.522-122.924 -53.698  0.00  0.00     0.272 C 
ATOM      9  N   UNL d   1     -41.882-122.506 -54.311  0.00  0.00    -0.267 N 
ATOM     10  C   UNL d   1     -41.855-122.801 -55.075  0.00  0.00     0.110 A 
ATOM     11  C   UNL d   1     -42.266-121.795 -54.145  0.00  0.00     0.110 A 
ATOM     12  C   UNL d   1     -42.219-122.376 -55.689  0.00  0.00     0.142 A 
ATOM     13  O   UNL d   1     -42.604-121.667 -55.535  0.00  0.00    -0.300 OA
ATOM     14  C   UNL d   1     -42.631-121.370 -54.758  0.00  0.00     0.142 A 
ATOM     15  O   UNL d   1     -41.133-123.642 -53.863  0.00  0.00    -0.266 OA
ENDBRANCH   7   8
ENDBRANCH   6   7
ENDBRANCH   4   6
BRANCH   2  16
ATOM     16  C   UNL d   1     -41.927-123.144 -49.513  0.00  0.00     0.036 A 
ATOM     17  C   UNL d   1     -41.423-123.508 -48.990  0.00  0.00     0.003 A 
ATOM     18  C   UNL d   1     -41.687-123.768 -48.262  0.00  0.00     0.000 A 
ATOM     19  C   UNL d   1     -42.481-123.658 -48.054  0.00  0.00     0.000 A 
ATOM     20  C   UNL d   1     -42.996-123.291 -48.577  0.00  0.00     0.000 A 
ATOM     21  C   UNL d   1     -42.723-123.037 -49.299  0.00  0.00     0.003 A 
ENDBRANCH   2  16
TORSDOF 4
ENDMDL
