MODEL 1
REMARK VINA RESULT:      -7.6      0.000      0.000
REMARK  4 active torsions:
REMARK  status: ('A' for Active; 'I' for Inactive)
REMARK    1  A    between atoms: C_10  and  C_3 
REMARK    2  A    between atoms: C_12  and  C_5 
REMARK    3  A    between atoms: C_15  and  C_12 
REMARK    4  A    between atoms: C_18  and  C_15 
ROOT
ATOM      1  C   UNL d   1     -48.431  13.578  23.085  0.00  0.00     0.152 A 
ATOM      2  N   UNL d   1     -48.114  12.813  23.196  0.00  0.00    -0.258 N 
ATOM      3  C   UNL d   1     -47.932  14.208  22.906  0.00  0.00     0.056 A 
ATOM      4  C   UNL d   1     -47.303  12.689  23.125  0.00  0.00     0.266 A 
ATOM      5  C   UNL d   1     -46.795  13.322  22.944  0.00  0.00     0.057 A 
ATOM      6  N   UNL d   1     -49.251  13.698  23.158  0.00  0.00    -0.227 NA
ATOM      7  C   UNL d   1     -47.112  14.088  22.834  0.00  0.00     0.009 A 
ATOM      8  C   UNL d   1     -49.437  12.301  23.449  0.00  0.00     0.086 A 
ATOM      9  C   UNL d   1     -49.767  13.062  23.340  0.00  0.00     0.099 A 
ATOM     10  O   UNL d   1     -46.981  11.910  23.238  0.00  0.00    -0.267 OA
ATOM     11  C   UNL d   1     -46.619  14.720  22.654  0.00  0.00     0.000 C 
ATOM     12  C   UNL d   1     -49.945  11.668  23.630  0.00  0.00     0.019 A 
ATOM     13  C   UNL d   1     -50.570  13.179  23.412  0.00  0.00     0.021 A 
ATOM     14  C   UNL d   1     -50.757  11.806  23.698  0.00  0.00     0.002 A 
ATOM     15  C   UNL d   1     -51.064  12.550  23.590  0.00  0.00     0.002 A 
ENDROOT
BRANCH   5  16
ATOM     16  C   UNL d   1     -45.981  13.204  22.872  0.00  0.00     0.005 C 
BRANCH  16  17
ATOM     17  C   UNL d   1     -45.664  12.928  22.168  0.00  0.00     0.000 C 
BRANCH  17  18
ATOM     18  C   UNL d   1     -44.861  12.771  22.119  0.00  0.00     0.000 C 
ATOM     19  C   UNL d   1     -44.391  13.223  21.608  0.00  0.00     0.000 C 
ATOM     20  C   UNL d   1     -44.523  12.170  22.573  0.00  0.00     0.000 C 
ENDBRANCH  17  18
ENDBRANCH  16  17
ENDBRANCH   5  16
BRANCH   3  21
ATOM     21  C   UNL d   1     -48.247  14.959  22.798  0.00  0.00     0.125 C 
ATOM     22  N   UNL d   1     -48.356  15.258  22.043  0.00  0.00    -0.146 N 
ENDBRANCH   3  21
TORSDOF 4
ENDMDL
MODEL 2
REMARK VINA RESULT:      -7.4      1.173      2.140
REMARK  4 active torsions:
REMARK  status: ('A' for Active; 'I' for Inactive)
REMARK    1  A    between atoms: C_10  and  C_3 
REMARK    2  A    between atoms: C_12  and  C_5 
REMARK    3  A    between atoms: C_15  and  C_12 
REMARK    4  A    between atoms: C_18  and  C_15 
ROOT
ATOM      1  C   UNL d   1     -48.651  13.315  23.281  0.00  0.00     0.152 A 
ATOM      2  N   UNL d   1     -48.145  13.961  23.122  0.00  0.00    -0.258 N 
ATOM      3  C   UNL d   1     -48.340  12.556  23.350  0.00  0.00     0.056 A 
ATOM      4  C   UNL d   1     -47.336  13.838  23.035  0.00  0.00     0.266 A 
ATOM      5  C   UNL d   1     -47.017  13.073  23.103  0.00  0.00     0.057 A 
ATOM      6  N   UNL d   1     -49.468  13.444  23.369  0.00  0.00    -0.227 NA
ATOM      7  C   UNL d   1     -47.523  12.427  23.262  0.00  0.00     0.009 A 
ATOM      8  C   UNL d   1     -49.277  14.852  23.142  0.00  0.00     0.086 A 
ATOM      9  C   UNL d   1     -49.794  14.215  23.301  0.00  0.00     0.099 A 
ATOM     10  O   UNL d   1     -46.821  14.496  22.873  0.00  0.00    -0.267 OA
ATOM     11  C   UNL d   1     -47.217  11.667  23.331  0.00  0.00     0.000 C 
ATOM     12  C   UNL d   1     -49.596  15.617  23.074  0.00  0.00     0.019 A 
ATOM     13  C   UNL d   1     -50.594  14.342  23.387  0.00  0.00     0.021 A 
ATOM     14  C   UNL d   1     -50.410  15.727  23.164  0.00  0.00     0.002 A 
ATOM     15  C   UNL d   1     -50.901  15.099  23.319  0.00  0.00     0.002 A 
ENDROOT
BRANCH   5  16
ATOM     16  C   UNL d   1     -46.206  12.943  23.016  0.00  0.00     0.005 C 
BRANCH  16  17
ATOM     17  C   UNL d   1     -45.862  12.965  22.272  0.00  0.00     0.000 C 
BRANCH  17  18
ATOM     18  C   UNL d   1     -45.059  12.816  22.192  0.00  0.00     0.000 C 
ATOM     19  C   UNL d   1     -44.601  13.313  21.714  0.00  0.00     0.000 C 
ATOM     20  C   UNL d   1     -44.711  12.178  22.583  0.00  0.00     0.000 C 
ENDBRANCH  17  18
ENDBRANCH  16  17
ENDBRANCH   5  16
BRANCH   3  21
ATOM     21  C   UNL d   1     -48.840  11.923  23.506  0.00  0.00     0.125 C 
ATOM     22  N   UNL d   1     -49.002  11.369  22.924  0.00  0.00    -0.146 N 
ENDBRANCH   3  21
TORSDOF 4
ENDMDL
MODEL 3
REMARK VINA RESULT:      -6.9      1.491      4.209
REMARK  4 active torsions:
REMARK  status: ('A' for Active; 'I' for Inactive)
REMARK    1  A    between atoms: C_10  and  C_3 
REMARK    2  A    between atoms: C_12  and  C_5 
REMARK    3  A    between atoms: C_15  and  C_12 
REMARK    4  A    between atoms: C_18  and  C_15 
ROOT
ATOM      1  C   UNL d   1     -46.126  12.248  23.045  0.00  0.00     0.152 A 
ATOM      2  N   UNL d   1     -46.585  11.612  23.334  0.00  0.00    -0.258 N 
ATOM      3  C   UNL d   1     -46.490  12.953  22.830  0.00  0.00     0.056 A 
ATOM      4  C   UNL d   1     -47.401  11.693  23.404  0.00  0.00     0.266 A 
ATOM      5  C   UNL d   1     -47.774  12.404  23.187  0.00  0.00     0.057 A 
ATOM      6  N   UNL d   1     -45.301  12.161  22.977  0.00  0.00    -0.227 NA
ATOM      7  C   UNL d   1     -47.314  13.040  22.898  0.00  0.00     0.009 A 
ATOM      8  C   UNL d   1     -45.393  10.817  23.482  0.00  0.00     0.086 A 
ATOM      9  C   UNL d   1     -44.921  11.445  23.194  0.00  0.00     0.099 A 
ATOM     10  O   UNL d   1     -47.869  11.046  23.698  0.00  0.00    -0.267 OA
ATOM     11  C   UNL d   1     -47.673  13.747  22.682  0.00  0.00     0.000 C 
ATOM     12  C   UNL d   1     -45.020  10.105  23.698  0.00  0.00     0.019 A 
ATOM     13  C   UNL d   1     -44.114  11.359  23.127  0.00  0.00     0.021 A 
ATOM     14  C   UNL d   1     -44.200  10.038  23.623  0.00  0.00     0.002 A 
ATOM     15  C   UNL d   1     -43.754  10.656  23.342  0.00  0.00     0.002 A 
ENDROOT
BRANCH   5  16
ATOM     16  C   UNL d   1     -48.592  12.491  23.255  0.00  0.00     0.005 C 
BRANCH  16  17
ATOM     17  C   UNL d   1     -49.091  12.159  22.695  0.00  0.00     0.000 C 
BRANCH  17  18
ATOM     18  C   UNL d   1     -49.900  12.279  22.749  0.00  0.00     0.000 C 
ATOM     19  C   UNL d   1     -50.303  12.620  22.111  0.00  0.00     0.000 C 
ATOM     20  C   UNL d   1     -50.310  12.063  23.433  0.00  0.00     0.000 C 
ENDBRANCH  17  18
ENDBRANCH  16  17
ENDBRANCH   5  16
BRANCH   3  21
ATOM     21  C   UNL d   1     -46.035  13.576  22.546  0.00  0.00     0.125 C 
ATOM     22  N   UNL d   1     -46.078  14.315  22.898  0.00  0.00    -0.146 N 
ENDBRANCH   3  21
TORSDOF 4
ENDMDL
MODEL 4
REMARK VINA RESULT:      -6.7      1.064      1.392
REMARK  4 active torsions:
REMARK  status: ('A' for Active; 'I' for Inactive)
REMARK    1  A    between atoms: C_10  and  C_3 
REMARK    2  A    between atoms: C_12  and  C_5 
REMARK    3  A    between atoms: C_15  and  C_12 
REMARK    4  A    between atoms: C_18  and  C_15 
ROOT
ATOM      1  C   UNL d   1     -48.192  13.239  22.993  0.00  0.00     0.152 A 
ATOM      2  N   UNL d   1     -48.252  12.416  23.130  0.00  0.00    -0.258 N 
ATOM      3  C   UNL d   1     -47.463  13.615  23.066  0.00  0.00     0.056 A 
ATOM      4  C   UNL d   1     -47.583  11.984  23.338  0.00  0.00     0.266 A 
ATOM      5  C   UNL d   1     -46.845  12.360  23.413  0.00  0.00     0.057 A 
ATOM      6  N   UNL d   1     -48.870  13.671  22.783  0.00  0.00    -0.227 NA
ATOM      7  C   UNL d   1     -46.785  13.183  23.275  0.00  0.00     0.009 A 
ATOM      8  C   UNL d   1     -49.664  12.472  22.847  0.00  0.00     0.086 A 
ATOM      9  C   UNL d   1     -49.617  13.295  22.707  0.00  0.00     0.099 A 
ATOM     10  O   UNL d   1     -47.644  11.147  23.478  0.00  0.00    -0.267 OA
ATOM     11  C   UNL d   1     -46.060  13.564  23.347  0.00  0.00     0.000 C 
ATOM     12  C   UNL d   1     -50.402  12.096  22.772  0.00  0.00     0.019 A 
ATOM     13  C   UNL d   1     -50.283  13.719  22.501  0.00  0.00     0.021 A 
ATOM     14  C   UNL d   1     -51.064  12.542  22.563  0.00  0.00     0.002 A 
ATOM     15  C   UNL d   1     -51.006  13.341  22.429  0.00  0.00     0.002 A 
ENDROOT
BRANCH   5  16
ATOM     16  C   UNL d   1     -46.171  11.932  23.621  0.00  0.00     0.005 C 
BRANCH  16  17
ATOM     17  C   UNL d   1     -45.845  11.393  23.096  0.00  0.00     0.000 C 
BRANCH  17  18
ATOM     18  C   UNL d   1     -45.163  10.987  23.302  0.00  0.00     0.000 C 
ATOM     19  C   UNL d   1     -45.226  10.263  23.698  0.00  0.00     0.000 C 
ATOM     20  C   UNL d   1     -44.420  11.297  23.117  0.00  0.00     0.000 C 
ENDBRANCH  17  18
ENDBRANCH  16  17
ENDBRANCH   5  16
BRANCH   3  21
ATOM     21  C   UNL d   1     -47.408  14.424  22.930  0.00  0.00     0.125 C 
ATOM     22  N   UNL d   1     -47.039  14.707  22.254  0.00  0.00    -0.146 N 
ENDBRANCH   3  21
TORSDOF 4
ENDMDL
MODEL 5
REMARK VINA RESULT:      -6.7      1.326      4.350
REMARK  4 active torsions:
REMARK  status: ('A' for Active; 'I' for Inactive)
REMARK    1  A    between atoms: C_10  and  C_3 
REMARK    2  A    between atoms: C_12  and  C_5 
REMARK    3  A    between atoms: C_15  and  C_12 
REMARK    4  A    between atoms: C_18  and  C_15 
ROOT
ATOM      1  C   UNL d   1     -47.286  12.750  23.009  0.00  0.00     0.152 A 
ATOM      2  N   UNL d   1     -47.275  13.514  22.669  0.00  0.00    -0.258 N 
ATOM      3  C   UNL d   1     -47.978  12.462  23.349  0.00  0.00     0.056 A 
ATOM      4  C   UNL d   1     -47.955  13.977  22.675  0.00  0.00     0.266 A 
ATOM      5  C   UNL d   1     -48.657  13.689  23.017  0.00  0.00     0.057 A 
ATOM      6  N   UNL d   1     -46.596  12.287  23.001  0.00  0.00    -0.227 NA
ATOM      7  C   UNL d   1     -48.668  12.926  23.357  0.00  0.00     0.009 A 
ATOM      8  C   UNL d   1     -45.888  13.338  22.320  0.00  0.00     0.086 A 
ATOM      9  C   UNL d   1     -45.886  12.573  22.657  0.00  0.00     0.099 A 
ATOM     10  O   UNL d   1     -47.944  14.754  22.329  0.00  0.00    -0.267 OA
ATOM     11  C   UNL d   1     -49.356  12.632  23.698  0.00  0.00     0.000 C 
ATOM     12  C   UNL d   1     -45.186  13.625  21.978  0.00  0.00     0.019 A 
ATOM     13  C   UNL d   1     -45.209  12.119  22.649  0.00  0.00     0.021 A 
ATOM     14  C   UNL d   1     -44.510  13.150  21.980  0.00  0.00     0.002 A 
ATOM     15  C   UNL d   1     -44.522  12.409  22.310  0.00  0.00     0.002 A 
ENDROOT
BRANCH   5  16
ATOM     16  C   UNL d   1     -49.342  14.149  23.025  0.00  0.00     0.005 C 
BRANCH  16  17
ATOM     17  C   UNL d   1     -49.725  14.334  22.324  0.00  0.00     0.000 C 
BRANCH  17  18
ATOM     18  C   UNL d   1     -50.465  14.687  22.346  0.00  0.00     0.000 C 
ATOM     19  C   UNL d   1     -51.063  14.403  21.849  0.00  0.00     0.000 C 
ATOM     20  C   UNL d   1     -50.613  15.318  22.858  0.00  0.00     0.000 C 
ENDBRANCH  17  18
ENDBRANCH  16  17
ENDBRANCH   5  16
BRANCH   3  21
ATOM     21  C   UNL d   1     -47.985  11.711  23.683  0.00  0.00     0.125 C 
ATOM     22  N   UNL d   1     -48.356  11.090  23.297  0.00  0.00    -0.146 N 
ENDBRANCH   3  21
TORSDOF 4
ENDMDL
MODEL 6
REMARK VINA RESULT:      -6.5      1.413      2.542
REMARK  4 active torsions:
REMARK  status: ('A' for Active; 'I' for Inactive)
REMARK    1  A    between atoms: C_10  and  C_3 
REMARK    2  A    between atoms: C_12  and  C_5 
REMARK    3  A    between atoms: C_15  and  C_12 
REMARK    4  A    between atoms: C_18  and  C_15 
ROOT
ATOM      1  C   UNL d   1     -48.238  12.825  23.191  0.00  0.00     0.152 A 
ATOM      2  N   UNL d   1     -47.539  13.282  23.176  0.00  0.00    -0.258 N 
ATOM      3  C   UNL d   1     -48.200  12.021  23.359  0.00  0.00     0.056 A 
ATOM      4  C   UNL d   1     -46.812  12.927  23.331  0.00  0.00     0.266 A 
ATOM      5  C   UNL d   1     -46.769  12.115  23.501  0.00  0.00     0.057 A 
ATOM      6  N   UNL d   1     -48.970  13.189  23.034  0.00  0.00    -0.227 NA
ATOM      7  C   UNL d   1     -47.469  11.657  23.515  0.00  0.00     0.009 A 
ATOM      8  C   UNL d   1     -48.311  14.455  22.850  0.00  0.00     0.086 A 
ATOM      9  C   UNL d   1     -49.018  14.009  22.861  0.00  0.00     0.099 A 
ATOM     10  O   UNL d   1     -46.100  13.393  23.316  0.00  0.00    -0.267 OA
ATOM     11  C   UNL d   1     -47.437  10.853  23.683  0.00  0.00     0.000 C 
ATOM     12  C   UNL d   1     -48.355  15.267  22.680  0.00  0.00     0.019 A 
ATOM     13  C   UNL d   1     -49.735  14.365  22.708  0.00  0.00     0.021 A 
ATOM     14  C   UNL d   1     -49.090  15.611  22.527  0.00  0.00     0.002 A 
ATOM     15  C   UNL d   1     -49.769  15.167  22.541  0.00  0.00     0.002 A 
ENDROOT
BRANCH   5  16
ATOM     16  C   UNL d   1     -46.043  11.753  23.657  0.00  0.00     0.005 C 
BRANCH  16  17
ATOM     17  C   UNL d   1     -45.563  11.507  23.039  0.00  0.00     0.000 C 
BRANCH  17  18
ATOM     18  C   UNL d   1     -44.869  11.103  23.201  0.00  0.00     0.000 C 
ATOM     19  C   UNL d   1     -44.894  10.435  23.691  0.00  0.00     0.000 C 
ATOM     20  C   UNL d   1     -44.151  11.357  22.881  0.00  0.00     0.000 C 
ENDBRANCH  17  18
ENDBRANCH  16  17
ENDBRANCH   5  16
BRANCH   3  21
ATOM     21  C   UNL d   1     -48.890  11.574  23.372  0.00  0.00     0.125 C 
ATOM     22  N   UNL d   1     -49.184  11.244  22.681  0.00  0.00    -0.146 N 
ENDBRANCH   3  21
TORSDOF 4
ENDMDL
MODEL 7
REMARK VINA RESULT:      -5.8      1.778      4.134
REMARK  4 active torsions:
REMARK  status: ('A' for Active; 'I' for Inactive)
REMARK    1  A    between atoms: C_10  and  C_3 
REMARK    2  A    between atoms: C_12  and  C_5 
REMARK    3  A    between atoms: C_15  and  C_12 
REMARK    4  A    between atoms: C_18  and  C_15 
ROOT
ATOM      1  C   UNL d   1     -46.648  11.691  23.465  0.00  0.00     0.152 A 
ATOM      2  N   UNL d   1     -46.142  12.335  23.296  0.00  0.00    -0.258 N 
ATOM      3  C   UNL d   1     -47.459  11.812  23.532  0.00  0.00     0.056 A 
ATOM      4  C   UNL d   1     -46.456  13.089  23.198  0.00  0.00     0.266 A 
ATOM      5  C   UNL d   1     -47.275  13.217  23.265  0.00  0.00     0.057 A 
ATOM      6  N   UNL d   1     -46.326  10.931  23.563  0.00  0.00    -0.227 NA
ATOM      7  C   UNL d   1     -47.781  12.572  23.434  0.00  0.00     0.009 A 
ATOM      8  C   UNL d   1     -45.005  11.451  23.328  0.00  0.00     0.086 A 
ATOM      9  C   UNL d   1     -45.499  10.798  23.496  0.00  0.00     0.099 A 
ATOM     10  O   UNL d   1     -45.941  13.745  23.027  0.00  0.00    -0.267 OA
ATOM     11  C   UNL d   1     -48.592  12.687  23.502  0.00  0.00     0.000 C 
ATOM     12  C   UNL d   1     -44.186  11.323  23.260  0.00  0.00     0.019 A 
ATOM     13  C   UNL d   1     -45.183  10.053  23.593  0.00  0.00     0.021 A 
ATOM     14  C   UNL d   1     -43.884  10.561  23.361  0.00  0.00     0.002 A 
ATOM     15  C   UNL d   1     -44.375   9.936  23.525  0.00  0.00     0.002 A 
ENDROOT
BRANCH   5  16
ATOM     16  C   UNL d   1     -47.596  13.971  23.168  0.00  0.00     0.005 C 
BRANCH  16  17
ATOM     17  C   UNL d   1     -47.838  14.225  22.427  0.00  0.00     0.000 C 
BRANCH  17  18
ATOM     18  C   UNL d   1     -48.154  14.976  22.338  0.00  0.00     0.000 C 
ATOM     19  C   UNL d   1     -48.844  15.176  22.749  0.00  0.00     0.000 C 
ATOM     20  C   UNL d   1     -47.789  15.528  21.844  0.00  0.00     0.000 C 
ENDBRANCH  17  18
ENDBRANCH  16  17
ENDBRANCH   5  16
BRANCH   3  21
ATOM     21  C   UNL d   1     -47.953  11.176  23.698  0.00  0.00     0.125 C 
ATOM     22  N   UNL d   1     -48.499  10.920  23.143  0.00  0.00    -0.146 N 
ENDBRANCH   3  21
TORSDOF 4
ENDMDL
MODEL 8
REMARK VINA RESULT:      -4.9      8.365     10.547
REMARK  4 active torsions:
REMARK  status: ('A' for Active; 'I' for Inactive)
REMARK    1  A    between atoms: C_10  and  C_3 
REMARK    2  A    between atoms: C_12  and  C_5 
REMARK    3  A    between atoms: C_15  and  C_12 
REMARK    4  A    between atoms: C_18  and  C_15 
ROOT
ATOM      1  C   UNL d   1     -39.227  13.998  18.415  0.00  0.00     0.152 A 
ATOM      2  N   UNL d   1     -39.305  14.682  17.940  0.00  0.00    -0.258 N 
ATOM      3  C   UNL d   1     -38.774  13.365  18.150  0.00  0.00     0.056 A 
ATOM      4  C   UNL d   1     -38.929  14.721  17.210  0.00  0.00     0.266 A 
ATOM      5  C   UNL d   1     -38.470  14.083  16.938  0.00  0.00     0.057 A 
ATOM      6  N   UNL d   1     -39.609  13.964  19.153  0.00  0.00    -0.227 NA
ATOM      7  C   UNL d   1     -38.391  13.399  17.412  0.00  0.00     0.009 A 
ATOM      8  C   UNL d   1     -40.144  15.284  18.946  0.00  0.00     0.086 A 
ATOM      9  C   UNL d   1     -40.074  14.606  19.430  0.00  0.00     0.099 A 
ATOM     10  O   UNL d   1     -39.009  15.417  16.727  0.00  0.00    -0.267 OA
ATOM     11  C   UNL d   1     -37.940  12.763  17.154  0.00  0.00     0.000 C 
ATOM     12  C   UNL d   1     -40.603  15.922  19.218  0.00  0.00     0.019 A 
ATOM     13  C   UNL d   1     -40.449  14.573  20.153  0.00  0.00     0.021 A 
ATOM     14  C   UNL d   1     -40.975  15.870  19.953  0.00  0.00     0.002 A 
ATOM     15  C   UNL d   1     -40.899  15.205  20.414  0.00  0.00     0.002 A 
ENDROOT
BRANCH   5  16
ATOM     16  C   UNL d   1     -38.090  14.116  16.206  0.00  0.00     0.005 C 
BRANCH  16  17
ATOM     17  C   UNL d   1     -38.523  14.057  15.512  0.00  0.00     0.000 C 
BRANCH  17  18
ATOM     18  C   UNL d   1     -38.136  14.062  14.790  0.00  0.00     0.000 C 
ATOM     19  C   UNL d   1     -37.942  13.342  14.430  0.00  0.00     0.000 C 
ATOM     20  C   UNL d   1     -37.940  14.776  14.425  0.00  0.00     0.000 C 
ENDBRANCH  17  18
ENDBRANCH  16  17
ENDBRANCH   5  16
BRANCH   3  21
ATOM     21  C   UNL d   1     -38.699  12.694  18.620  0.00  0.00     0.125 C 
ATOM     22  N   UNL d   1     -37.974  12.494  18.944  0.00  0.00    -0.146 N 
ENDBRANCH   3  21
TORSDOF 4
ENDMDL
