MODEL 1
REMARK VINA RESULT:       8.6      0.000      0.000
REMARK  10 active torsions:
REMARK  status: ('A' for Active; 'I' for Inactive)
REMARK    1  A    between atoms: C_5  and  C_1 
REMARK    2  A    between atoms: N_6  and  C_2 
REMARK    3  A    between atoms: C_7  and  C_5 
REMARK    4  A    between atoms: C_8  and  C_5 
REMARK    5  A    between atoms: O_18  and  C_7 
REMARK    6  A    between atoms: C_22  and  O_18 
REMARK    7  A    between atoms: C_23  and  C_22 
REMARK    8  A    between atoms: C_26  and  C_23 
REMARK    9  A    between atoms: C_24  and  C_25 
REMARK   10  A    between atoms: C_25  and  C_26 
ROOT
ATOM      1  C   UNL d   1     -41.985-122.722 -49.499  0.00  0.00     0.122 A 
ATOM      2  C   UNL d   1     -42.791-122.711 -49.312  0.00  0.00     0.166 A 
ATOM      3  N   UNL d   1     -43.030-122.942 -48.558  0.00  0.00    -0.225 NA
ATOM      4  N   UNL d   1     -41.425-122.961 -48.937  0.00  0.00    -0.241 NA
ATOM      5  C   UNL d   1     -42.483-123.180 -47.997  0.00  0.00     0.101 A 
ATOM      6  C   UNL d   1     -41.674-123.190 -48.187  0.00  0.00     0.099 A 
ATOM      7  C   UNL d   1     -41.122-123.428 -47.627  0.00  0.00     0.021 A 
ATOM      8  C   UNL d   1     -42.729-123.411 -47.240  0.00  0.00     0.021 A 
ATOM      9  C   UNL d   1     -42.169-123.651 -46.678  0.00  0.00     0.002 A 
ATOM     10  C   UNL d   1     -41.369-123.659 -46.871  0.00  0.00     0.002 A 
ENDROOT
BRANCH   1  11
ATOM     11  C   UNL d   1     -41.726-122.491 -50.259  0.00  0.00     0.105 C 
BRANCH  11  12
ATOM     12  C   UNL d   1     -41.377-123.034 -50.769  0.00  0.00     0.303 C 
ATOM     13  O   UNL d   1     -41.254-123.813 -50.517  0.00  0.00    -0.259 OA
BRANCH  12  14
ATOM     14  O   UNL d   1     -41.153-122.803 -51.526  0.00  0.00    -0.271 OA
BRANCH  14  15
ATOM     15  C   UNL d   1     -41.431-123.233 -52.180  0.00  0.00     0.126 C 
BRANCH  15  16
ATOM     16  C   UNL d   1     -41.123-123.081 -52.926  0.00  0.00     0.027 C 
BRANCH  16  17
ATOM     17  C   UNL d   1     -41.602-122.745 -53.505  0.00  0.00     0.002 C 
BRANCH  17  18
ATOM     18  C   UNL d   1     -41.260-122.340 -54.132  0.00  0.00     0.000 C 
BRANCH  18  19
ATOM     19  C   UNL d   1     -41.525-122.471 -54.903  0.00  0.00     0.000 C 
ATOM     20  C   UNL d   1     -41.285-123.142 -55.304  0.00  0.00     0.000 C 
ENDBRANCH  18  19
ENDBRANCH  17  18
ENDBRANCH  16  17
ENDBRANCH  15  16
ENDBRANCH  14  15
ENDBRANCH  12  14
ENDBRANCH  11  12
BRANCH  11  21
ATOM     21  C   UNL d   1     -41.822-121.694 -50.505  0.00  0.00     0.129 C 
ATOM     22  N   UNL d   1     -41.129-121.044 -50.427  0.00  0.00    -0.146 N 
ENDBRANCH  11  21
ENDBRANCH   1  11
BRANCH   2  23
ATOM     23  N   UNL d   1     -43.343-122.471 -49.877  0.00  0.00    -0.285 N 
ATOM     24  C   UNL d   1     -43.821-123.039 -50.249  0.00  0.00     0.101 A 
ATOM     25  C   UNL d   1     -44.375-122.812 -50.812  0.00  0.00     0.100 A 
ATOM     26  N   UNL d   1     -44.453-122.010 -51.008  0.00  0.00    -0.299 N 
ATOM     27  C   UNL d   1     -43.975-121.442 -50.637  0.00  0.00     0.100 A 
ATOM     28  C   UNL d   1     -45.014-121.771 -51.581  0.00  0.00     0.100 C 
ATOM     29  C   UNL d   1     -43.418-121.675 -50.068  0.00  0.00     0.101 A 
ENDBRANCH   2  23
TORSDOF 10
ENDMDL
MODEL 2
REMARK VINA RESULT:      11.6      1.193      2.167
REMARK  10 active torsions:
REMARK  status: ('A' for Active; 'I' for Inactive)
REMARK    1  A    between atoms: C_5  and  C_1 
REMARK    2  A    between atoms: N_6  and  C_2 
REMARK    3  A    between atoms: C_7  and  C_5 
REMARK    4  A    between atoms: C_8  and  C_5 
REMARK    5  A    between atoms: O_18  and  C_7 
REMARK    6  A    between atoms: C_22  and  O_18 
REMARK    7  A    between atoms: C_23  and  C_22 
REMARK    8  A    between atoms: C_26  and  C_23 
REMARK    9  A    between atoms: C_24  and  C_25 
REMARK   10  A    between atoms: C_25  and  C_26 
ROOT
ATOM      1  C   UNL d   1     -42.366-122.604 -50.413  0.00  0.00     0.122 A 
ATOM      2  C   UNL d   1     -41.888-121.977 -50.162  0.00  0.00     0.166 A 
ATOM      3  N   UNL d   1     -41.609-121.973 -49.386  0.00  0.00    -0.225 NA
ATOM      4  N   UNL d   1     -42.562-123.219 -49.894  0.00  0.00    -0.241 NA
ATOM      5  C   UNL d   1     -41.798-122.578 -48.868  0.00  0.00     0.101 A 
ATOM      6  C   UNL d   1     -42.278-123.206 -49.123  0.00  0.00     0.099 A 
ATOM      7  C   UNL d   1     -42.470-123.814 -48.605  0.00  0.00     0.021 A 
ATOM      8  C   UNL d   1     -41.514-122.569 -48.089  0.00  0.00     0.021 A 
ATOM      9  C   UNL d   1     -41.709-123.184 -47.570  0.00  0.00     0.002 A 
ATOM     10  C   UNL d   1     -42.185-123.805 -47.827  0.00  0.00     0.002 A 
ENDROOT
BRANCH   1  11
ATOM     11  C   UNL d   1     -42.658-122.623 -51.196  0.00  0.00     0.105 C 
BRANCH  11  12
ATOM     12  C   UNL d   1     -42.296-123.089 -51.770  0.00  0.00     0.303 C 
ATOM     13  O   UNL d   1     -41.965-123.817 -51.559  0.00  0.00    -0.259 OA
BRANCH  12  14
ATOM     14  O   UNL d   1     -42.263-122.829 -52.550  0.00  0.00    -0.271 OA
BRANCH  14  15
ATOM     15  C   UNL d   1     -41.815-123.260 -53.101  0.00  0.00     0.126 C 
BRANCH  15  16
ATOM     16  C   UNL d   1     -42.154-123.477 -53.817  0.00  0.00     0.027 C 
BRANCH  16  17
ATOM     17  C   UNL d   1     -41.892-123.127 -54.515  0.00  0.00     0.002 C 
BRANCH  17  18
ATOM     18  C   UNL d   1     -42.438-122.802 -55.036  0.00  0.00     0.000 C 
BRANCH  18  19
ATOM     19  C   UNL d   1     -42.182-122.324 -55.658  0.00  0.00     0.000 C 
ATOM     20  C   UNL d   1     -42.565-121.617 -55.808  0.00  0.00     0.000 C 
ENDBRANCH  18  19
ENDBRANCH  17  18
ENDBRANCH  16  17
ENDBRANCH  15  16
ENDBRANCH  14  15
ENDBRANCH  12  14
ENDBRANCH  11  12
BRANCH  11  21
ATOM     21  C   UNL d   1     -43.329-122.161 -51.400  0.00  0.00     0.129 C 
ATOM     22  N   UNL d   1     -44.204-122.532 -51.476  0.00  0.00    -0.146 N 
ENDBRANCH  11  21
ENDBRANCH   1  11
BRANCH   2  23
ATOM     23  N   UNL d   1     -41.697-121.367 -50.684  0.00  0.00    -0.285 N 
ATOM     24  C   UNL d   1     -41.887-120.584 -50.486  0.00  0.00     0.101 A 
ATOM     25  C   UNL d   1     -41.702-119.968 -50.998  0.00  0.00     0.100 A 
ATOM     26  N   UNL d   1     -41.322-120.135 -51.717  0.00  0.00    -0.299 N 
ATOM     27  C   UNL d   1     -41.132-120.918 -51.915  0.00  0.00     0.100 A 
ATOM     28  C   UNL d   1     -41.130-119.514 -52.243  0.00  0.00     0.100 C 
ATOM     29  C   UNL d   1     -41.321-121.537 -51.395  0.00  0.00     0.101 A 
ENDBRANCH   2  23
TORSDOF 10
ENDMDL
