MODEL 1
REMARK VINA RESULT:      65.8      0.000      0.000
REMARK  5 active torsions:
REMARK  status: ('A' for Active; 'I' for Inactive)
REMARK    1  A    between atoms: C_7  and  C_1 
REMARK    2  A    between atoms: C_10  and  C_6 
REMARK    3  A    between atoms: O_18  and  C_7 
REMARK    4  A    between atoms: N_8  and  C_10 
REMARK    5  A    between atoms: C_23  and  O_18 
ROOT
ATOM      1  C   UNL d   1     -50.537  25.536  33.524  0.00  0.00     0.081 A 
ATOM      2  C   UNL d   1     -51.211  25.062  33.470  0.00  0.00     0.069 A 
ATOM      3  C   UNL d   1     -50.784  26.333  33.466  0.00  0.00     0.027 A 
ATOM      4  N   UNL d   1     -51.868  25.548  33.381  0.00  0.00    -0.304 N 
ATOM      5  C   UNL d   1     -51.605  26.340  33.378  0.00  0.00     0.065 A 
ATOM      6  C   UNL d   1     -50.365  27.032  33.484  0.00  0.00     0.058 A 
ATOM      7  C   UNL d   1     -52.009  27.047  33.307  0.00  0.00     0.021 A 
ATOM      8  C   UNL d   1     -50.766  27.749  33.413  0.00  0.00     0.197 A 
ATOM      9  C   UNL d   1     -51.590  27.756  33.324  0.00  0.00     0.044 A 
ATOM     10  C   UNL d   1     -51.214  24.230  33.503  0.00  0.00     0.019 C 
ATOM     11  C   UNL d   1     -52.653  25.300  33.306  0.00  0.00     0.099 C 
ATOM     12  O   UNL d   1     -50.346  28.465  33.430  0.00  0.00    -0.286 OA
ENDROOT
BRANCH   6  13
ATOM     13  C   UNL d   1     -49.544  27.021  33.572  0.00  0.00     0.083 C 
BRANCH  13  14
ATOM     14  N   UNL d   1     -49.179  27.577  34.063  0.00  0.00    -0.302 N 
ATOM     15  C   UNL d   1     -49.454  27.693  34.827  0.00  0.00     0.080 A 
ATOM     16  C   UNL d   1     -49.086  28.252  35.319  0.00  0.00     0.019 A 
ATOM     17  C   UNL d   1     -48.447  28.689  35.041  0.00  0.00     0.003 A 
ATOM     18  C   UNL d   1     -48.170  28.573  34.272  0.00  0.00     0.019 A 
ATOM     19  C   UNL d   1     -48.084  29.243  35.531  0.00  0.00     0.000 C 
ATOM     20  C   UNL d   1     -48.538  28.014  33.781  0.00  0.00     0.080 A 
ENDBRANCH  13  14
ENDBRANCH   6  13
BRANCH   1  21
ATOM     21  C   UNL d   1     -49.758  25.279  33.618  0.00  0.00     0.302 C 
ATOM     22  O   UNL d   1     -49.133  25.727  33.307  0.00  0.00    -0.259 OA
BRANCH  21  23
ATOM     23  O   UNL d   1     -49.611  24.578  34.021  0.00  0.00    -0.271 OA
BRANCH  23  24
ATOM     24  C   UNL d   1     -49.220  23.956  33.637  0.00  0.00     0.126 C 
ATOM     25  C   UNL d   1     -49.249  23.196  33.949  0.00  0.00     0.029 C 
ENDBRANCH  23  24
ENDBRANCH  21  23
ENDBRANCH   1  21
TORSDOF 5
ENDMDL
