MODEL 1
REMARK VINA RESULT:       5.8      0.000      0.000
REMARK  2 active torsions:
REMARK  status: ('A' for Active; 'I' for Inactive)
REMARK    1  A    between atoms: C_5  and  C_1 
REMARK    2  A    between atoms: N_7  and  C_3 
REMARK       I    between atoms: C_8  and  N_7 
ROOT
ATOM      1  C   UNL d   1      13.883  12.143  -1.947  0.00  0.00     0.231 A 
ATOM      2  O   UNL d   1      14.140  12.107  -2.732  0.00  0.00    -0.252 OA
ATOM      3  C   UNL d   1      13.499  11.881  -3.197  0.00  0.00     0.297 A 
ATOM      4  N   UNL d   1      13.090  11.941  -1.936  0.00  0.00    -0.117 NA
ATOM      5  N   UNL d   1      12.853  11.779  -2.707  0.00  0.00    -0.101 NA
ENDROOT
BRANCH   1   6
ATOM      6  C   UNL d   1      14.352  12.349  -1.297  0.00  0.00     0.168 A 
ATOM      7  O   UNL d   1      14.654  13.110  -1.240  0.00  0.00    -0.297 OA
ATOM      8  C   UNL d   1      15.115  13.312  -0.599  0.00  0.00     0.149 A 
ATOM      9  C   UNL d   1      15.278  12.762  -0.015  0.00  0.00     0.149 A 
ATOM     10  O   UNL d   1      14.981  11.999  -0.062  0.00  0.00    -0.299 OA
ATOM     11  C   UNL d   1      14.517  11.795  -0.705  0.00  0.00     0.151 A 
ENDBRANCH   1   6
BRANCH   3  12
ATOM     12  N   UNL d   1      13.517  11.779  -4.014  0.00  0.00    -0.165 NA
ATOM     13  C   UNL d   1      13.175  12.331  -4.505  0.00  0.00     0.282 C 
ATOM     14  O   UNL d   1      12.803  13.006  -4.190  0.00  0.00    -0.265 OA
ATOM     15  C   UNL d   1      13.194  12.228  -5.325  0.00  0.00     0.068 C 
ENDBRANCH   3  12
TORSDOF 2
ENDMDL
MODEL 2
REMARK VINA RESULT:       8.3      0.898      3.533
REMARK  2 active torsions:
REMARK  status: ('A' for Active; 'I' for Inactive)
REMARK    1  A    between atoms: C_5  and  C_1 
REMARK    2  A    between atoms: N_7  and  C_3 
REMARK       I    between atoms: C_8  and  N_7 
ROOT
ATOM      1  C   UNL d   1      13.632  12.191  -2.569  0.00  0.00     0.231 A 
ATOM      2  O   UNL d   1      14.357  12.412  -2.238  0.00  0.00    -0.252 OA
ATOM      3  C   UNL d   1      14.367  12.155  -1.456  0.00  0.00     0.297 A 
ATOM      4  N   UNL d   1      13.204  11.801  -1.989  0.00  0.00    -0.117 NA
ATOM      5  N   UNL d   1      13.657  11.780  -1.303  0.00  0.00    -0.101 NA
ENDROOT
BRANCH   1   6
ATOM      6  C   UNL d   1      13.392  12.340  -3.346  0.00  0.00     0.168 A 
ATOM      7  O   UNL d   1      13.022  13.051  -3.526  0.00  0.00    -0.297 OA
ATOM      8  C   UNL d   1      12.786  13.198  -4.292  0.00  0.00     0.149 A 
ATOM      9  C   UNL d   1      12.914  12.643  -4.880  0.00  0.00     0.149 A 
ATOM     10  O   UNL d   1      13.282  11.930  -4.711  0.00  0.00    -0.299 OA
ATOM     11  C   UNL d   1      13.520  11.781  -3.942  0.00  0.00     0.151 A 
ENDBRANCH   1   6
BRANCH   3  12
ATOM     12  N   UNL d   1      14.989  12.263  -0.928  0.00  0.00    -0.165 NA
ATOM     13  C   UNL d   1      15.090  12.978  -0.551  0.00  0.00     0.282 C 
ATOM     14  O   UNL d   1      14.566  13.609  -0.693  0.00  0.00    -0.265 OA
ATOM     15  C   UNL d   1      15.715  13.086  -0.021  0.00  0.00     0.068 C 
ENDBRANCH   3  12
TORSDOF 2
ENDMDL
