MODEL 1
REMARK VINA RESULT:     -10.0      0.000      0.000
REMARK  4 active torsions:
REMARK  status: ('A' for Active; 'I' for Inactive)
REMARK    1  A    between atoms: C_6  and  C_1 
REMARK    2  A    between atoms: C_4  and  C_8 
REMARK    3  A    between atoms: O_18  and  C_6 
REMARK    4  A    between atoms: C_19  and  O_18 
ROOT
ATOM      1  C   UNL d   1      52.108  33.609  52.958  0.00  0.00     0.121 A 
ATOM      2  C   UNL d   1      53.236  33.412  53.806  0.00  0.00     0.057 A 
ATOM      3  C   UNL d   1      52.682  33.914  53.456  0.00  0.00     0.204 A 
ATOM      4  C   UNL d   1      53.810  33.726  54.306  0.00  0.00     0.009 A 
ATOM      5  N   UNL d   1      52.635  32.289  53.154  0.00  0.00    -0.244 NA
ATOM      6  C   UNL d   1      54.364  33.228  54.657  0.00  0.00     0.072 A 
ATOM      7  C   UNL d   1      52.081  32.791  52.803  0.00  0.00     0.107 A 
ATOM      8  C   UNL d   1      53.215  32.601  53.658  0.00  0.00     0.085 A 
ATOM      9  C   UNL d   1      54.343  32.417  54.509  0.00  0.00     0.005 A 
ATOM     10  C   UNL d   1      53.769  32.104  54.009  0.00  0.00     0.019 A 
ATOM     11  O   UNL d   1      52.706  34.725  53.607  0.00  0.00    -0.286 OA
ENDROOT
BRANCH   1  12
ATOM     12  C   UNL d   1      51.554  34.107  52.607  0.00  0.00     0.305 C 
ATOM     13  O   UNL d   1      51.744  34.512  51.913  0.00  0.00    -0.259 OA
BRANCH  12  14
ATOM     14  O   UNL d   1      50.804  34.205  52.945  0.00  0.00    -0.271 OA
BRANCH  14  15
ATOM     15  C   UNL d   1      50.181  34.485  52.483  0.00  0.00     0.126 C 
ATOM     16  C   UNL d   1      49.495  34.765  52.851  0.00  0.00     0.029 C 
ENDBRANCH  14  15
ENDBRANCH  12  14
ENDBRANCH   1  12
BRANCH   6  17
ATOM     17  C   UNL d   1      54.938  33.542  55.157  0.00  0.00     0.419 C 
ATOM     18  F   UNL d   1      55.496  34.075  54.864  0.00  0.00    -0.166 F 
ATOM     19  F   UNL d   1      54.956  33.323  55.954  0.00  0.00    -0.166 F 
ATOM     20  F   UNL d   1      54.382  33.010  55.455  0.00  0.00    -0.166 F 
ENDBRANCH   6  17
TORSDOF 4
ENDMDL
MODEL 2
REMARK VINA RESULT:      -9.7      2.465      3.280
REMARK  4 active torsions:
REMARK  status: ('A' for Active; 'I' for Inactive)
REMARK    1  A    between atoms: C_6  and  C_1 
REMARK    2  A    between atoms: C_4  and  C_8 
REMARK    3  A    between atoms: O_18  and  C_6 
REMARK    4  A    between atoms: C_19  and  O_18 
ROOT
ATOM      1  C   UNL d   1      53.441  32.672  53.642  0.00  0.00     0.121 A 
ATOM      2  C   UNL d   1      53.333  31.263  53.823  0.00  0.00     0.057 A 
ATOM      3  C   UNL d   1      53.572  32.003  54.098  0.00  0.00     0.204 A 
ATOM      4  C   UNL d   1      53.468  30.595  54.286  0.00  0.00     0.009 A 
ATOM      5  N   UNL d   1      52.829  31.864  52.626  0.00  0.00    -0.244 NA
ATOM      6  C   UNL d   1      53.231  29.854  54.015  0.00  0.00     0.072 A 
ATOM      7  C   UNL d   1      53.068  32.606  52.901  0.00  0.00     0.107 A 
ATOM      8  C   UNL d   1      52.963  31.189  53.090  0.00  0.00     0.085 A 
ATOM      9  C   UNL d   1      52.861  29.781  53.282  0.00  0.00     0.005 A 
ATOM     10  C   UNL d   1      52.727  30.448  52.820  0.00  0.00     0.019 A 
ATOM     11  O   UNL d   1      53.942  32.073  54.832  0.00  0.00    -0.286 OA
ENDROOT
BRANCH   1  12
ATOM     12  C   UNL d   1      53.677  33.412  53.912  0.00  0.00     0.305 C 
ATOM     13  O   UNL d   1      54.480  33.586  53.992  0.00  0.00    -0.259 OA
BRANCH  12  14
ATOM     14  O   UNL d   1      53.114  33.988  54.106  0.00  0.00    -0.271 OA
BRANCH  14  15
ATOM     15  C   UNL d   1      53.355  34.760  54.266  0.00  0.00     0.126 C 
ATOM     16  C   UNL d   1      52.787  35.349  54.384  0.00  0.00     0.029 C 
ENDBRANCH  14  15
ENDBRANCH  12  14
ENDBRANCH   1  12
BRANCH   6  17
ATOM     17  C   UNL d   1      53.366  29.186  54.479  0.00  0.00     0.419 C 
ATOM     18  F   UNL d   1      52.977  29.099  55.201  0.00  0.00    -0.166 F 
ATOM     19  F   UNL d   1      53.891  28.603  54.220  0.00  0.00    -0.166 F 
ATOM     20  F   UNL d   1      53.757  29.270  53.757  0.00  0.00    -0.166 F 
ENDBRANCH   6  17
TORSDOF 4
ENDMDL
MODEL 3
REMARK VINA RESULT:      -9.7      2.659      3.893
REMARK  4 active torsions:
REMARK  status: ('A' for Active; 'I' for Inactive)
REMARK    1  A    between atoms: C_6  and  C_1 
REMARK    2  A    between atoms: C_4  and  C_8 
REMARK    3  A    between atoms: O_18  and  C_6 
REMARK    4  A    between atoms: C_19  and  O_18 
ROOT
ATOM      1  C   UNL d   1      53.318  31.502  53.457  0.00  0.00     0.121 A 
ATOM      2  C   UNL d   1      52.665  32.725  53.126  0.00  0.00     0.057 A 
ATOM      3  C   UNL d   1      52.707  31.902  53.084  0.00  0.00     0.204 A 
ATOM      4  C   UNL d   1      52.049  33.120  52.748  0.00  0.00     0.009 A 
ATOM      5  N   UNL d   1      53.855  32.749  53.920  0.00  0.00    -0.244 NA
ATOM      6  C   UNL d   1      52.004  33.941  52.787  0.00  0.00     0.072 A 
ATOM      7  C   UNL d   1      53.898  31.925  53.879  0.00  0.00     0.107 A 
ATOM      8  C   UNL d   1      53.236  33.151  53.542  0.00  0.00     0.085 A 
ATOM      9  C   UNL d   1      52.575  34.367  53.204  0.00  0.00     0.005 A 
ATOM     10  C   UNL d   1      53.190  33.972  53.580  0.00  0.00     0.019 A 
ATOM     11  O   UNL d   1      52.135  31.479  52.667  0.00  0.00    -0.286 OA
ENDROOT
BRANCH   1  12
ATOM     12  C   UNL d   1      53.363  30.682  53.418  0.00  0.00     0.305 C 
ATOM     13  O   UNL d   1      53.466  30.308  52.690  0.00  0.00    -0.259 OA
BRANCH  12  14
ATOM     14  O   UNL d   1      53.306  30.225  54.107  0.00  0.00    -0.271 OA
BRANCH  14  15
ATOM     15  C   UNL d   1      53.363  29.403  54.060  0.00  0.00     0.126 C 
ATOM     16  C   UNL d   1      53.319  28.951  54.750  0.00  0.00     0.029 C 
ENDBRANCH  14  15
ENDBRANCH  12  14
ENDBRANCH   1  12
BRANCH   6  17
ATOM     17  C   UNL d   1      51.388  34.336  52.410  0.00  0.00     0.419 C 
ATOM     18  F   UNL d   1      51.336  34.331  51.587  0.00  0.00    -0.166 F 
ATOM     19  F   UNL d   1      50.820  34.738  52.857  0.00  0.00    -0.166 F 
ATOM     20  F   UNL d   1      51.436  34.344  53.234  0.00  0.00    -0.166 F 
ENDBRANCH   6  17
TORSDOF 4
ENDMDL
MODEL 4
REMARK VINA RESULT:      -9.2      1.935      2.699
REMARK  4 active torsions:
REMARK  status: ('A' for Active; 'I' for Inactive)
REMARK    1  A    between atoms: C_6  and  C_1 
REMARK    2  A    between atoms: C_4  and  C_8 
REMARK    3  A    between atoms: O_18  and  C_6 
REMARK    4  A    between atoms: C_19  and  O_18 
ROOT
ATOM      1  C   UNL d   1      52.958  31.878  53.316  0.00  0.00     0.121 A 
ATOM      2  C   UNL d   1      53.757  32.780  54.077  0.00  0.00     0.057 A 
ATOM      3  C   UNL d   1      53.662  32.053  53.699  0.00  0.00     0.204 A 
ATOM      4  C   UNL d   1      54.467  32.949  54.459  0.00  0.00     0.009 A 
ATOM      5  N   UNL d   1      52.434  33.162  53.686  0.00  0.00    -0.244 NA
ATOM      6  C   UNL d   1      54.566  33.674  54.838  0.00  0.00     0.072 A 
ATOM      7  C   UNL d   1      52.338  32.434  53.308  0.00  0.00     0.107 A 
ATOM      8  C   UNL d   1      53.147  33.336  54.073  0.00  0.00     0.085 A 
ATOM      9  C   UNL d   1      53.956  34.229  54.834  0.00  0.00     0.005 A 
ATOM     10  C   UNL d   1      53.247  34.060  54.452  0.00  0.00     0.019 A 
ATOM     11  O   UNL d   1      54.274  31.500  53.705  0.00  0.00    -0.286 OA
ENDROOT
BRANCH   1  12
ATOM     12  C   UNL d   1      52.859  31.155  52.938  0.00  0.00     0.305 C 
ATOM     13  O   UNL d   1      52.952  31.100  52.120  0.00  0.00    -0.259 OA
BRANCH  12  14
ATOM     14  O   UNL d   1      52.665  30.477  53.373  0.00  0.00    -0.271 OA
BRANCH  14  15
ATOM     15  C   UNL d   1      52.549  29.759  52.983  0.00  0.00     0.126 C 
ATOM     16  C   UNL d   1      52.469  29.064  53.424  0.00  0.00     0.029 C 
ENDBRANCH  14  15
ENDBRANCH  12  14
ENDBRANCH   1  12
BRANCH   6  17
ATOM     17  C   UNL d   1      55.276  33.843  55.220  0.00  0.00     0.419 C 
ATOM     18  F   UNL d   1      55.939  34.065  54.783  0.00  0.00    -0.166 F 
ATOM     19  F   UNL d   1      55.324  33.789  56.044  0.00  0.00    -0.166 F 
ATOM     20  F   UNL d   1      54.615  33.620  55.661  0.00  0.00    -0.166 F 
ENDBRANCH   6  17
TORSDOF 4
ENDMDL
MODEL 5
REMARK VINA RESULT:      -9.0      1.522      2.105
REMARK  4 active torsions:
REMARK  status: ('A' for Active; 'I' for Inactive)
REMARK    1  A    between atoms: C_6  and  C_1 
REMARK    2  A    between atoms: C_4  and  C_8 
REMARK    3  A    between atoms: O_18  and  C_6 
REMARK    4  A    between atoms: C_19  and  O_18 
ROOT
ATOM      1  C   UNL d   1      52.028  33.721  52.972  0.00  0.00     0.121 A 
ATOM      2  C   UNL d   1      52.778  32.563  53.327  0.00  0.00     0.057 A 
ATOM      3  C   UNL d   1      52.176  32.919  52.890  0.00  0.00     0.204 A 
ATOM      4  C   UNL d   1      52.921  31.757  53.240  0.00  0.00     0.009 A 
ATOM      5  N   UNL d   1      53.088  33.822  53.933  0.00  0.00    -0.244 NA
ATOM      6  C   UNL d   1      53.522  31.398  53.675  0.00  0.00     0.072 A 
ATOM      7  C   UNL d   1      52.485  34.179  53.496  0.00  0.00     0.107 A 
ATOM      8  C   UNL d   1      53.236  33.010  53.849  0.00  0.00     0.085 A 
ATOM      9  C   UNL d   1      53.979  31.845  54.196  0.00  0.00     0.005 A 
ATOM     10  C   UNL d   1      53.836  32.651  54.283  0.00  0.00     0.019 A 
ATOM     11  O   UNL d   1      51.721  32.469  52.370  0.00  0.00    -0.286 OA
ENDROOT
BRANCH   1  12
ATOM     12  C   UNL d   1      51.428  34.080  52.538  0.00  0.00     0.305 C 
ATOM     13  O   UNL d   1      51.551  34.274  51.745  0.00  0.00    -0.259 OA
BRANCH  12  14
ATOM     14  O   UNL d   1      50.698  34.250  52.891  0.00  0.00    -0.271 OA
BRANCH  14  15
ATOM     15  C   UNL d   1      50.109  34.627  52.454  0.00  0.00     0.126 C 
ATOM     16  C   UNL d   1      49.420  34.882  52.833  0.00  0.00     0.029 C 
ENDBRANCH  14  15
ENDBRANCH  12  14
ENDBRANCH   1  12
BRANCH   6  17
ATOM     17  C   UNL d   1      53.665  30.591  53.588  0.00  0.00     0.419 C 
ATOM     18  F   UNL d   1      53.096  30.043  53.824  0.00  0.00    -0.166 F 
ATOM     19  F   UNL d   1      54.379  30.332  53.263  0.00  0.00    -0.166 F 
ATOM     20  F   UNL d   1      54.236  31.137  53.350  0.00  0.00    -0.166 F 
ENDBRANCH   6  17
TORSDOF 4
ENDMDL
MODEL 6
REMARK VINA RESULT:      -7.4      2.370      3.908
REMARK  4 active torsions:
REMARK  status: ('A' for Active; 'I' for Inactive)
REMARK    1  A    between atoms: C_6  and  C_1 
REMARK    2  A    between atoms: C_4  and  C_8 
REMARK    3  A    between atoms: O_18  and  C_6 
REMARK    4  A    between atoms: C_19  and  O_18 
ROOT
ATOM      1  C   UNL d   1      53.312  33.142  53.596  0.00  0.00     0.121 A 
ATOM      2  C   UNL d   1      52.009  33.581  53.220  0.00  0.00     0.057 A 
ATOM      3  C   UNL d   1      52.793  33.750  53.412  0.00  0.00     0.204 A 
ATOM      4  C   UNL d   1      51.494  34.197  53.036  0.00  0.00     0.009 A 
ATOM      5  N   UNL d   1      52.264  32.183  53.396  0.00  0.00    -0.244 NA
ATOM      6  C   UNL d   1      50.711  34.031  52.843  0.00  0.00     0.072 A 
ATOM      7  C   UNL d   1      53.049  32.352  53.589  0.00  0.00     0.107 A 
ATOM      8  C   UNL d   1      51.741  32.800  53.210  0.00  0.00     0.085 A 
ATOM      9  C   UNL d   1      50.443  33.251  52.834  0.00  0.00     0.005 A 
ATOM     10  C   UNL d   1      50.958  32.636  53.017  0.00  0.00     0.019 A 
ATOM     11  O   UNL d   1      53.058  34.531  53.421  0.00  0.00    -0.286 OA
ENDROOT
BRANCH   1  12
ATOM     12  C   UNL d   1      54.095  33.307  53.789  0.00  0.00     0.305 C 
ATOM     13  O   UNL d   1      54.684  33.240  53.216  0.00  0.00    -0.259 OA
BRANCH  12  14
ATOM     14  O   UNL d   1      54.297  33.540  54.557  0.00  0.00    -0.271 OA
BRANCH  14  15
ATOM     15  C   UNL d   1      55.086  33.513  54.799  0.00  0.00     0.126 C 
ATOM     16  C   UNL d   1      55.295  33.815  55.540  0.00  0.00     0.029 C 
ENDBRANCH  14  15
ENDBRANCH  12  14
ENDBRANCH   1  12
BRANCH   6  17
ATOM     17  C   UNL d   1      50.195  34.647  52.660  0.00  0.00     0.419 C 
ATOM     18  F   UNL d   1      49.978  35.192  53.240  0.00  0.00    -0.166 F 
ATOM     19  F   UNL d   1      49.895  34.719  51.893  0.00  0.00    -0.166 F 
ATOM     20  F   UNL d   1      50.410  34.104  52.077  0.00  0.00    -0.166 F 
ENDBRANCH   6  17
TORSDOF 4
ENDMDL
