MODEL 1
REMARK VINA RESULT:      -5.4      0.000      0.000
REMARK  4 active torsions:
REMARK  status: ('A' for Active; 'I' for Inactive)
REMARK    1  A    between atoms: C_8  and  C_1 
REMARK    2  A    between atoms: S_4  and  N_7 
REMARK    3  A    between atoms: C_14  and  S_4 
REMARK    4  A    between atoms: N_7  and  C_13 
ROOT
ATOM      1  C   UNL d   1      57.823  -0.055  30.806  0.00  0.00     0.025 A 
ATOM      2  C   UNL d   1      57.872  -0.606  30.203  0.00  0.00     0.022 A 
ATOM      3  C   UNL d   1      58.434  -0.528  29.610  0.00  0.00     0.094 A 
ATOM      4  C   UNL d   1      58.340   0.593  30.832  0.00  0.00     0.002 A 
ATOM      5  C   UNL d   1      58.905   0.681  30.246  0.00  0.00     0.002 A 
ATOM      6  C   UNL d   1      58.951   0.114  29.629  0.00  0.00     0.020 A 
ENDROOT
BRANCH   1   7
ATOM      7  C   UNL d   1      57.254  -0.138  31.403  0.00  0.00     0.112 A 
ATOM      8  S   UNL d   1      56.875   0.486  31.807  0.00  0.00    -0.047 SA
ATOM      9  C   UNL d   1      56.343   0.165  32.362  0.00  0.00     0.130 A 
ATOM     10  N   UNL d   1      55.828   0.496  32.905  0.00  0.00    -0.236 NA
ATOM     11  C   UNL d   1      56.397  -0.669  32.297  0.00  0.00     0.106 A 
ATOM     12  C   UNL d   1      55.366   0.018  33.386  0.00  0.00     0.100 A 
ATOM     13  C   UNL d   1      55.414  -0.803  33.327  0.00  0.00     0.022 A 
ATOM     14  C   UNL d   1      55.927  -1.148  32.786  0.00  0.00     0.023 A 
ATOM     15  N   UNL d   1      56.955  -0.855  31.710  0.00  0.00    -0.237 NA
ENDBRANCH   1   7
BRANCH   3  16
ATOM     16  N   UNL d   1      58.486  -1.078  29.005  0.00  0.00    -0.158 NA
BRANCH  16  17
ATOM     17  S   UNL d   1      59.085  -1.645  29.011  0.00  0.00     0.286 S 
ATOM     18  O   UNL d   1      59.600  -1.107  28.649  0.00  0.00    -0.198 OA
ATOM     19  O   UNL d   1      58.573  -2.181  29.372  0.00  0.00    -0.198 OA
BRANCH  17  20
ATOM     20  C   UNL d   1      59.676  -2.213  29.021  0.00  0.00     0.117 C 
ATOM     21  C   UNL d   1      59.538  -2.962  28.699  0.00  0.00     0.014 C 
ENDBRANCH  17  20
ENDBRANCH  16  17
ENDBRANCH   3  16
TORSDOF 4
ENDMDL
MODEL 2
REMARK VINA RESULT:      -5.2      2.456      4.833
REMARK  4 active torsions:
REMARK  status: ('A' for Active; 'I' for Inactive)
REMARK    1  A    between atoms: C_8  and  C_1 
REMARK    2  A    between atoms: S_4  and  N_7 
REMARK    3  A    between atoms: C_14  and  S_4 
REMARK    4  A    between atoms: N_7  and  C_13 
ROOT
ATOM      1  C   UNL d   1      57.001  -0.265  31.676  0.00  0.00     0.025 A 
ATOM      2  C   UNL d   1      56.585   0.309  32.086  0.00  0.00     0.022 A 
ATOM      3  C   UNL d   1      56.046   0.099  32.668  0.00  0.00     0.094 A 
ATOM      4  C   UNL d   1      56.886  -1.070  31.838  0.00  0.00     0.002 A 
ATOM      5  C   UNL d   1      56.350  -1.292  32.416  0.00  0.00     0.002 A 
ATOM      6  C   UNL d   1      55.927  -0.700  32.835  0.00  0.00     0.020 A 
ENDROOT
BRANCH   1   7
ATOM      7  C   UNL d   1      57.545  -0.048  31.089  0.00  0.00     0.112 A 
ATOM      8  S   UNL d   1      58.357   0.099  31.206  0.00  0.00    -0.047 SA
ATOM      9  C   UNL d   1      58.704   0.301  30.476  0.00  0.00     0.130 A 
ATOM     10  N   UNL d   1      59.465   0.498  30.249  0.00  0.00    -0.236 NA
ATOM     11  C   UNL d   1      58.094   0.276  29.901  0.00  0.00     0.106 A 
ATOM     12  C   UNL d   1      59.634   0.673  29.465  0.00  0.00     0.100 A 
ATOM     13  C   UNL d   1      59.038   0.651  28.895  0.00  0.00     0.022 A 
ATOM     14  C   UNL d   1      58.270   0.454  29.110  0.00  0.00     0.023 A 
ATOM     15  N   UNL d   1      57.383   0.063  30.277  0.00  0.00    -0.237 NA
ENDBRANCH   1   7
BRANCH   3  16
ATOM     16  N   UNL d   1      55.629   0.670  33.080  0.00  0.00    -0.158 NA
BRANCH  16  17
ATOM     17  S   UNL d   1      55.405   0.535  33.862  0.00  0.00     0.286 S 
ATOM     18  O   UNL d   1      56.189   0.647  34.108  0.00  0.00    -0.198 OA
ATOM     19  O   UNL d   1      54.625   0.422  33.620  0.00  0.00    -0.198 OA
BRANCH  17  20
ATOM     20  C   UNL d   1      55.177   0.399  34.639  0.00  0.00     0.117 C 
ATOM     21  C   UNL d   1      54.449   0.681  34.913  0.00  0.00     0.014 C 
ENDBRANCH  17  20
ENDBRANCH  16  17
ENDBRANCH   3  16
TORSDOF 4
ENDMDL
MODEL 3
REMARK VINA RESULT:      -4.2      1.543      4.391
REMARK  4 active torsions:
REMARK  status: ('A' for Active; 'I' for Inactive)
REMARK    1  A    between atoms: C_8  and  C_1 
REMARK    2  A    between atoms: S_4  and  N_7 
REMARK    3  A    between atoms: C_14  and  S_4 
REMARK    4  A    between atoms: N_7  and  C_13 
ROOT
ATOM      1  C   UNL d   1      58.048  -0.588  30.193  0.00  0.00     0.025 A 
ATOM      2  C   UNL d   1      57.868  -0.675  30.987  0.00  0.00     0.022 A 
ATOM      3  C   UNL d   1      57.455  -0.089  31.388  0.00  0.00     0.094 A 
ATOM      4  C   UNL d   1      57.819   0.091  29.777  0.00  0.00     0.002 A 
ATOM      5  C   UNL d   1      57.407   0.682  30.166  0.00  0.00     0.002 A 
ATOM      6  C   UNL d   1      57.224   0.590  30.980  0.00  0.00     0.020 A 
ENDROOT
BRANCH   1   7
ATOM      7  C   UNL d   1      58.465  -1.182  29.792  0.00  0.00     0.112 A 
ATOM      8  S   UNL d   1      59.254  -1.132  29.528  0.00  0.00    -0.047 SA
ATOM      9  C   UNL d   1      59.460  -1.847  29.152  0.00  0.00     0.130 A 
ATOM     10  N   UNL d   1      60.143  -2.117  28.791  0.00  0.00    -0.236 NA
ATOM     11  C   UNL d   1      58.786  -2.344  29.188  0.00  0.00     0.106 A 
ATOM     12  C   UNL d   1      60.171  -2.870  28.465  0.00  0.00     0.100 A 
ATOM     13  C   UNL d   1      59.511  -3.364  28.496  0.00  0.00     0.022 A 
ATOM     14  C   UNL d   1      58.820  -3.104  28.856  0.00  0.00     0.023 A 
ATOM     15  N   UNL d   1      58.176  -1.937  29.580  0.00  0.00    -0.237 NA
ENDBRANCH   1   7
BRANCH   3  16
ATOM     16  N   UNL d   1      57.272  -0.172  32.182  0.00  0.00    -0.158 NA
BRANCH  16  17
ATOM     17  S   UNL d   1      56.517  -0.412  32.409  0.00  0.00     0.286 S 
ATOM     18  O   UNL d   1      56.751  -1.205  32.358  0.00  0.00    -0.198 OA
ATOM     19  O   UNL d   1      56.281   0.377  32.460  0.00  0.00    -0.198 OA
BRANCH  17  20
ATOM     20  C   UNL d   1      55.763  -0.645  32.636  0.00  0.00     0.117 C 
ATOM     21  C   UNL d   1      55.545  -0.629  33.433  0.00  0.00     0.014 C 
ENDBRANCH  17  20
ENDBRANCH  16  17
ENDBRANCH   3  16
TORSDOF 4
ENDMDL
MODEL 4
REMARK VINA RESULT:      -3.1      8.915      9.761
REMARK  4 active torsions:
REMARK  status: ('A' for Active; 'I' for Inactive)
REMARK    1  A    between atoms: C_8  and  C_1 
REMARK    2  A    between atoms: S_4  and  N_7 
REMARK    3  A    between atoms: C_14  and  S_4 
REMARK    4  A    between atoms: N_7  and  C_13 
ROOT
ATOM      1  C   UNL d   1      59.746  -9.467  33.121  0.00  0.00     0.025 A 
ATOM      2  C   UNL d   1      59.557  -9.270  33.893  0.00  0.00     0.022 A 
ATOM      3  C   UNL d   1      60.146  -9.193  34.460  0.00  0.00     0.094 A 
ATOM      4  C   UNL d   1      60.534  -9.593  32.895  0.00  0.00     0.002 A 
ATOM      5  C   UNL d   1      61.129  -9.519  33.452  0.00  0.00     0.002 A 
ATOM      6  C   UNL d   1      60.932  -9.317  34.242  0.00  0.00     0.020 A 
ENDROOT
BRANCH   1   7
ATOM      7  C   UNL d   1      59.148  -9.544  32.552  0.00  0.00     0.112 A 
ATOM      8  S   UNL d   1      59.259  -9.553  31.725  0.00  0.00    -0.047 SA
ATOM      9  C   UNL d   1      58.518  -9.640  31.354  0.00  0.00     0.130 A 
ATOM     10  N   UNL d   1      58.282  -9.684  30.571  0.00  0.00    -0.236 NA
ATOM     11  C   UNL d   1      57.944  -9.686  31.963  0.00  0.00     0.106 A 
ATOM     12  C   UNL d   1      57.489  -9.772  30.380  0.00  0.00     0.100 A 
ATOM     13  C   UNL d   1      56.919  -9.818  30.975  0.00  0.00     0.022 A 
ATOM     14  C   UNL d   1      57.143  -9.775  31.764  0.00  0.00     0.023 A 
ATOM     15  N   UNL d   1      58.330  -9.627  32.697  0.00  0.00    -0.237 NA
ENDBRANCH   1   7
BRANCH   3  16
ATOM     16  N   UNL d   1      59.961  -8.996  35.233  0.00  0.00    -0.158 NA
BRANCH  16  17
ATOM     17  S   UNL d   1      59.969  -8.206  35.471  0.00  0.00     0.286 S 
ATOM     18  O   UNL d   1      60.792  -8.237  35.557  0.00  0.00    -0.198 OA
ATOM     19  O   UNL d   1      59.149  -8.172  35.386  0.00  0.00    -0.198 OA
BRANCH  17  20
ATOM     20  C   UNL d   1      59.970  -7.420  35.707  0.00  0.00     0.117 C 
ATOM     21  C   UNL d   1      59.400  -7.145  36.240  0.00  0.00     0.014 C 
ENDBRANCH  17  20
ENDBRANCH  16  17
ENDBRANCH   3  16
TORSDOF 4
ENDMDL
