MODEL 1
REMARK VINA RESULT:       9.5      0.000      0.000
REMARK  1 active torsions:
REMARK  status: ('A' for Active; 'I' for Inactive)
REMARK    1  A    between atoms: C_7  and  C_1 
ROOT
ATOM      1  C   UNL d   1      14.223  12.220  -1.409  0.00  0.00     0.102 A 
ATOM      2  C   UNL d   1      14.620  12.895  -1.676  0.00  0.00     0.303 A 
ATOM      3  C   UNL d   1      13.670  11.852  -1.904  0.00  0.00     0.011 A 
ATOM      4  O   UNL d   1      14.464  13.202  -2.438  0.00  0.00    -0.273 OA
ATOM      5  C   UNL d   1      13.513  12.147  -2.649  0.00  0.00     0.023 A 
ATOM      6  C   UNL d   1      13.910  12.821  -2.917  0.00  0.00     0.103 A 
ATOM      7  O   UNL d   1      15.186  13.276  -1.177  0.00  0.00    -0.259 OA
ATOM      8  C   UNL d   1      12.966  11.779  -3.133  0.00  0.00     0.002 A 
ATOM      9  C   UNL d   1      13.761  13.129  -3.667  0.00  0.00     0.025 A 
ATOM     10  C   UNL d   1      12.812  12.074  -3.874  0.00  0.00     0.000 A 
ATOM     11  C   UNL d   1      13.209  12.749  -4.141  0.00  0.00     0.002 A 
ENDROOT
BRANCH   1  12
ATOM     12  C   UNL d   1      14.392  11.926  -0.643  0.00  0.00     0.201 C 
ATOM     13  O   UNL d   1      15.179  11.783  -0.433  0.00  0.00    -0.286 OA
ATOM     14  C   UNL d   1      13.795  11.780  -0.103  0.00  0.00     0.045 C 
ENDBRANCH   1  12
TORSDOF 1
ENDMDL
