MODEL 1
REMARK VINA RESULT:      12.6      0.000      0.000
REMARK  4 active torsions:
REMARK  status: ('A' for Active; 'I' for Inactive)
REMARK       I    between atoms: N_3  and  C_1 
REMARK       I    between atoms: N_7  and  C_1 
REMARK    1  A    between atoms: C_2  and  N_3 
REMARK    2  A    between atoms: C_4  and  C_5 
REMARK    3  A    between atoms: O_13  and  C_4 
REMARK    4  A    between atoms: C_15  and  N_7 
ROOT
ATOM      1  C   UNL d   1      46.587 -18.593  43.934  0.00  0.00     0.097 A 
ATOM      2  C   UNL d   1      46.608 -18.972  42.558  0.00  0.00     0.065 A 
ATOM      3  C   UNL d   1      46.611 -18.384  43.137  0.00  0.00     0.025 A 
ATOM      4  C   UNL d   1      46.561 -19.389  44.153  0.00  0.00     0.075 A 
ATOM      5  C   UNL d   1      46.582 -19.776  42.780  0.00  0.00     0.006 A 
ATOM      6  C   UNL d   1      46.558 -19.976  43.576  0.00  0.00     0.013 A 
ATOM      7 CL   UNL d   1      46.538 -19.596  44.955  0.00  0.00    -0.081 Cl
ENDROOT
BRANCH   1   8
ATOM      8  N   UNL d   1      46.590 -18.005  44.512  0.00  0.00    -0.190 NA
ATOM      9  C   UNL d   1      46.213 -17.286  44.369  0.00  0.00     0.369 C 
ATOM     10  N   UNL d   1      46.218 -16.699  44.951  0.00  0.00    -0.191 NA
ATOM     11  O   UNL d   1      45.834 -17.154  43.647  0.00  0.00    -0.242 OA
BRANCH  10  12
ATOM     12  C   UNL d   1      45.841 -15.976  44.808  0.00  0.00     0.086 A 
ATOM     13  C   UNL d   1      45.027 -15.905  44.953  0.00  0.00     0.019 A 
ATOM     14  C   UNL d   1      44.661 -15.180  44.807  0.00  0.00     0.002 A 
ATOM     15  C   UNL d   1      45.095 -14.537  44.523  0.00  0.00     0.000 A 
ATOM     16  C   UNL d   1      45.895 -14.619  44.385  0.00  0.00     0.002 A 
ATOM     17  C   UNL d   1      46.275 -15.333  44.525  0.00  0.00     0.019 A 
ENDBRANCH  10  12
ENDBRANCH   1   8
BRANCH   2  18
ATOM     18  C   UNL d   1      46.632 -18.766  41.753  0.00  0.00     0.296 C 
ATOM     19  O   UNL d   1      46.640 -17.970  41.533  0.00  0.00    -0.259 OA
BRANCH  18  20
ATOM     20  O   UNL d   1      46.647 -19.354  41.176  0.00  0.00    -0.296 OA
ATOM     21  C   UNL d   1      46.599 -19.151  40.377  0.00  0.00     0.185 C 
ENDBRANCH  18  20
ENDBRANCH   2  18
TORSDOF 4
ENDMDL
MODEL 2
REMARK VINA RESULT:      15.5      1.727      4.558
REMARK  4 active torsions:
REMARK  status: ('A' for Active; 'I' for Inactive)
REMARK       I    between atoms: N_3  and  C_1 
REMARK       I    between atoms: N_7  and  C_1 
REMARK    1  A    between atoms: C_2  and  N_3 
REMARK    2  A    between atoms: C_4  and  C_5 
REMARK    3  A    between atoms: O_13  and  C_4 
REMARK    4  A    between atoms: C_15  and  N_7 
ROOT
ATOM      1  C   UNL d   1      45.635 -15.554  44.650  0.00  0.00     0.097 A 
ATOM      2  C   UNL d   1      45.535 -14.153  44.399  0.00  0.00     0.065 A 
ATOM      3  C   UNL d   1      45.994 -14.836  44.465  0.00  0.00     0.025 A 
ATOM      4  C   UNL d   1      44.819 -15.591  44.769  0.00  0.00     0.075 A 
ATOM      5  C   UNL d   1      44.711 -14.190  44.520  0.00  0.00     0.006 A 
ATOM      6  C   UNL d   1      44.361 -14.909  44.704  0.00  0.00     0.013 A 
ATOM      7 CL   UNL d   1      44.461 -16.314  44.955  0.00  0.00    -0.081 Cl
ENDROOT
BRANCH   1   8
ATOM      8  N   UNL d   1      46.093 -16.237  44.715  0.00  0.00    -0.190 NA
ATOM      9  C   UNL d   1      46.047 -16.820  44.135  0.00  0.00     0.369 C 
ATOM     10  N   UNL d   1      46.508 -17.503  44.203  0.00  0.00    -0.191 NA
ATOM     11  O   UNL d   1      45.543 -16.720  43.488  0.00  0.00    -0.242 OA
BRANCH  10  12
ATOM     12  C   UNL d   1      46.462 -18.089  43.621  0.00  0.00     0.086 A 
ATOM     13  C   UNL d   1      46.272 -18.866  43.839  0.00  0.00     0.019 A 
ATOM     14  C   UNL d   1      46.230 -19.443  43.250  0.00  0.00     0.002 A 
ATOM     15  C   UNL d   1      46.374 -19.251  42.459  0.00  0.00     0.000 A 
ATOM     16  C   UNL d   1      46.561 -18.483  42.258  0.00  0.00     0.002 A 
ATOM     17  C   UNL d   1      46.607 -17.897  42.831  0.00  0.00     0.019 A 
ENDBRANCH  10  12
ENDBRANCH   1   8
BRANCH   2  18
ATOM     18  C   UNL d   1      45.893 -13.426  44.213  0.00  0.00     0.296 C 
ATOM     19  O   UNL d   1      46.586 -13.198  44.601  0.00  0.00    -0.259 OA
BRANCH  18  20
ATOM     20  O   UNL d   1      45.558 -12.934  43.643  0.00  0.00    -0.296 OA
ATOM     21  C   UNL d   1      45.681 -12.117  43.677  0.00  0.00     0.185 C 
ENDBRANCH  18  20
ENDBRANCH   2  18
TORSDOF 4
ENDMDL
