MODEL 1
REMARK VINA RESULT:      74.2      0.000      0.000
REMARK  4 active torsions:
REMARK  status: ('A' for Active; 'I' for Inactive)
REMARK    1  A    between atoms: C_4  and  C_1 
REMARK    2  A    between atoms: C_12  and  N_2 
REMARK    3  A    between atoms: C_11  and  N_5 
REMARK    4  A    between atoms: C_14  and  C_12 
ROOT
ATOM      1  C   UNL d   1     -54.906-101.259 -43.395  0.00  0.00     0.149 A 
ATOM      2  N   UNL d   1     -55.133-100.623 -43.893  0.00  0.00    -0.289 N 
ATOM      3  N   UNL d   1     -54.714-101.905 -43.875  0.00  0.00    -0.227 NA
ATOM      4  C   UNL d   1     -55.078-100.890 -44.679  0.00  0.00     0.083 A 
ATOM      5  C   UNL d   1     -54.821-101.677 -44.673  0.00  0.00     0.099 A 
ATOM      6  C   UNL d   1     -55.231-100.510 -45.405  0.00  0.00     0.019 A 
ATOM      7  C   UNL d   1     -54.715-102.088 -45.378  0.00  0.00     0.021 A 
ATOM      8  C   UNL d   1     -55.123-100.929 -46.112  0.00  0.00     0.002 A 
ATOM      9  C   UNL d   1     -54.866-101.716 -46.099  0.00  0.00     0.002 A 
ENDROOT
BRANCH   1  10
ATOM     10  C   UNL d   1     -54.880-101.236 -42.572  0.00  0.00     0.057 A 
ATOM     11  C   UNL d   1     -54.908-101.883 -42.067  0.00  0.00     0.081 A 
ATOM     12  N   UNL d   1     -54.866-101.601 -41.288  0.00  0.00    -0.298 N 
ATOM     13  C   UNL d   1     -54.811-100.779 -41.316  0.00  0.00     0.261 A 
ATOM     14  C   UNL d   1     -54.820-100.551 -42.110  0.00  0.00     0.065 A 
ATOM     15  O   UNL d   1     -54.758-100.275 -40.670  0.00  0.00    -0.267 OA
BRANCH  12  16
ATOM     16  C   UNL d   1     -54.877-102.063 -40.604  0.00  0.00     0.071 C 
ATOM     17  C   UNL d   1     -54.918-102.408 -39.864  0.00  0.00     0.023 C 
ATOM     18  C   UNL d   1     -55.047-101.718 -39.880  0.00  0.00     0.023 C 
ATOM     19  C   UNL d   1     -54.716-102.870 -40.657  0.00  0.00     0.023 C 
ENDBRANCH  12  16
ENDBRANCH   1  10
BRANCH   2  20
ATOM     20  C   UNL d   1     -55.367 -99.877 -43.647  0.00  0.00     0.082 C 
BRANCH  20  21
ATOM     21  C   UNL d   1     -56.009 -99.501 -44.012  0.00  0.00     0.018 A 
ATOM     22  C   UNL d   1     -56.745 -99.496 -43.638  0.00  0.00     0.002 A 
ATOM     23  C   UNL d   1     -57.385 -99.125 -43.996  0.00  0.00     0.000 A 
ATOM     24  C   UNL d   1     -57.290 -98.759 -44.727  0.00  0.00     0.000 A 
ATOM     25  C   UNL d   1     -56.550 -98.767 -45.098  0.00  0.00     0.000 A 
ATOM     26  C   UNL d   1     -55.918 -99.137 -44.739  0.00  0.00     0.002 A 
ENDBRANCH  20  21
ENDBRANCH   2  20
TORSDOF 4
ENDMDL
