MODEL 1
REMARK VINA RESULT:      -7.0      0.000      0.000
REMARK  4 active torsions:
REMARK  status: ('A' for Active; 'I' for Inactive)
REMARK    1  A    between atoms: C_10  and  C_4 
REMARK       I    between atoms: N_11  and  C_10 
REMARK    2  A    between atoms: C_12  and  C_19 
REMARK    3  A    between atoms: O_26  and  C_12 
REMARK    4  A    between atoms: C_27  and  O_26 
ROOT
ATOM      1  C   UNL d   1     -47.879  13.038  22.894  0.00  0.00     0.154 A 
ATOM      2  C   UNL d   1     -47.441  13.734  22.931  0.00  0.00     0.093 A 
ATOM      3  N   UNL d   1     -48.706  13.074  22.801  0.00  0.00    -0.211 NA
ATOM      4  C   UNL d   1     -46.595  12.706  23.044  0.00  0.00     0.122 A 
ATOM      5  N   UNL d   1     -47.359  12.405  22.964  0.00  0.00    -0.285 N 
ATOM      6  C   UNL d   1     -47.818  14.469  22.875  0.00  0.00     0.269 A 
ATOM      7  N   UNL d   1     -48.634  14.508  22.783  0.00  0.00    -0.259 N 
ATOM      8  C   UNL d   1     -49.085  13.806  22.745  0.00  0.00     0.140 A 
ATOM      9  C   UNL d   1     -46.652  13.529  23.023  0.00  0.00     0.030 A 
ATOM     10  C   UNL d   1     -49.013  15.238  22.727  0.00  0.00     0.084 A 
ATOM     11  O   UNL d   1     -47.374  15.167  22.912  0.00  0.00    -0.266 OA
ATOM     12  C   UNL d   1     -49.894  13.839  22.654  0.00  0.00     0.064 A 
ATOM     13  C   UNL d   1     -49.830  15.269  22.635  0.00  0.00     0.018 A 
ATOM     14  C   UNL d   1     -50.275  14.562  22.598  0.00  0.00    -0.008 A 
ATOM     15  C   UNL d   1     -47.569  11.604  22.955  0.00  0.00     0.101 C 
ENDROOT
BRANCH   4  16
ATOM     16  C   UNL d   1     -45.900  12.264  23.130  0.00  0.00     0.281 C 
ATOM     17  N   UNL d   1     -45.252  12.424  22.648  0.00  0.00    -0.271 N 
ATOM     18  C   UNL d   1     -45.289  13.021  22.082  0.00  0.00     0.083 A 
ATOM     19  C   UNL d   1     -44.557  11.982  22.734  0.00  0.00     0.083 A 
ATOM     20  C   UNL d   1     -44.639  13.176  21.604  0.00  0.00     0.025 A 
ATOM     21  C   UNL d   1     -43.944  12.734  21.690  0.00  0.00     0.067 A 
ATOM     22  C   UNL d   1     -43.905  12.140  22.253  0.00  0.00     0.025 A 
ATOM     23  O   UNL d   1     -45.862  11.667  23.696  0.00  0.00    -0.265 OA
BRANCH  21  24
ATOM     24  C   UNL d   1     -43.291  12.892  21.209  0.00  0.00     0.300 C 
ATOM     25  O   UNL d   1     -43.227  12.520  20.472  0.00  0.00    -0.259 OA
BRANCH  24  26
ATOM     26  O   UNL d   1     -42.709  13.415  21.463  0.00  0.00    -0.271 OA
BRANCH  26  27
ATOM     27  C   UNL d   1     -42.048  13.545  20.992  0.00  0.00     0.126 C 
ATOM     28  C   UNL d   1     -41.472  14.086  21.238  0.00  0.00     0.029 C 
ENDBRANCH  26  27
ENDBRANCH  24  26
ENDBRANCH  21  24
ENDBRANCH   4  16
TORSDOF 4
ENDMDL
MODEL 2
REMARK VINA RESULT:      -6.1      7.015      8.474
REMARK  4 active torsions:
REMARK  status: ('A' for Active; 'I' for Inactive)
REMARK    1  A    between atoms: C_10  and  C_4 
REMARK       I    between atoms: N_11  and  C_10 
REMARK    2  A    between atoms: C_12  and  C_19 
REMARK    3  A    between atoms: O_26  and  C_12 
REMARK    4  A    between atoms: C_27  and  O_26 
ROOT
ATOM      1  C   UNL d   1     -39.716  14.947  21.123  0.00  0.00     0.154 A 
ATOM      2  C   UNL d   1     -39.379  14.215  20.955  0.00  0.00     0.093 A 
ATOM      3  N   UNL d   1     -39.533  15.331  21.840  0.00  0.00    -0.211 NA
ATOM      4  C   UNL d   1     -40.166  14.555  19.930  0.00  0.00     0.122 A 
ATOM      5  N   UNL d   1     -40.199  15.156  20.493  0.00  0.00    -0.285 N 
ATOM      6  C   UNL d   1     -38.861  13.859  21.494  0.00  0.00     0.269 A 
ATOM      7  N   UNL d   1     -38.679  14.235  22.202  0.00  0.00    -0.259 N 
ATOM      8  C   UNL d   1     -39.017  14.979  22.380  0.00  0.00     0.140 A 
ATOM      9  C   UNL d   1     -39.656  13.974  20.221  0.00  0.00     0.030 A 
ATOM     10  C   UNL d   1     -38.163  13.884  22.741  0.00  0.00     0.084 A 
ATOM     11  O   UNL d   1     -38.524  13.123  21.321  0.00  0.00    -0.266 OA
ATOM     12  C   UNL d   1     -38.839  15.356  23.080  0.00  0.00     0.064 A 
ATOM     13  C   UNL d   1     -37.986  14.267  23.446  0.00  0.00     0.018 A 
ATOM     14  C   UNL d   1     -38.328  15.011  23.618  0.00  0.00    -0.008 A 
ATOM     15  C   UNL d   1     -40.644  15.853  20.436  0.00  0.00     0.101 C 
ENDROOT
BRANCH   4  16
ATOM     16  C   UNL d   1     -40.568  14.536  19.207  0.00  0.00     0.281 C 
ATOM     17  N   UNL d   1     -40.145  14.591  18.502  0.00  0.00    -0.271 N 
ATOM     18  C   UNL d   1     -39.325  14.664  18.512  0.00  0.00     0.083 A 
ATOM     19  C   UNL d   1     -40.548  14.573  17.779  0.00  0.00     0.083 A 
ATOM     20  C   UNL d   1     -38.909  14.718  17.806  0.00  0.00     0.025 A 
ATOM     21  C   UNL d   1     -39.311  14.700  17.083  0.00  0.00     0.067 A 
ATOM     22  C   UNL d   1     -40.127  14.627  17.070  0.00  0.00     0.025 A 
ATOM     23  O   UNL d   1     -41.388  14.464  19.197  0.00  0.00    -0.265 OA
BRANCH  21  24
ATOM     24  C   UNL d   1     -38.891  14.754  16.373  0.00  0.00     0.300 C 
ATOM     25  O   UNL d   1     -38.873  15.473  15.962  0.00  0.00    -0.259 OA
BRANCH  24  26
ATOM     26  O   UNL d   1     -38.492  14.097  16.079  0.00  0.00    -0.271 OA
BRANCH  26  27
ATOM     27  C   UNL d   1     -38.037  14.171  15.399  0.00  0.00     0.126 C 
ATOM     28  C   UNL d   1     -37.946  13.520  14.895  0.00  0.00     0.029 C 
ENDBRANCH  26  27
ENDBRANCH  24  26
ENDBRANCH  21  24
ENDBRANCH   4  16
TORSDOF 4
ENDMDL
MODEL 3
REMARK VINA RESULT:      -5.9      0.954      1.341
REMARK  4 active torsions:
REMARK  status: ('A' for Active; 'I' for Inactive)
REMARK    1  A    between atoms: C_10  and  C_4 
REMARK       I    between atoms: N_11  and  C_10 
REMARK    2  A    between atoms: C_12  and  C_19 
REMARK    3  A    between atoms: O_26  and  C_12 
REMARK    4  A    between atoms: C_27  and  O_26 
ROOT
ATOM      1  C   UNL d   1     -48.982  12.860  22.579  0.00  0.00     0.154 A 
ATOM      2  C   UNL d   1     -48.548  13.455  22.946  0.00  0.00     0.093 A 
ATOM      3  N   UNL d   1     -49.713  13.040  22.222  0.00  0.00    -0.211 NA
ATOM      4  C   UNL d   1     -47.866  12.313  23.063  0.00  0.00     0.122 A 
ATOM      5  N   UNL d   1     -48.563  12.157  22.651  0.00  0.00    -0.285 N 
ATOM      6  C   UNL d   1     -48.835  14.232  22.962  0.00  0.00     0.269 A 
ATOM      7  N   UNL d   1     -49.555  14.414  22.611  0.00  0.00    -0.259 N 
ATOM      8  C   UNL d   1     -50.002  13.814  22.237  0.00  0.00     0.140 A 
ATOM      9  C   UNL d   1     -47.862  13.118  23.244  0.00  0.00     0.030 A 
ATOM     10  C   UNL d   1     -49.844  15.186  22.626  0.00  0.00     0.084 A 
ATOM     11  O   UNL d   1     -48.395  14.828  23.333  0.00  0.00    -0.266 OA
ATOM     12  C   UNL d   1     -50.716  13.989  21.888  0.00  0.00     0.064 A 
ATOM     13  C   UNL d   1     -50.566  15.359  22.272  0.00  0.00     0.018 A 
ATOM     14  C   UNL d   1     -51.006  14.755  21.899  0.00  0.00    -0.008 A 
ATOM     15  C   UNL d   1     -48.801  11.419  22.358  0.00  0.00     0.101 C 
ENDROOT
BRANCH   4  16
ATOM     16  C   UNL d   1     -47.279  11.763  23.261  0.00  0.00     0.281 C 
ATOM     17  N   UNL d   1     -46.502  11.891  23.020  0.00  0.00    -0.271 N 
ATOM     18  C   UNL d   1     -46.304  12.562  22.585  0.00  0.00     0.083 A 
ATOM     19  C   UNL d   1     -45.914  11.341  23.217  0.00  0.00     0.083 A 
ATOM     20  C   UNL d   1     -45.527  12.684  22.347  0.00  0.00     0.025 A 
ATOM     21  C   UNL d   1     -44.940  12.135  22.544  0.00  0.00     0.067 A 
ATOM     22  C   UNL d   1     -45.134  11.466  22.977  0.00  0.00     0.025 A 
ATOM     23  O   UNL d   1     -47.476  11.093  23.695  0.00  0.00    -0.265 OA
BRANCH  21  24
ATOM     24  C   UNL d   1     -44.160  12.259  22.305  0.00  0.00     0.300 C 
ATOM     25  O   UNL d   1     -43.562  11.755  22.578  0.00  0.00    -0.259 OA
BRANCH  24  26
ATOM     26  O   UNL d   1     -43.978  12.881  21.797  0.00  0.00    -0.271 OA
BRANCH  26  27
ATOM     27  C   UNL d   1     -43.324  12.824  21.304  0.00  0.00     0.126 C 
ATOM     28  C   UNL d   1     -42.860  13.494  21.161  0.00  0.00     0.029 C 
ENDBRANCH  26  27
ENDBRANCH  24  26
ENDBRANCH  21  24
ENDBRANCH   4  16
TORSDOF 4
ENDMDL
MODEL 4
REMARK VINA RESULT:      -5.2      1.255      2.147
REMARK  4 active torsions:
REMARK  status: ('A' for Active; 'I' for Inactive)
REMARK    1  A    between atoms: C_10  and  C_4 
REMARK       I    between atoms: N_11  and  C_10 
REMARK    2  A    between atoms: C_12  and  C_19 
REMARK    3  A    between atoms: O_26  and  C_12 
REMARK    4  A    between atoms: C_27  and  O_26 
ROOT
ATOM      1  C   UNL d   1     -48.625  13.486  22.885  0.00  0.00     0.154 A 
ATOM      2  C   UNL d   1     -48.190  12.841  23.154  0.00  0.00     0.093 A 
ATOM      3  N   UNL d   1     -49.457  13.454  22.887  0.00  0.00    -0.211 NA
ATOM      4  C   UNL d   1     -47.330  13.792  22.779  0.00  0.00     0.122 A 
ATOM      5  N   UNL d   1     -48.096  14.071  22.655  0.00  0.00    -0.285 N 
ATOM      6  C   UNL d   1     -48.577  12.161  23.426  0.00  0.00     0.269 A 
ATOM      7  N   UNL d   1     -49.398  12.126  23.428  0.00  0.00    -0.259 N 
ATOM      8  C   UNL d   1     -49.846  12.777  23.157  0.00  0.00     0.140 A 
ATOM      9  C   UNL d   1     -47.395  13.029  23.089  0.00  0.00     0.030 A 
ATOM     10  C   UNL d   1     -49.786  11.450  23.698  0.00  0.00     0.084 A 
ATOM     11  O   UNL d   1     -48.136  11.514  23.695  0.00  0.00    -0.266 OA
ATOM     12  C   UNL d   1     -50.660  12.747  23.158  0.00  0.00     0.064 A 
ATOM     13  C   UNL d   1     -50.608  11.423  23.697  0.00  0.00     0.018 A 
ATOM     14  C   UNL d   1     -51.049  12.079  23.424  0.00  0.00    -0.008 A 
ATOM     15  C   UNL d   1     -48.300  14.815  22.349  0.00  0.00     0.101 C 
ENDROOT
BRANCH   4  16
ATOM     16  C   UNL d   1     -46.627  14.200  22.623  0.00  0.00     0.281 C 
ATOM     17  N   UNL d   1     -45.949  13.782  22.413  0.00  0.00    -0.271 N 
ATOM     18  C   UNL d   1     -45.966  12.960  22.358  0.00  0.00     0.083 A 
ATOM     19  C   UNL d   1     -45.246  14.190  22.257  0.00  0.00     0.083 A 
ATOM     20  C   UNL d   1     -45.287  12.548  22.148  0.00  0.00     0.025 A 
ATOM     21  C   UNL d   1     -44.584  12.957  21.992  0.00  0.00     0.067 A 
ATOM     22  C   UNL d   1     -44.565  13.774  22.046  0.00  0.00     0.025 A 
ATOM     23  O   UNL d   1     -46.610  15.021  22.678  0.00  0.00    -0.265 OA
BRANCH  21  24
ATOM     24  C   UNL d   1     -43.902  12.541  21.781  0.00  0.00     0.300 C 
ATOM     25  O   UNL d   1     -43.757  11.796  22.113  0.00  0.00    -0.259 OA
BRANCH  24  26
ATOM     26  O   UNL d   1     -43.370  12.866  21.243  0.00  0.00    -0.271 OA
BRANCH  26  27
ATOM     27  C   UNL d   1     -42.566  12.728  21.336  0.00  0.00     0.126 C 
ATOM     28  C   UNL d   1     -42.022  13.294  21.073  0.00  0.00     0.029 C 
ENDBRANCH  26  27
ENDBRANCH  24  26
ENDBRANCH  21  24
ENDBRANCH   4  16
TORSDOF 4
ENDMDL
MODEL 5
REMARK VINA RESULT:      -5.0      1.455      2.502
REMARK  4 active torsions:
REMARK  status: ('A' for Active; 'I' for Inactive)
REMARK    1  A    between atoms: C_10  and  C_4 
REMARK       I    between atoms: N_11  and  C_10 
REMARK    2  A    between atoms: C_12  and  C_19 
REMARK    3  A    between atoms: O_26  and  C_12 
REMARK    4  A    between atoms: C_27  and  O_26 
ROOT
ATOM      1  C   UNL d   1     -48.406  13.537  22.836  0.00  0.00     0.154 A 
ATOM      2  C   UNL d   1     -48.228  12.734  22.837  0.00  0.00     0.093 A 
ATOM      3  N   UNL d   1     -49.169  13.793  23.053  0.00  0.00    -0.211 NA
ATOM      4  C   UNL d   1     -47.135  13.399  22.454  0.00  0.00     0.122 A 
ATOM      5  N   UNL d   1     -47.734  13.947  22.600  0.00  0.00    -0.285 N 
ATOM      6  C   UNL d   1     -48.803  12.178  23.054  0.00  0.00     0.269 A 
ATOM      7  N   UNL d   1     -49.557  12.427  23.268  0.00  0.00    -0.259 N 
ATOM      8  C   UNL d   1     -49.745  13.241  23.269  0.00  0.00     0.140 A 
ATOM      9  C   UNL d   1     -47.447  12.649  22.602  0.00  0.00     0.030 A 
ATOM     10  C   UNL d   1     -50.132  11.877  23.484  0.00  0.00     0.084 A 
ATOM     11  O   UNL d   1     -48.620  11.371  23.054  0.00  0.00    -0.266 OA
ATOM     12  C   UNL d   1     -50.490  13.492  23.482  0.00  0.00     0.064 A 
ATOM     13  C   UNL d   1     -50.883  12.134  23.698  0.00  0.00     0.018 A 
ATOM     14  C   UNL d   1     -51.064  12.950  23.697  0.00  0.00    -0.008 A 
ATOM     15  C   UNL d   1     -47.671  14.770  22.523  0.00  0.00     0.101 C 
ENDROOT
BRANCH   4  16
ATOM     16  C   UNL d   1     -46.364  13.569  22.204  0.00  0.00     0.281 C 
ATOM     17  N   UNL d   1     -45.754  13.044  22.375  0.00  0.00    -0.271 N 
ATOM     18  C   UNL d   1     -45.905  12.349  22.792  0.00  0.00     0.083 A 
ATOM     19  C   UNL d   1     -44.983  13.214  22.125  0.00  0.00     0.083 A 
ATOM     20  C   UNL d   1     -45.292  11.828  22.959  0.00  0.00     0.025 A 
ATOM     21  C   UNL d   1     -44.521  11.999  22.709  0.00  0.00     0.067 A 
ATOM     22  C   UNL d   1     -44.368  12.689  22.294  0.00  0.00     0.025 A 
ATOM     23  O   UNL d   1     -46.213  14.263  21.788  0.00  0.00    -0.265 OA
BRANCH  21  24
ATOM     24  C   UNL d   1     -43.906  11.474  22.878  0.00  0.00     0.300 C 
ATOM     25  O   UNL d   1     -43.131  11.668  22.660  0.00  0.00    -0.259 OA
BRANCH  24  26
ATOM     26  O   UNL d   1     -44.064  10.763  23.261  0.00  0.00    -0.271 OA
BRANCH  26  27
ATOM     27  C   UNL d   1     -43.470  10.199  23.328  0.00  0.00     0.126 C 
ATOM     28  C   UNL d   1     -43.641   9.465  23.673  0.00  0.00     0.029 C 
ENDBRANCH  26  27
ENDBRANCH  24  26
ENDBRANCH  21  24
ENDBRANCH   4  16
TORSDOF 4
ENDMDL
MODEL 6
REMARK VINA RESULT:      -4.6      4.258      8.431
REMARK  4 active torsions:
REMARK  status: ('A' for Active; 'I' for Inactive)
REMARK    1  A    between atoms: C_10  and  C_4 
REMARK       I    between atoms: N_11  and  C_10 
REMARK    2  A    between atoms: C_12  and  C_19 
REMARK    3  A    between atoms: O_26  and  C_12 
REMARK    4  A    between atoms: C_27  and  O_26 
ROOT
ATOM      1  C   UNL d   1     -39.637  14.767  18.101  0.00  0.00     0.154 A 
ATOM      2  C   UNL d   1     -39.273  14.146  18.499  0.00  0.00     0.093 A 
ATOM      3  N   UNL d   1     -39.488  14.882  17.289  0.00  0.00    -0.211 NA
ATOM      4  C   UNL d   1     -40.039  14.806  19.372  0.00  0.00     0.122 A 
ATOM      5  N   UNL d   1     -40.108  15.173  18.638  0.00  0.00    -0.285 N 
ATOM      6  C   UNL d   1     -38.760  13.635  18.097  0.00  0.00     0.269 A 
ATOM      7  N   UNL d   1     -38.611  13.746  17.297  0.00  0.00    -0.259 N 
ATOM      8  C   UNL d   1     -38.977  14.375  16.885  0.00  0.00     0.140 A 
ATOM      9  C   UNL d   1     -39.521  14.170  19.281  0.00  0.00     0.030 A 
ATOM     10  C   UNL d   1     -38.101  13.239  16.893  0.00  0.00     0.084 A 
ATOM     11  O   UNL d   1     -38.396  13.011  18.502  0.00  0.00    -0.266 OA
ATOM     12  C   UNL d   1     -38.832  14.488  16.092  0.00  0.00     0.064 A 
ATOM     13  C   UNL d   1     -37.957  13.356  16.092  0.00  0.00     0.018 A 
ATOM     14  C   UNL d   1     -38.326  13.987  15.688  0.00  0.00    -0.008 A 
ATOM     15  C   UNL d   1     -40.573  15.838  18.467  0.00  0.00     0.101 C 
ENDROOT
BRANCH   4  16
ATOM     16  C   UNL d   1     -40.420  15.032  20.072  0.00  0.00     0.281 C 
ATOM     17  N   UNL d   1     -41.005  14.550  20.394  0.00  0.00    -0.271 N 
ATOM     18  C   UNL d   1     -41.216  13.845  20.023  0.00  0.00     0.083 A 
ATOM     19  C   UNL d   1     -41.386  14.777  21.094  0.00  0.00     0.083 A 
ATOM     20  C   UNL d   1     -41.801  13.369  20.348  0.00  0.00     0.025 A 
ATOM     21  C   UNL d   1     -42.181  13.595  21.048  0.00  0.00     0.067 A 
ATOM     22  C   UNL d   1     -41.973  14.296  21.418  0.00  0.00     0.025 A 
ATOM     23  O   UNL d   1     -40.210  15.736  20.442  0.00  0.00    -0.265 OA
BRANCH  21  24
ATOM     24  C   UNL d   1     -42.769  13.115  21.374  0.00  0.00     0.300 C 
ATOM     25  O   UNL d   1     -42.573  12.360  21.654  0.00  0.00    -0.259 OA
BRANCH  24  26
ATOM     26  O   UNL d   1     -43.545  13.386  21.419  0.00  0.00    -0.271 OA
BRANCH  26  27
ATOM     27  C   UNL d   1     -44.126  12.901  21.739  0.00  0.00     0.126 C 
ATOM     28  C   UNL d   1     -44.888  13.201  21.858  0.00  0.00     0.029 C 
ENDBRANCH  26  27
ENDBRANCH  24  26
ENDBRANCH  21  24
ENDBRANCH   4  16
TORSDOF 4
ENDMDL
