MODEL 1
REMARK VINA RESULT:       5.0      0.000      0.000
REMARK  5 active torsions:
REMARK  status: ('A' for Active; 'I' for Inactive)
REMARK    1  A    between atoms: N_8  and  C_6 
REMARK    2  A    between atoms: C_7  and  O_9 
REMARK    3  A    between atoms: C_10  and  C_7 
REMARK    4  A    between atoms: O_9  and  N_8 
REMARK    5  A    between atoms: O_20  and  C_15 
ROOT
ATOM      1  O   UNL d   1      45.213 -16.389  43.446  0.00  0.00    -0.169 OA
ENDROOT
BRANCH   1   2
ATOM      2  C   UNL d   1      45.601 -15.666  44.339  0.00  0.00     0.319 C 
ATOM      3  O   UNL d   1      45.945 -16.082  44.945  0.00  0.00    -0.257 OA
BRANCH   2   4
ATOM      4  C   UNL d   1      45.617 -14.970  44.491  0.00  0.00     0.065 A 
ATOM      5  C   UNL d   1      46.194 -14.592  44.345  0.00  0.00     0.007 A 
ATOM      6  C   UNL d   1      46.209 -13.902  44.495  0.00  0.00     0.024 A 
ATOM      7  C   UNL d   1      45.639 -13.597  44.792  0.00  0.00     0.094 A 
ATOM      8  C   UNL d   1      45.063 -13.981  44.936  0.00  0.00     0.024 A 
ATOM      9  C   UNL d   1      45.048 -14.664  44.788  0.00  0.00     0.007 A 
BRANCH   7  10
ATOM     10  O   UNL d   1      45.654 -12.899  44.944  0.00  0.00    -0.328 OA
ATOM     11  C   UNL d   1      45.997 -12.086  44.567  0.00  0.00     0.181 C 
ENDBRANCH   7  10
ENDBRANCH   2   4
ENDBRANCH   1   2
BRANCH   1  12
ATOM     12  N   UNL d   1      46.105 -17.240  43.865  0.00  0.00    -0.123 NA
BRANCH  12  13
ATOM     13  C   UNL d   1      46.241 -18.013  43.594  0.00  0.00     0.108 A 
ATOM     14  C   UNL d   1      46.323 -18.145  42.784  0.00  0.00     0.025 A 
ATOM     15  C   UNL d   1      46.458 -18.913  42.499  0.00  0.00     0.041 A 
ATOM     16  C   UNL d   1      46.511 -19.554  43.038  0.00  0.00     0.196 A 
ATOM     17  C   UNL d   1      46.543 -19.060  41.684  0.00  0.00     0.003 C 
ATOM     18  C   UNL d   1      46.427 -19.409  43.853  0.00  0.00     0.041 A 
ATOM     19  O   UNL d   1      46.647 -20.326  42.761  0.00  0.00    -0.287 OA
ATOM     20  C   UNL d   1      46.292 -18.641  44.138  0.00  0.00     0.025 A 
ATOM     21  C   UNL d   1      46.479 -20.041  44.388  0.00  0.00     0.003 C 
ENDBRANCH  12  13
ENDBRANCH   1  12
TORSDOF 5
ENDMDL
