MODEL 1
REMARK VINA RESULT:      -3.1      0.000      0.000
REMARK  3 active torsions:
REMARK  status: ('A' for Active; 'I' for Inactive)
REMARK    1  A    between atoms: N_6  and  C_1 
REMARK    2  A    between atoms: C_9  and  C_2 
REMARK       I    between atoms: C_8  and  N_6 
REMARK       I    between atoms: C_11  and  N_7 
REMARK    3  A    between atoms: C_17  and  C_8 
ROOT
ATOM      1  C   UNL d   1      32.988  21.345 -21.793  0.00  0.00     0.119 A 
ATOM      2  C   UNL d   1      32.864  22.157 -21.844  0.00  0.00     0.084 A 
ATOM      3  C   UNL d   1      33.032  21.845 -20.560  0.00  0.00     0.049 A 
ATOM      4  C   UNL d   1      32.892  22.469 -21.075  0.00  0.00     0.016 A 
ATOM      5  S   UNL d   1      33.093  21.149 -20.995  0.00  0.00    -0.066 SA
ATOM      6  N   UNL d   1      33.003  22.765 -19.455  0.00  0.00    -0.272 N 
ATOM      7  C   UNL d   1      33.088  22.001 -19.740  0.00  0.00     0.089 A 
ATOM      8  C   UNL d   1      33.057  22.924 -18.649  0.00  0.00     0.265 C 
ATOM      9  C   UNL d   1      32.805  23.241 -20.797  0.00  0.00     0.020 A 
ATOM     10  C   UNL d   1      32.861  23.389 -19.988  0.00  0.00     0.083 A 
ATOM     11  O   UNL d   1      33.198  22.306 -18.122  0.00  0.00    -0.267 OA
ATOM     12  C   UNL d   1      32.972  23.688 -18.364  0.00  0.00     0.066 C 
ENDROOT
BRANCH   1  13
ATOM     13  N   UNL d   1      33.006  20.807 -22.428  0.00  0.00    -0.201 NA
ATOM     14  C   UNL d   1      33.088  20.000 -22.272  0.00  0.00     0.280 C 
ATOM     15  O   UNL d   1      33.152  19.717 -21.502  0.00  0.00    -0.265 OA
BRANCH  14  16
ATOM     16  C   UNL d   1      33.106  19.467 -22.902  0.00  0.00     0.058 A 
ATOM     17  C   UNL d   1      33.115  18.653 -22.753  0.00  0.00     0.005 A 
ATOM     18  C   UNL d   1      33.132  18.120 -23.383  0.00  0.00     0.000 A 
ATOM     19  C   UNL d   1      33.142  18.393 -24.171  0.00  0.00     0.000 A 
ATOM     20  C   UNL d   1      33.133  19.208 -24.304  0.00  0.00     0.000 A 
ATOM     21  C   UNL d   1      33.115  19.740 -23.674  0.00  0.00     0.005 A 
ENDBRANCH  14  16
ENDBRANCH   1  13
BRANCH   2  22
ATOM     22  C   UNL d   1      32.737  22.574 -22.538  0.00  0.00     0.299 C 
ATOM     23  O   UNL d   1      33.235  22.443 -23.184  0.00  0.00    -0.264 OA
ATOM     24  N   UNL d   1      32.120  23.117 -22.594  0.00  0.00    -0.102 N 
ENDBRANCH   2  22
TORSDOF 3
ENDMDL
MODEL 2
REMARK VINA RESULT:      -2.7      1.696      5.018
REMARK  3 active torsions:
REMARK  status: ('A' for Active; 'I' for Inactive)
REMARK    1  A    between atoms: N_6  and  C_1 
REMARK    2  A    between atoms: C_9  and  C_2 
REMARK       I    between atoms: C_8  and  N_6 
REMARK       I    between atoms: C_11  and  N_7 
REMARK    3  A    between atoms: C_17  and  C_8 
ROOT
ATOM      1  C   UNL d   1      32.810  19.719 -22.918  0.00  0.00     0.119 A 
ATOM      2  C   UNL d   1      32.785  19.574 -23.727  0.00  0.00     0.084 A 
ATOM      3  C   UNL d   1      32.949  18.408 -23.105  0.00  0.00     0.049 A 
ATOM      4  C   UNL d   1      32.871  18.758 -23.844  0.00  0.00     0.016 A 
ATOM      5  S   UNL d   1      32.912  18.995 -22.529  0.00  0.00    -0.066 SA
ATOM      6  N   UNL d   1      33.061  17.122 -23.736  0.00  0.00    -0.272 N 
ATOM      7  C   UNL d   1      33.045  17.579 -23.056  0.00  0.00     0.089 A 
ATOM      8  C   UNL d   1      33.155  16.305 -23.694  0.00  0.00     0.265 C 
ATOM      9  C   UNL d   1      32.886  18.305 -24.534  0.00  0.00     0.020 A 
ATOM     10  C   UNL d   1      32.981  17.487 -24.480  0.00  0.00     0.083 A 
ATOM     11  O   UNL d   1      33.234  15.943 -22.957  0.00  0.00    -0.267 OA
ATOM     12  C   UNL d   1      33.172  15.847 -24.374  0.00  0.00     0.066 C 
ENDROOT
BRANCH   1  13
ATOM     13  N   UNL d   1      32.746  20.462 -22.546  0.00  0.00    -0.201 NA
ATOM     14  C   UNL d   1      32.721  20.500 -21.721  0.00  0.00     0.280 C 
ATOM     15  O   UNL d   1      32.759  19.819 -21.260  0.00  0.00    -0.265 OA
BRANCH  14  16
ATOM     16  C   UNL d   1      32.657  21.235 -21.353  0.00  0.00     0.058 A 
ATOM     17  C   UNL d   1      33.240  21.810 -21.474  0.00  0.00     0.005 A 
ATOM     18  C   UNL d   1      33.176  22.545 -21.106  0.00  0.00     0.000 A 
ATOM     19  C   UNL d   1      32.528  22.718 -20.611  0.00  0.00     0.000 A 
ATOM     20  C   UNL d   1      31.954  22.135 -20.498  0.00  0.00     0.000 A 
ATOM     21  C   UNL d   1      32.018  21.399 -20.867  0.00  0.00     0.005 A 
ENDBRANCH  14  16
ENDBRANCH   1  13
BRANCH   2  22
ATOM     22  C   UNL d   1      32.690  20.146 -24.308  0.00  0.00     0.299 C 
ATOM     23  O   UNL d   1      33.237  20.764 -24.358  0.00  0.00    -0.264 OA
ATOM     24  N   UNL d   1      32.059  20.107 -24.836  0.00  0.00    -0.102 N 
ENDBRANCH   2  22
TORSDOF 3
ENDMDL
MODEL 3
REMARK VINA RESULT:      -1.7      1.600      4.890
REMARK  3 active torsions:
REMARK  status: ('A' for Active; 'I' for Inactive)
REMARK    1  A    between atoms: N_6  and  C_1 
REMARK    2  A    between atoms: C_9  and  C_2 
REMARK       I    between atoms: C_8  and  N_6 
REMARK       I    between atoms: C_11  and  N_7 
REMARK    3  A    between atoms: C_17  and  C_8 
ROOT
ATOM      1  C   UNL d   1      32.930  22.104 -20.346  0.00  0.00     0.119 A 
ATOM      2  C   UNL d   1      32.971  21.385 -20.742  0.00  0.00     0.084 A 
ATOM      3  C   UNL d   1      33.023  22.359 -21.649  0.00  0.00     0.049 A 
ATOM      4  C   UNL d   1      33.029  21.544 -21.555  0.00  0.00     0.016 A 
ATOM      5  S   UNL d   1      32.962  22.712 -20.907  0.00  0.00    -0.066 SA
ATOM      6  N   UNL d   1      33.132  22.187 -23.071  0.00  0.00    -0.272 N 
ATOM      7  C   UNL d   1      33.075  22.680 -22.420  0.00  0.00     0.089 A 
ATOM      8  C   UNL d   1      33.184  22.496 -23.833  0.00  0.00     0.265 C 
ATOM      9  C   UNL d   1      33.086  21.040 -22.206  0.00  0.00     0.020 A 
ATOM     10  C   UNL d   1      33.138  21.361 -22.964  0.00  0.00     0.083 A 
ATOM     11  O   UNL d   1      33.179  23.314 -23.939  0.00  0.00    -0.267 OA
ATOM     12  C   UNL d   1      33.241  22.003 -24.485  0.00  0.00     0.066 C 
ENDROOT
BRANCH   1  13
ATOM     13  N   UNL d   1      32.867  22.211 -19.522  0.00  0.00    -0.201 NA
ATOM     14  C   UNL d   1      32.729  22.969 -19.222  0.00  0.00     0.280 C 
ATOM     15  O   UNL d   1      32.652  23.619 -19.721  0.00  0.00    -0.265 OA
BRANCH  14  16
ATOM     16  C   UNL d   1      32.666  23.075 -18.407  0.00  0.00     0.058 A 
ATOM     17  C   UNL d   1      32.045  23.524 -18.095  0.00  0.00     0.005 A 
ATOM     18  C   UNL d   1      31.982  23.630 -17.279  0.00  0.00     0.000 A 
ATOM     19  C   UNL d   1      32.540  23.288 -16.762  0.00  0.00     0.000 A 
ATOM     20  C   UNL d   1      33.154  22.843 -17.087  0.00  0.00     0.000 A 
ATOM     21  C   UNL d   1      33.217  22.737 -17.903  0.00  0.00     0.005 A 
ENDBRANCH  14  16
ENDBRANCH   1  13
BRANCH   2  22
ATOM     22  C   UNL d   1      32.957  20.646 -20.387  0.00  0.00     0.299 C 
ATOM     23  O   UNL d   1      33.241  20.564 -19.615  0.00  0.00    -0.264 OA
ATOM     24  N   UNL d   1      32.663  19.991 -20.792  0.00  0.00    -0.102 N 
ENDBRANCH   2  22
TORSDOF 3
ENDMDL
MODEL 4
REMARK VINA RESULT:      -0.5      1.859      2.751
REMARK  3 active torsions:
REMARK  status: ('A' for Active; 'I' for Inactive)
REMARK    1  A    between atoms: N_6  and  C_1 
REMARK    2  A    between atoms: C_9  and  C_2 
REMARK       I    between atoms: C_8  and  N_6 
REMARK       I    between atoms: C_11  and  N_7 
REMARK    3  A    between atoms: C_17  and  C_8 
ROOT
ATOM      1  C   UNL d   1      32.914  22.237 -21.311  0.00  0.00     0.119 A 
ATOM      2  C   UNL d   1      32.537  21.653 -20.871  0.00  0.00     0.084 A 
ATOM      3  C   UNL d   1      32.943  22.604 -20.032  0.00  0.00     0.049 A 
ATOM      4  C   UNL d   1      32.555  21.882 -20.074  0.00  0.00     0.016 A 
ATOM      5  S   UNL d   1      33.168  22.830 -20.791  0.00  0.00    -0.066 SA
ATOM      6  N   UNL d   1      32.757  22.611 -18.607  0.00  0.00    -0.272 N 
ATOM      7  C   UNL d   1      33.043  22.969 -19.286  0.00  0.00     0.089 A 
ATOM      8  C   UNL d   1      32.852  22.966 -17.870  0.00  0.00     0.265 C 
ATOM      9  C   UNL d   1      32.264  21.514 -19.394  0.00  0.00     0.020 A 
ATOM     10  C   UNL d   1      32.364  21.879 -18.662  0.00  0.00     0.083 A 
ATOM     11  O   UNL d   1      33.240  23.692 -17.815  0.00  0.00    -0.267 OA
ATOM     12  C   UNL d   1      32.565  22.608 -17.190  0.00  0.00     0.066 C 
ENDROOT
BRANCH   1  13
ATOM     13  N   UNL d   1      33.025  22.239 -22.137  0.00  0.00    -0.201 NA
ATOM     14  C   UNL d   1      32.848  22.922 -22.566  0.00  0.00     0.280 C 
ATOM     15  O   UNL d   1      32.564  23.600 -22.195  0.00  0.00    -0.265 OA
BRANCH  14  16
ATOM     16  C   UNL d   1      32.958  22.924 -23.384  0.00  0.00     0.058 A 
ATOM     17  C   UNL d   1      32.992  23.642 -23.794  0.00  0.00     0.005 A 
ATOM     18  C   UNL d   1      33.102  23.644 -24.612  0.00  0.00     0.000 A 
ATOM     19  C   UNL d   1      33.181  22.928 -25.032  0.00  0.00     0.000 A 
ATOM     20  C   UNL d   1      33.145  22.219 -24.610  0.00  0.00     0.000 A 
ATOM     21  C   UNL d   1      33.035  22.217 -23.792  0.00  0.00     0.005 A 
ENDBRANCH  14  16
ENDBRANCH   1  13
BRANCH   2  22
ATOM     22  C   UNL d   1      32.204  20.969 -21.178  0.00  0.00     0.299 C 
ATOM     23  O   UNL d   1      31.382  20.907 -21.225  0.00  0.00    -0.264 OA
ATOM     24  N   UNL d   1      32.683  20.350 -21.436  0.00  0.00    -0.102 N 
ENDBRANCH   2  22
TORSDOF 3
ENDMDL
