MODEL 1
REMARK VINA RESULT:      -5.1      0.000      0.000
REMARK  9 active torsions:
REMARK  status: ('A' for Active; 'I' for Inactive)
REMARK    1  A    between atoms: N_2  and  C_1 
REMARK    2  A    between atoms: N_3  and  C_5 
REMARK    3  A    between atoms: N_16  and  C_6 
REMARK    4  A    between atoms: C_11  and  C_18 
REMARK    5  A    between atoms: O_14  and  C_11 
REMARK    6  A    between atoms: C_17  and  O_14 
REMARK    7  A    between atoms: C_19  and  N_16 
REMARK    8  A    between atoms: C_18  and  C_20 
REMARK    9  A    between atoms: C_20  and  C_19 
ROOT
ATOM      1  C   UNL d   1     -42.587-123.125 -49.371  0.00  0.00     0.146 A 
ATOM      2  C   UNL d   1     -42.554-123.128 -48.546  0.00  0.00     0.049 A 
ATOM      3  C   UNL d   1     -41.845-123.145 -48.160  0.00  0.00     0.128 A 
ATOM      4  C   UNL d   1     -41.910-123.138 -49.812  0.00  0.00     0.103 A 
ATOM      5  C   UNL d   1     -41.123-123.160 -48.603  0.00  0.00     0.025 A 
ATOM      6  C   UNL d   1     -41.177-123.156 -49.427  0.00  0.00     0.022 A 
ENDROOT
BRANCH   4   7
ATOM      7  N   UNL d   1     -41.943-123.135 -50.651  0.00  0.00    -0.242 NA
BRANCH   7   8
ATOM      8  C   UNL d   1     -41.272-123.042 -51.092  0.00  0.00     0.099 C 
BRANCH   8   9
ATOM      9  C   UNL d   1     -41.262-123.236 -51.889  0.00  0.00     0.026 C 
BRANCH   9  10
ATOM     10  C   UNL d   1     -41.162-122.644 -52.458  0.00  0.00     0.070 C 
BRANCH  10  11
ATOM     11  C   UNL d   1     -41.223-122.827 -53.260  0.00  0.00     0.300 C 
ATOM     12  O   UNL d   1     -41.314-123.612 -53.493  0.00  0.00    -0.259 OA
BRANCH  11  13
ATOM     13  O   UNL d   1     -41.191-122.223 -53.820  0.00  0.00    -0.273 OA
BRANCH  13  14
ATOM     14  C   UNL d   1     -41.580-122.292 -54.548  0.00  0.00     0.103 C 
ATOM     15  C   UNL d   1     -41.238-122.768 -55.130  0.00  0.00     0.027 C 
ATOM     16  C   UNL d   1     -42.292-121.899 -54.695  0.00  0.00     0.027 C 
ENDBRANCH  13  14
ENDBRANCH  11  13
ENDBRANCH  10  11
ENDBRANCH   9  10
ENDBRANCH   8   9
ENDBRANCH   7   8
ENDBRANCH   4   7
BRANCH   1  17
ATOM     17  N   UNL d   1     -43.342-123.106 -49.770  0.00  0.00    -0.112 N 
ATOM     18  O   UNL d   1     -43.681-122.372 -49.999  0.00  0.00    -0.532 OA
ATOM     19  O   UNL d   1     -43.740-123.814 -49.931  0.00  0.00    -0.532 OA
ENDBRANCH   1  17
BRANCH   3  20
ATOM     20  N   UNL d   1     -41.830-123.148 -47.339  0.00  0.00    -0.114 N 
ATOM     21  O   UNL d   1     -42.101-122.499 -46.924  0.00  0.00    -0.532 OA
ATOM     22  O   UNL d   1     -41.538-123.816 -46.951  0.00  0.00    -0.532 OA
ENDBRANCH   3  20
TORSDOF 9
ENDMDL
