MODEL 1
REMARK VINA RESULT:      -6.7      0.000      0.000
REMARK  4 active torsions:
REMARK  status: ('A' for Active; 'I' for Inactive)
REMARK    1  A    between atoms: N_7  and  C_2 
REMARK    2  A    between atoms: C_5  and  C_10 
REMARK    3  A    between atoms: N_6  and  N_7 
REMARK    4  A    between atoms: C_10  and  N_6 
ROOT
ATOM      1  C   UNL d   1     -48.586  14.880  22.734  0.00  0.00     0.125 C 
ENDROOT
BRANCH   1   2
ATOM      2  C   UNL d   1     -49.418  14.791  22.707  0.00  0.00     0.060 A 
ATOM      3  C   UNL d   1     -49.904  15.311  23.134  0.00  0.00     0.197 A 
ATOM      4  C   UNL d   1     -50.733  15.219  23.104  0.00  0.00     0.043 A 
ATOM      5  O   UNL d   1     -49.589  15.919  23.589  0.00  0.00    -0.286 OA
ATOM      6  C   UNL d   1     -51.060  14.619  22.656  0.00  0.00     0.010 A 
ATOM      7  C   UNL d   1     -50.571  14.107  22.235  0.00  0.00     0.035 A 
ATOM      8  C   UNL d   1     -49.754  14.179  22.250  0.00  0.00     0.011 A 
ATOM      9 BR   UNL d   1     -50.903  13.483  21.769  0.00  0.00    -0.049 Br
ENDBRANCH   1   2
BRANCH   1  10
ATOM     10  N   UNL d   1     -48.071  14.213  22.751  0.00  0.00    -0.144 NA
BRANCH  10  11
ATOM     11  N   UNL d   1     -47.282  14.306  22.883  0.00  0.00    -0.121 NA
BRANCH  11  12
ATOM     12  C   UNL d   1     -46.794  13.641  22.964  0.00  0.00     0.217 A 
ATOM     13  N   UNL d   1     -46.786  13.039  23.496  0.00  0.00    -0.181 NA
ATOM     14  C   UNL d   1     -46.185  12.551  23.299  0.00  0.00     0.288 A 
ATOM     15  O   UNL d   1     -45.977  11.861  23.698  0.00  0.00    -0.265 OA
ATOM     16  C   UNL d   1     -45.804  12.818  22.657  0.00  0.00     0.101 A 
ATOM     17  S   UNL d   1     -46.176  13.517  22.422  0.00  0.00    -0.041 SA
ENDBRANCH  11  12
ENDBRANCH  10  11
ENDBRANCH   1  10
TORSDOF 4
ENDMDL
MODEL 2
REMARK VINA RESULT:      -6.6      2.148      4.386
REMARK  4 active torsions:
REMARK  status: ('A' for Active; 'I' for Inactive)
REMARK    1  A    between atoms: N_7  and  C_2 
REMARK    2  A    between atoms: C_5  and  C_10 
REMARK    3  A    between atoms: N_6  and  N_7 
REMARK    4  A    between atoms: C_10  and  N_6 
ROOT
ATOM      1  C   UNL d   1     -48.691  12.356  22.931  0.00  0.00     0.125 C 
ENDROOT
BRANCH   1   2
ATOM      2  C   UNL d   1     -47.868  12.309  23.082  0.00  0.00     0.060 A 
ATOM      3  C   UNL d   1     -47.555  11.641  23.462  0.00  0.00     0.197 A 
ATOM      4  C   UNL d   1     -46.735  11.598  23.610  0.00  0.00     0.043 A 
ATOM      5  O   UNL d   1     -48.034  11.016  23.698  0.00  0.00    -0.286 OA
ATOM      6  C   UNL d   1     -46.247  12.212  23.381  0.00  0.00     0.010 A 
ATOM      7  C   UNL d   1     -46.566  12.872  23.004  0.00  0.00     0.035 A 
ATOM      8  C   UNL d   1     -47.369  12.935  22.849  0.00  0.00     0.011 A 
ATOM      9 BR   UNL d   1     -46.066  13.511  22.764  0.00  0.00    -0.049 Br
ENDBRANCH   1   2
BRANCH   1  10
ATOM     10  N   UNL d   1     -49.096  13.095  22.922  0.00  0.00    -0.144 NA
BRANCH  10  11
ATOM     11  N   UNL d   1     -49.883  13.130  22.753  0.00  0.00    -0.121 NA
BRANCH  11  12
ATOM     12  C   UNL d   1     -50.267  13.863  22.722  0.00  0.00     0.217 A 
ATOM     13  N   UNL d   1     -50.257  14.501  23.211  0.00  0.00    -0.181 NA
ATOM     14  C   UNL d   1     -50.740  15.053  22.898  0.00  0.00     0.288 A 
ATOM     15  O   UNL d   1     -50.892  15.796  23.222  0.00  0.00    -0.265 OA
ATOM     16  C   UNL d   1     -51.064  14.795  22.223  0.00  0.00     0.101 A 
ATOM     17  S   UNL d   1     -50.777  14.033  22.086  0.00  0.00    -0.041 SA
ENDBRANCH  11  12
ENDBRANCH  10  11
ENDBRANCH   1  10
TORSDOF 4
ENDMDL
MODEL 3
REMARK VINA RESULT:      -6.4      1.683      1.967
REMARK  4 active torsions:
REMARK  status: ('A' for Active; 'I' for Inactive)
REMARK    1  A    between atoms: N_7  and  C_2 
REMARK    2  A    between atoms: C_5  and  C_10 
REMARK    3  A    between atoms: N_6  and  N_7 
REMARK    4  A    between atoms: C_10  and  N_6 
ROOT
ATOM      1  C   UNL d   1     -49.753  12.783  23.016  0.00  0.00     0.125 C 
ENDROOT
BRANCH   1   2
ATOM      2  C   UNL d   1     -50.131  13.509  22.841  0.00  0.00     0.060 A 
ATOM      3  C   UNL d   1     -50.597  13.579  22.158  0.00  0.00     0.197 A 
ATOM      4  C   UNL d   1     -50.972  14.305  21.988  0.00  0.00     0.043 A 
ATOM      5  O   UNL d   1     -50.700  12.949  21.640  0.00  0.00    -0.286 OA
ATOM      6  C   UNL d   1     -50.879  14.940  22.493  0.00  0.00     0.010 A 
ATOM      7  C   UNL d   1     -50.415  14.862  23.170  0.00  0.00     0.035 A 
ATOM      8  C   UNL d   1     -50.037  14.158  23.356  0.00  0.00     0.011 A 
ATOM      9 BR   UNL d   1     -50.314  15.516  23.698  0.00  0.00    -0.049 Br
ENDBRANCH   1   2
BRANCH   1  10
ATOM     10  N   UNL d   1     -48.937  12.749  23.229  0.00  0.00    -0.144 NA
BRANCH  10  11
ATOM     11  N   UNL d   1     -48.557  12.042  23.288  0.00  0.00    -0.121 NA
BRANCH  11  12
ATOM     12  C   UNL d   1     -47.733  12.021  23.371  0.00  0.00     0.217 A 
ATOM     13  N   UNL d   1     -47.158  12.555  23.198  0.00  0.00    -0.181 NA
ATOM     14  C   UNL d   1     -46.457  12.230  23.399  0.00  0.00     0.288 A 
ATOM     15  O   UNL d   1     -45.720  12.588  23.315  0.00  0.00    -0.265 OA
ATOM     16  C   UNL d   1     -46.559  11.502  23.697  0.00  0.00     0.101 A 
ATOM     17  S   UNL d   1     -47.369  11.344  23.690  0.00  0.00    -0.041 SA
ENDBRANCH  11  12
ENDBRANCH  10  11
ENDBRANCH   1  10
TORSDOF 4
ENDMDL
MODEL 4
REMARK VINA RESULT:      -4.9      8.884      9.775
REMARK  4 active torsions:
REMARK  status: ('A' for Active; 'I' for Inactive)
REMARK    1  A    between atoms: N_7  and  C_2 
REMARK    2  A    between atoms: C_5  and  C_10 
REMARK    3  A    between atoms: N_6  and  N_7 
REMARK    4  A    between atoms: C_10  and  N_6 
ROOT
ATOM      1  C   UNL d   1     -40.573  14.498  19.425  0.00  0.00     0.125 C 
ENDROOT
BRANCH   1   2
ATOM      2  C   UNL d   1     -40.403  14.821  20.179  0.00  0.00     0.060 A 
ATOM      3  C   UNL d   1     -40.769  15.525  20.419  0.00  0.00     0.197 A 
ATOM      4  C   UNL d   1     -40.598  15.844  21.170  0.00  0.00     0.043 A 
ATOM      5  O   UNL d   1     -41.302  15.921  19.933  0.00  0.00    -0.286 OA
ATOM      6  C   UNL d   1     -40.071  15.462  21.665  0.00  0.00     0.010 A 
ATOM      7  C   UNL d   1     -39.711  14.762  21.419  0.00  0.00     0.035 A 
ATOM      8  C   UNL d   1     -39.865  14.431  20.684  0.00  0.00     0.011 A 
ATOM      9 BR   UNL d   1     -39.164  14.361  21.925  0.00  0.00    -0.049 Br
ENDBRANCH   1   2
BRANCH   1  10
ATOM     10  N   UNL d   1     -39.970  14.150  18.948  0.00  0.00    -0.144 NA
BRANCH  10  11
ATOM     11  N   UNL d   1     -40.119  13.946  18.183  0.00  0.00    -0.121 NA
BRANCH  11  12
ATOM     12  C   UNL d   1     -39.500  13.688  17.696  0.00  0.00     0.217 A 
ATOM     13  N   UNL d   1     -39.028  13.039  17.721  0.00  0.00    -0.181 NA
ATOM     14  C   UNL d   1     -38.525  13.082  17.102  0.00  0.00     0.288 A 
ATOM     15  O   UNL d   1     -37.943  12.528  16.917  0.00  0.00    -0.265 OA
ATOM     16  C   UNL d   1     -38.656  13.738  16.677  0.00  0.00     0.101 A 
ATOM     17  S   UNL d   1     -39.278  14.145  17.037  0.00  0.00    -0.041 SA
ENDBRANCH  11  12
ENDBRANCH  10  11
ENDBRANCH   1  10
TORSDOF 4
ENDMDL
MODEL 5
REMARK VINA RESULT:      -4.8      9.463     10.080
REMARK  4 active torsions:
REMARK  status: ('A' for Active; 'I' for Inactive)
REMARK    1  A    between atoms: N_7  and  C_2 
REMARK    2  A    between atoms: C_5  and  C_10 
REMARK    3  A    between atoms: N_6  and  N_7 
REMARK    4  A    between atoms: C_10  and  N_6 
ROOT
ATOM      1  C   UNL d   1     -39.331  14.041  19.642  0.00  0.00     0.125 C 
ENDROOT
BRANCH   1   2
ATOM      2  C   UNL d   1     -39.257  14.333  20.423  0.00  0.00     0.060 A 
ATOM      3  C   UNL d   1     -38.728  13.972  20.951  0.00  0.00     0.197 A 
ATOM      4  C   UNL d   1     -38.657  14.266  21.728  0.00  0.00     0.043 A 
ATOM      5  O   UNL d   1     -38.268  13.328  20.728  0.00  0.00    -0.286 OA
ATOM      6  C   UNL d   1     -39.107  14.906  21.965  0.00  0.00     0.010 A 
ATOM      7  C   UNL d   1     -39.630  15.259  21.434  0.00  0.00     0.035 A 
ATOM      8  C   UNL d   1     -39.715  14.986  20.665  0.00  0.00     0.011 A 
ATOM      9 BR   UNL d   1     -40.099  15.922  21.672  0.00  0.00    -0.049 Br
ENDBRANCH   1   2
BRANCH   1  10
ATOM     10  N   UNL d   1     -39.693  14.497  19.032  0.00  0.00    -0.144 NA
BRANCH  10  11
ATOM     11  N   UNL d   1     -39.780  14.196  18.290  0.00  0.00    -0.121 NA
BRANCH  11  12
ATOM     12  C   UNL d   1     -40.177  14.635  17.709  0.00  0.00     0.217 A 
ATOM     13  N   UNL d   1     -40.957  14.740  17.550  0.00  0.00    -0.181 NA
ATOM     14  C   UNL d   1     -41.011  15.225  16.919  0.00  0.00     0.288 A 
ATOM     15  O   UNL d   1     -41.713  15.480  16.569  0.00  0.00    -0.265 OA
ATOM     16  C   UNL d   1     -40.292  15.438  16.663  0.00  0.00     0.101 A 
ATOM     17  S   UNL d   1     -39.738  15.072  17.154  0.00  0.00    -0.041 SA
ENDBRANCH  11  12
ENDBRANCH  10  11
ENDBRANCH   1  10
TORSDOF 4
ENDMDL
MODEL 6
REMARK VINA RESULT:      -4.4      2.621      4.456
REMARK  4 active torsions:
REMARK  status: ('A' for Active; 'I' for Inactive)
REMARK    1  A    between atoms: N_7  and  C_2 
REMARK    2  A    between atoms: C_5  and  C_10 
REMARK    3  A    between atoms: N_6  and  N_7 
REMARK    4  A    between atoms: C_10  and  N_6 
ROOT
ATOM      1  C   UNL d   1     -47.600  12.342  23.698  0.00  0.00     0.125 C 
ENDROOT
BRANCH   1   2
ATOM      2  C   UNL d   1     -46.871  12.588  23.366  0.00  0.00     0.060 A 
ATOM      3  C   UNL d   1     -46.252  12.043  23.279  0.00  0.00     0.197 A 
ATOM      4  C   UNL d   1     -45.528  12.291  22.948  0.00  0.00     0.043 A 
ATOM      5  O   UNL d   1     -46.332  11.258  23.512  0.00  0.00    -0.286 OA
ATOM      6  C   UNL d   1     -45.432  13.067  22.712  0.00  0.00     0.010 A 
ATOM      7  C   UNL d   1     -46.053  13.603  22.802  0.00  0.00     0.035 A 
ATOM      8  C   UNL d   1     -46.773  13.380  23.125  0.00  0.00     0.011 A 
ATOM      9 BR   UNL d   1     -45.962  14.409  22.559  0.00  0.00    -0.049 Br
ENDBRANCH   1   2
BRANCH   1  10
ATOM     10  N   UNL d   1     -48.312  12.339  23.246  0.00  0.00    -0.144 NA
BRANCH  10  11
ATOM     11  N   UNL d   1     -49.019  12.176  23.595  0.00  0.00    -0.121 NA
BRANCH  11  12
ATOM     12  C   UNL d   1     -49.725  12.298  23.178  0.00  0.00     0.217 A 
ATOM     13  N   UNL d   1     -49.877  12.436  22.401  0.00  0.00    -0.181 NA
ATOM     14  C   UNL d   1     -50.667  12.510  22.319  0.00  0.00     0.288 A 
ATOM     15  O   UNL d   1     -51.065  12.655  21.612  0.00  0.00    -0.265 OA
ATOM     16  C   UNL d   1     -51.033  12.424  23.017  0.00  0.00     0.101 A 
ATOM     17  S   UNL d   1     -50.450  12.287  23.586  0.00  0.00    -0.041 SA
ENDBRANCH  11  12
ENDBRANCH  10  11
ENDBRANCH   1  10
TORSDOF 4
ENDMDL
