MODEL 1
REMARK VINA RESULT:      -6.0      0.000      0.000
REMARK  1 active torsions:
REMARK  status: ('A' for Active; 'I' for Inactive)
REMARK    1  A    between atoms: C_7  and  C_1 
ROOT
ATOM      1  C   UNL d   1     -41.864-122.112 -54.435  0.00  0.00     0.122 A 
ATOM      2  C   UNL d   1     -41.489-122.969 -53.342  0.00  0.00     0.057 A 
ATOM      3  C   UNL d   1     -41.616-122.349 -52.812  0.00  0.00     0.085 A 
ATOM      4  C   UNL d   1     -41.612-122.852 -54.149  0.00  0.00     0.204 A 
ATOM      5  N   UNL d   1     -41.868-121.610 -53.106  0.00  0.00    -0.244 NA
ATOM      6  C   UNL d   1     -41.495-122.458 -52.006  0.00  0.00     0.028 A 
ATOM      7  C   UNL d   1     -41.991-121.491 -53.905  0.00  0.00     0.108 A 
ATOM      8  C   UNL d   1     -41.241-123.701 -53.068  0.00  0.00     0.006 A 
ATOM      9  C   UNL d   1     -41.249-123.187 -51.737  0.00  0.00     0.059 A 
ATOM     10  C   UNL d   1     -41.123-123.804 -52.264  0.00  0.00     0.012 A 
ATOM     11  O   UNL d   1     -41.486-123.470 -54.677  0.00  0.00    -0.286 OA
ATOM     12 CL   UNL d   1     -41.123-123.309 -50.921  0.00  0.00    -0.082 Cl
ATOM     13  C   UNL d   1     -41.624-121.829 -51.468  0.00  0.00     0.002 C 
ENDROOT
BRANCH   1  14
ATOM     14  C   UNL d   1     -41.985-122.005 -55.253  0.00  0.00     0.216 C 
ATOM     15  O   UNL d   1     -42.750-121.990 -55.569  0.00  0.00    -0.644 OA
ATOM     16  O   UNL d   1     -41.329-121.913 -55.756  0.00  0.00    -0.644 OA
ENDBRANCH   1  14
TORSDOF 1
ENDMDL
MODEL 2
REMARK VINA RESULT:      -5.5      0.966      1.625
REMARK  1 active torsions:
REMARK  status: ('A' for Active; 'I' for Inactive)
REMARK    1  A    between atoms: C_7  and  C_1 
ROOT
ATOM      1  C   UNL d   1     -41.623-122.689 -53.941  0.00  0.00     0.122 A 
ATOM      2  C   UNL d   1     -41.503-122.154 -52.611  0.00  0.00     0.057 A 
ATOM      3  C   UNL d   1     -41.376-122.915 -52.316  0.00  0.00     0.085 A 
ATOM      4  C   UNL d   1     -41.626-122.041 -53.419  0.00  0.00     0.204 A 
ATOM      5  N   UNL d   1     -41.374-123.559 -52.846  0.00  0.00    -0.244 NA
ATOM      6  C   UNL d   1     -41.252-123.035 -51.512  0.00  0.00     0.028 A 
ATOM      7  C   UNL d   1     -41.496-123.450 -53.647  0.00  0.00     0.108 A 
ATOM      8  C   UNL d   1     -41.507-121.512 -52.102  0.00  0.00     0.006 A 
ATOM      9  C   UNL d   1     -41.257-122.393 -51.010  0.00  0.00     0.059 A 
ATOM     10  C   UNL d   1     -41.384-121.637 -51.303  0.00  0.00     0.012 A 
ATOM     11  O   UNL d   1     -41.753-121.284 -53.712  0.00  0.00    -0.286 OA
ATOM     12 CL   UNL d   1     -41.133-122.504 -50.192  0.00  0.00    -0.082 Cl
ATOM     13  C   UNL d   1     -41.123-123.808 -51.213  0.00  0.00     0.002 C 
ENDROOT
BRANCH   1  14
ATOM     14  C   UNL d   1     -41.749-122.563 -54.755  0.00  0.00     0.216 C 
ATOM     15  O   UNL d   1     -41.128-122.323 -55.247  0.00  0.00    -0.644 OA
ATOM     16  O   UNL d   1     -42.507-122.680 -55.076  0.00  0.00    -0.644 OA
ENDBRANCH   1  14
TORSDOF 1
ENDMDL
MODEL 3
REMARK VINA RESULT:      -4.7      2.170      3.075
REMARK  1 active torsions:
REMARK  status: ('A' for Active; 'I' for Inactive)
REMARK    1  A    between atoms: C_7  and  C_1 
ROOT
ATOM      1  C   UNL d   1     -41.725-122.380 -51.584  0.00  0.00     0.122 A 
ATOM      2  C   UNL d   1     -41.420-123.109 -52.786  0.00  0.00     0.057 A 
ATOM      3  C   UNL d   1     -41.601-122.441 -53.237  0.00  0.00     0.085 A 
ATOM      4  C   UNL d   1     -41.482-123.079 -51.964  0.00  0.00     0.204 A 
ATOM      5  N   UNL d   1     -41.845-121.744 -52.849  0.00  0.00    -0.244 NA
ATOM      6  C   UNL d   1     -41.542-122.463 -54.057  0.00  0.00     0.028 A 
ATOM      7  C   UNL d   1     -41.906-121.712 -52.035  0.00  0.00     0.108 A 
ATOM      8  C   UNL d   1     -41.180-123.801 -53.154  0.00  0.00     0.006 A 
ATOM      9  C   UNL d   1     -41.303-123.153 -54.419  0.00  0.00     0.059 A 
ATOM     10  C   UNL d   1     -41.123-123.817 -53.971  0.00  0.00     0.012 A 
ATOM     11  O   UNL d   1     -41.302-123.744 -51.516  0.00  0.00    -0.286 OA
ATOM     12 CL   UNL d   1     -41.239-123.187 -55.251  0.00  0.00    -0.082 Cl
ATOM     13  C   UNL d   1     -41.726-121.785 -54.515  0.00  0.00     0.002 C 
ENDROOT
BRANCH   1  14
ATOM     14  C   UNL d   1     -41.784-122.361 -50.753  0.00  0.00     0.216 C 
ATOM     15  O   UNL d   1     -41.123-122.189 -50.286  0.00  0.00    -0.644 OA
ATOM     16  O   UNL d   1     -42.515-122.518 -50.390  0.00  0.00    -0.644 OA
ENDBRANCH   1  14
TORSDOF 1
ENDMDL
MODEL 4
REMARK VINA RESULT:      -4.5      2.647      3.534
REMARK  1 active torsions:
REMARK  status: ('A' for Active; 'I' for Inactive)
REMARK    1  A    between atoms: C_7  and  C_1 
ROOT
ATOM      1  C   UNL d   1     -41.730-122.553 -51.284  0.00  0.00     0.122 A 
ATOM      2  C   UNL d   1     -42.382-122.591 -50.001  0.00  0.00     0.057 A 
ATOM      3  C   UNL d   1     -41.776-123.070 -49.708  0.00  0.00     0.085 A 
ATOM      4  C   UNL d   1     -42.359-122.334 -50.785  0.00  0.00     0.204 A 
ATOM      5  N   UNL d   1     -41.149-123.286 -50.213  0.00  0.00    -0.244 NA
ATOM      6  C   UNL d   1     -41.792-123.330 -48.927  0.00  0.00     0.028 A 
ATOM      7  C   UNL d   1     -41.125-123.032 -50.990  0.00  0.00     0.108 A 
ATOM      8  C   UNL d   1     -43.004-122.371 -49.516  0.00  0.00     0.006 A 
ATOM      9  C   UNL d   1     -42.413-123.109 -48.448  0.00  0.00     0.059 A 
ATOM     10  C   UNL d   1     -43.015-122.632 -48.740  0.00  0.00     0.012 A 
ATOM     11  O   UNL d   1     -42.962-121.857 -51.077  0.00  0.00    -0.286 OA
ATOM     12 CL   UNL d   1     -42.438-123.367 -47.655  0.00  0.00    -0.082 Cl
ATOM     13  C   UNL d   1     -41.178-123.816 -48.629  0.00  0.00     0.002 C 
ENDROOT
BRANCH   1  14
ATOM     14  C   UNL d   1     -41.718-122.288 -52.073  0.00  0.00     0.216 C 
ATOM     15  O   UNL d   1     -41.998-122.769 -52.686  0.00  0.00    -0.644 OA
ATOM     16  O   UNL d   1     -41.421-121.531 -52.247  0.00  0.00    -0.644 OA
ENDBRANCH   1  14
TORSDOF 1
ENDMDL
MODEL 5
REMARK VINA RESULT:      -3.9      2.850      3.990
REMARK  1 active torsions:
REMARK  status: ('A' for Active; 'I' for Inactive)
REMARK    1  A    between atoms: C_7  and  C_1 
ROOT
ATOM      1  C   UNL d   1     -42.018-123.049 -50.006  0.00  0.00     0.122 A 
ATOM      2  C   UNL d   1     -41.774-122.355 -51.243  0.00  0.00     0.057 A 
ATOM      3  C   UNL d   1     -41.581-123.072 -51.606  0.00  0.00     0.085 A 
ATOM      4  C   UNL d   1     -41.991-122.344 -50.447  0.00  0.00     0.204 A 
ATOM      5  N   UNL d   1     -41.610-123.774 -51.158  0.00  0.00    -0.244 NA
ATOM      6  C   UNL d   1     -41.364-123.091 -52.400  0.00  0.00     0.028 A 
ATOM      7  C   UNL d   1     -41.825-123.766 -50.370  0.00  0.00     0.108 A 
ATOM      8  C   UNL d   1     -41.750-121.657 -51.671  0.00  0.00     0.006 A 
ATOM      9  C   UNL d   1     -41.342-122.394 -52.822  0.00  0.00     0.059 A 
ATOM     10  C   UNL d   1     -41.533-121.682 -52.460  0.00  0.00     0.012 A 
ATOM     11  O   UNL d   1     -42.183-121.631 -50.085  0.00  0.00    -0.286 OA
ATOM     12 CL   UNL d   1     -41.123-122.402 -53.627  0.00  0.00    -0.082 Cl
ATOM     13  C   UNL d   1     -41.169-123.817 -52.769  0.00  0.00     0.002 C 
ENDROOT
BRANCH   1  14
ATOM     14  C   UNL d   1     -42.238-123.026 -49.203  0.00  0.00     0.216 C 
ATOM     15  O   UNL d   1     -43.033-122.942 -48.984  0.00  0.00    -0.644 OA
ATOM     16  O   UNL d   1     -41.653-123.086 -48.615  0.00  0.00    -0.644 OA
ENDBRANCH   1  14
TORSDOF 1
ENDMDL
MODEL 6
REMARK VINA RESULT:      -3.0      4.074      5.270
REMARK  1 active torsions:
REMARK  status: ('A' for Active; 'I' for Inactive)
REMARK    1  A    between atoms: C_7  and  C_1 
ROOT
ATOM      1  C   UNL d   1     -42.397-123.116 -48.058  0.00  0.00     0.122 A 
ATOM      2  C   UNL d   1     -41.750-123.252 -49.336  0.00  0.00     0.057 A 
ATOM      3  C   UNL d   1     -42.364-122.828 -49.692  0.00  0.00     0.085 A 
ATOM      4  C   UNL d   1     -41.766-123.395 -48.524  0.00  0.00     0.204 A 
ATOM      5  N   UNL d   1     -42.992-122.551 -49.219  0.00  0.00    -0.244 NA
ATOM      6  C   UNL d   1     -42.355-122.681 -50.501  0.00  0.00     0.028 A 
ATOM      7  C   UNL d   1     -43.010-122.692 -48.414  0.00  0.00     0.108 A 
ATOM      8  C   UNL d   1     -41.127-123.531 -49.789  0.00  0.00     0.006 A 
ATOM      9  C   UNL d   1     -41.732-122.960 -50.948  0.00  0.00     0.059 A 
ATOM     10  C   UNL d   1     -41.123-123.382 -50.595  0.00  0.00     0.012 A 
ATOM     11  O   UNL d   1     -41.156-123.817 -48.171  0.00  0.00    -0.286 OA
ATOM     12 CL   UNL d   1     -41.713-122.817 -51.770  0.00  0.00    -0.082 Cl
ATOM     13  C   UNL d   1     -42.977-122.251 -50.862  0.00  0.00     0.002 C 
ENDROOT
BRANCH   1  14
ATOM     14  C   UNL d   1     -42.402-123.266 -47.239  0.00  0.00     0.216 C 
ATOM     15  O   UNL d   1     -41.873-122.879 -46.733  0.00  0.00    -0.644 OA
ATOM     16  O   UNL d   1     -42.946-123.812 -46.926  0.00  0.00    -0.644 OA
ENDBRANCH   1  14
TORSDOF 1
ENDMDL
