MODEL 1
REMARK VINA RESULT:      -2.4      0.000      0.000
REMARK  5 active torsions:
REMARK  status: ('A' for Active; 'I' for Inactive)
REMARK    1  A    between atoms: C_7  and  N_1 
REMARK    2  A    between atoms: C_15  and  C_3 
REMARK    3  A    between atoms: N_4  and  C_8 
REMARK    4  A    between atoms: C_10  and  C_11 
REMARK       I    between atoms: C_11  and  N_12 
REMARK    5  A    between atoms: N_12  and  C_15 
ROOT
ATOM      1  C   UNL d   1      33.117  20.823 -22.756  0.00  0.00     0.141 C 
ENDROOT
BRANCH   1   2
ATOM      2  N   UNL d   1      32.976  20.260 -23.342  0.00  0.00    -0.203 NA
ATOM      3  C   UNL d   1      33.041  19.455 -23.156  0.00  0.00     0.279 C 
ATOM      4  O   UNL d   1      33.239  19.228 -22.408  0.00  0.00    -0.265 OA
BRANCH   3   5
ATOM      5  C   UNL d   1      32.898  18.893 -23.749  0.00  0.00     0.059 A 
ATOM      6  C   UNL d   1      32.418  18.242 -23.586  0.00  0.00     0.027 A 
ATOM      7  C   UNL d   1      32.280  17.695 -24.166  0.00  0.00     0.127 A 
ATOM      8  C   UNL d   1      32.091  18.167 -22.836  0.00  0.00     0.002 C 
ATOM      9  C   UNL d   1      32.614  17.777 -24.923  0.00  0.00     0.024 A 
ATOM     10  C   UNL d   1      33.093  18.420 -25.095  0.00  0.00     0.002 A 
ATOM     11  C   UNL d   1      33.233  18.971 -24.515  0.00  0.00     0.005 A 
BRANCH   7  12
ATOM     12  N   UNL d   1      31.803  17.055 -23.993  0.00  0.00    -0.114 N 
ATOM     13  O   UNL d   1      31.986  16.546 -23.371  0.00  0.00    -0.532 OA
ATOM     14  O   UNL d   1      31.123  16.911 -24.448  0.00  0.00    -0.532 OA
ENDBRANCH   7  12
ENDBRANCH   3   5
ENDBRANCH   1   2
BRANCH   1  15
ATOM     15  C   UNL d   1      33.091  21.627 -22.942  0.00  0.00     0.191 A 
ATOM     16  N   UNL d   1      32.918  22.244 -22.431  0.00  0.00    -0.264 N 
ATOM     17  C   UNL d   1      32.952  22.950 -22.839  0.00  0.00     0.227 A 
ATOM     18  N   UNL d   1      33.152  22.776 -23.630  0.00  0.00    -0.117 NA
ATOM     19  S   UNL d   1      32.816  23.700 -22.538  0.00  0.00    -0.036 SA
ATOM     20  N   UNL d   1      33.239  21.952 -23.693  0.00  0.00    -0.126 NA
BRANCH  16  21
ATOM     21  C   UNL d   1      32.736  22.163 -21.627  0.00  0.00     0.068 A 
ATOM     22  C   UNL d   1      33.065  22.685 -21.089  0.00  0.00     0.018 A 
ATOM     23  C   UNL d   1      32.881  22.600 -20.288  0.00  0.00     0.001 A 
ATOM     24  C   UNL d   1      33.206  23.120 -19.729  0.00  0.00     0.000 C 
ATOM     25  C   UNL d   1      32.370  21.994 -20.031  0.00  0.00     0.000 A 
ATOM     26  C   UNL d   1      32.056  21.488 -20.586  0.00  0.00     0.002 A 
ATOM     27  C   UNL d   1      32.229  21.559 -21.388  0.00  0.00     0.018 A 
ENDBRANCH  16  21
ENDBRANCH   1  15
TORSDOF 5
ENDMDL
MODEL 2
REMARK VINA RESULT:      -1.9      2.171      5.169
REMARK  5 active torsions:
REMARK  status: ('A' for Active; 'I' for Inactive)
REMARK    1  A    between atoms: C_7  and  N_1 
REMARK    2  A    between atoms: C_15  and  C_3 
REMARK    3  A    between atoms: N_4  and  C_8 
REMARK    4  A    between atoms: C_10  and  C_11 
REMARK       I    between atoms: C_11  and  N_12 
REMARK    5  A    between atoms: N_12  and  C_15 
ROOT
ATOM      1  C   UNL d   1      32.459  18.684 -24.038  0.00  0.00     0.141 C 
ENDROOT
BRANCH   1   2
ATOM      2  N   UNL d   1      32.545  19.487 -23.875  0.00  0.00    -0.203 NA
ATOM      3  C   UNL d   1      32.926  19.722 -23.178  0.00  0.00     0.279 C 
ATOM      4  O   UNL d   1      33.209  19.167 -22.666  0.00  0.00    -0.265 OA
BRANCH   3   5
ATOM      5  C   UNL d   1      33.011  20.532 -23.019  0.00  0.00     0.059 A 
ATOM      6  C   UNL d   1      32.951  20.802 -22.241  0.00  0.00     0.027 A 
ATOM      7  C   UNL d   1      33.034  21.592 -22.088  0.00  0.00     0.127 A 
ATOM      8  C   UNL d   1      32.810  20.259 -21.641  0.00  0.00     0.002 C 
ATOM      9  C   UNL d   1      33.177  22.136 -22.701  0.00  0.00     0.024 A 
ATOM     10  C   UNL d   1      33.237  21.877 -23.477  0.00  0.00     0.002 A 
ATOM     11  C   UNL d   1      33.155  21.084 -23.633  0.00  0.00     0.005 A 
BRANCH   7  12
ATOM     12  N   UNL d   1      32.973  21.849 -21.316  0.00  0.00    -0.114 N 
ATOM     13  O   UNL d   1      32.825  21.317 -20.703  0.00  0.00    -0.532 OA
ATOM     14  O   UNL d   1      33.062  22.655 -21.140  0.00  0.00    -0.532 OA
ENDBRANCH   7  12
ENDBRANCH   3   5
ENDBRANCH   1   2
BRANCH   1  15
ATOM     15  C   UNL d   1      31.762  18.404 -24.381  0.00  0.00     0.191 A 
ATOM     16  N   UNL d   1      31.559  17.622 -24.517  0.00  0.00    -0.264 N 
ATOM     17  C   UNL d   1      30.822  17.591 -24.867  0.00  0.00     0.227 A 
ATOM     18  N   UNL d   1      30.551  18.374 -24.955  0.00  0.00    -0.117 NA
ATOM     19  S   UNL d   1      30.414  16.918 -25.095  0.00  0.00    -0.036 SA
ATOM     20  N   UNL d   1      31.136  18.881 -24.652  0.00  0.00    -0.126 NA
BRANCH  16  21
ATOM     21  C   UNL d   1      32.029  16.967 -24.329  0.00  0.00     0.068 A 
ATOM     22  C   UNL d   1      31.891  16.565 -23.629  0.00  0.00     0.018 A 
ATOM     23  C   UNL d   1      32.363  15.911 -23.445  0.00  0.00     0.001 A 
ATOM     24  C   UNL d   1      32.237  15.493 -22.741  0.00  0.00     0.000 C 
ATOM     25  C   UNL d   1      32.968  15.666 -23.962  0.00  0.00     0.000 A 
ATOM     26  C   UNL d   1      33.086  16.083 -24.652  0.00  0.00     0.002 A 
ATOM     27  C   UNL d   1      32.624  16.735 -24.850  0.00  0.00     0.018 A 
ENDBRANCH  16  21
ENDBRANCH   1  15
TORSDOF 5
ENDMDL
MODEL 3
REMARK VINA RESULT:      -0.5      1.433      2.058
REMARK  5 active torsions:
REMARK  status: ('A' for Active; 'I' for Inactive)
REMARK    1  A    between atoms: C_7  and  N_1 
REMARK    2  A    between atoms: C_15  and  C_3 
REMARK    3  A    between atoms: N_4  and  C_8 
REMARK    4  A    between atoms: C_10  and  C_11 
REMARK       I    between atoms: C_11  and  N_12 
REMARK    5  A    between atoms: N_12  and  C_15 
ROOT
ATOM      1  C   UNL d   1      32.747  19.908 -22.870  0.00  0.00     0.141 C 
ENDROOT
BRANCH   1   2
ATOM      2  N   UNL d   1      32.897  19.202 -23.269  0.00  0.00    -0.203 NA
ATOM      3  C   UNL d   1      32.286  18.836 -23.692  0.00  0.00     0.279 C 
ATOM      4  O   UNL d   1      31.552  19.170 -23.711  0.00  0.00    -0.265 OA
BRANCH   3   5
ATOM      5  C   UNL d   1      32.442  18.127 -24.092  0.00  0.00     0.059 A 
ATOM      6  C   UNL d   1      31.955  17.473 -23.967  0.00  0.00     0.027 A 
ATOM      7  C   UNL d   1      32.109  16.782 -24.358  0.00  0.00     0.127 A 
ATOM      8  C   UNL d   1      31.323  17.542 -23.446  0.00  0.00     0.002 C 
ATOM      9  C   UNL d   1      32.751  16.719 -24.884  0.00  0.00     0.024 A 
ATOM     10  C   UNL d   1      33.241  17.363 -25.016  0.00  0.00     0.002 A 
ATOM     11  C   UNL d   1      33.088  18.059 -24.624  0.00  0.00     0.005 A 
BRANCH   7  12
ATOM     12  N   UNL d   1      31.621  16.141 -24.226  0.00  0.00    -0.114 N 
ATOM     13  O   UNL d   1      31.760  15.624 -23.599  0.00  0.00    -0.532 OA
ATOM     14  O   UNL d   1      30.974  16.004 -24.729  0.00  0.00    -0.532 OA
ENDBRANCH   7  12
ENDBRANCH   3   5
ENDBRANCH   1   2
BRANCH   1  15
ATOM     15  C   UNL d   1      32.922  19.972 -22.066  0.00  0.00     0.191 A 
ATOM     16  N   UNL d   1      32.959  20.661 -21.624  0.00  0.00    -0.264 N 
ATOM     17  C   UNL d   1      33.149  20.476 -20.852  0.00  0.00     0.227 A 
ATOM     18  N   UNL d   1      33.234  19.649 -20.803  0.00  0.00    -0.117 NA
ATOM     19  S   UNL d   1      33.241  21.001 -20.229  0.00  0.00    -0.036 SA
ATOM     20  N   UNL d   1      33.093  19.334 -21.559  0.00  0.00    -0.126 NA
BRANCH  16  21
ATOM     21  C   UNL d   1      32.825  21.424 -21.916  0.00  0.00     0.068 A 
ATOM     22  C   UNL d   1      33.096  21.618 -22.663  0.00  0.00     0.018 A 
ATOM     23  C   UNL d   1      32.960  22.382 -22.951  0.00  0.00     0.001 A 
ATOM     24  C   UNL d   1      33.229  22.596 -23.706  0.00  0.00     0.000 C 
ATOM     25  C   UNL d   1      32.554  22.943 -22.489  0.00  0.00     0.000 A 
ATOM     26  C   UNL d   1      32.293  22.725 -21.749  0.00  0.00     0.002 A 
ATOM     27  C   UNL d   1      32.421  21.969 -21.448  0.00  0.00     0.018 A 
ENDBRANCH  16  21
ENDBRANCH   1  15
TORSDOF 5
ENDMDL
MODEL 4
REMARK VINA RESULT:       0.2      3.712      5.659
REMARK  5 active torsions:
REMARK  status: ('A' for Active; 'I' for Inactive)
REMARK    1  A    between atoms: C_7  and  N_1 
REMARK    2  A    between atoms: C_15  and  C_3 
REMARK    3  A    between atoms: N_4  and  C_8 
REMARK    4  A    between atoms: C_10  and  C_11 
REMARK       I    between atoms: C_11  and  N_12 
REMARK    5  A    between atoms: N_12  and  C_15 
ROOT
ATOM      1  C   UNL d   1      30.501  16.876 -24.290  0.00  0.00     0.141 C 
ENDROOT
BRANCH   1   2
ATOM      2  N   UNL d   1      29.974  16.460 -23.812  0.00  0.00    -0.203 NA
ATOM      3  C   UNL d   1      29.187  16.715 -23.757  0.00  0.00     0.279 C 
ATOM      4  O   UNL d   1      28.944  17.364 -24.169  0.00  0.00    -0.265 OA
BRANCH   3   5
ATOM      5  C   UNL d   1      28.661  16.293 -23.275  0.00  0.00     0.059 A 
ATOM      6  C   UNL d   1      27.866  16.238 -23.492  0.00  0.00     0.027 A 
ATOM      7  C   UNL d   1      27.354  15.825 -23.020  0.00  0.00     0.127 A 
ATOM      8  C   UNL d   1      27.616  16.604 -24.183  0.00  0.00     0.002 C 
ATOM      9  C   UNL d   1      27.615  15.456 -22.321  0.00  0.00     0.024 A 
ATOM     10  C   UNL d   1      28.402  15.506 -22.098  0.00  0.00     0.002 A 
ATOM     11  C   UNL d   1      28.919  15.919 -22.569  0.00  0.00     0.005 A 
BRANCH   7  12
ATOM     12  N   UNL d   1      26.570  15.777 -23.243  0.00  0.00    -0.114 N 
ATOM     13  O   UNL d   1      26.357  15.457 -23.973  0.00  0.00    -0.532 OA
ATOM     14  O   UNL d   1      25.977  16.052 -22.733  0.00  0.00    -0.532 OA
ENDBRANCH   7  12
ENDBRANCH   3   5
ENDBRANCH   1   2
BRANCH   1  15
ATOM     15  C   UNL d   1      31.180  16.504 -24.577  0.00  0.00     0.191 A 
ATOM     16  N   UNL d   1      31.932  16.825 -24.633  0.00  0.00    -0.264 N 
ATOM     17  C   UNL d   1      32.440  16.269 -24.947  0.00  0.00     0.227 A 
ATOM     18  N   UNL d   1      31.999  15.578 -25.095  0.00  0.00    -0.117 NA
ATOM     19  S   UNL d   1      33.241  16.363 -25.095  0.00  0.00    -0.036 SA
ATOM     20  N   UNL d   1      31.214  15.723 -24.865  0.00  0.00    -0.126 NA
BRANCH  16  21
ATOM     21  C   UNL d   1      32.141  17.593 -24.405  0.00  0.00     0.068 A 
ATOM     22  C   UNL d   1      32.336  17.738 -23.623  0.00  0.00     0.018 A 
ATOM     23  C   UNL d   1      32.545  18.507 -23.400  0.00  0.00     0.001 A 
ATOM     24  C   UNL d   1      32.745  18.671 -22.613  0.00  0.00     0.000 C 
ATOM     25  C   UNL d   1      32.556  19.123 -23.961  0.00  0.00     0.000 A 
ATOM     26  C   UNL d   1      32.358  18.953 -24.732  0.00  0.00     0.002 A 
ATOM     27  C   UNL d   1      32.148  18.193 -24.970  0.00  0.00     0.018 A 
ENDBRANCH  16  21
ENDBRANCH   1  15
TORSDOF 5
ENDMDL
