MODEL 1
REMARK VINA RESULT:      57.3      0.000      0.000
REMARK  5 active torsions:
REMARK  status: ('A' for Active; 'I' for Inactive)
REMARK    1  A    between atoms: C_4  and  S_1 
REMARK    2  A    between atoms: N_5  and  S_1 
REMARK    3  A    between atoms: C_2  and  C_8 
REMARK       I    between atoms: N_3  and  C_2 
REMARK    4  A    between atoms: C_16  and  N_5 
REMARK    5  A    between atoms: C_17  and  N_5 
ROOT
ATOM      1  C   UNL d   1     -50.768  26.039  33.697  0.00  0.00     0.104 A 
ATOM      2  C   UNL d   1     -49.866  27.409  33.892  0.00  0.00     0.057 A 
ATOM      3  C   UNL d   1     -51.016  26.752  33.356  0.00  0.00     0.013 A 
ATOM      4  C   UNL d   1     -50.070  26.010  34.133  0.00  0.00     0.013 A 
ATOM      5  C   UNL d   1     -50.566  27.434  33.454  0.00  0.00     0.005 A 
ATOM      6  C   UNL d   1     -49.617  26.695  34.232  0.00  0.00     0.005 A 
ENDROOT
BRANCH   1   7
ATOM      7  S   UNL d   1     -51.224  25.352  33.596  0.00  0.00     0.271 S 
ATOM      8  O   UNL d   1     -50.545  24.778  33.541  0.00  0.00    -0.200 OA
ATOM      9  O   UNL d   1     -51.992  25.900  33.646  0.00  0.00    -0.200 OA
BRANCH   7  10
ATOM     10  N   UNL d   1     -51.675  24.673  33.497  0.00  0.00    -0.229 N 
BRANCH  10  11
ATOM     11  C   UNL d   1     -52.499  24.714  33.574  0.00  0.00     0.092 C 
ATOM     12  C   UNL d   1     -52.931  24.032  33.743  0.00  0.00     0.021 C 
ENDBRANCH  10  11
BRANCH  10  13
ATOM     13  C   UNL d   1     -51.317  23.951  33.322  0.00  0.00     0.092 C 
ATOM     14  C   UNL d   1     -51.772  23.261  33.325  0.00  0.00     0.021 C 
ENDBRANCH  10  13
ENDBRANCH   7  10
ENDBRANCH   1   7
BRANCH   2  15
ATOM     15  C   UNL d   1     -49.418  28.099  33.986  0.00  0.00     0.265 C 
ATOM     16  N   UNL d   1     -49.107  28.280  34.726  0.00  0.00    -0.272 N 
ATOM     17  C   UNL d   1     -49.243  27.778  35.366  0.00  0.00     0.083 A 
ATOM     18  C   UNL d   1     -48.661  28.965  34.827  0.00  0.00     0.083 A 
ATOM     19  C   UNL d   1     -48.932  27.960  36.107  0.00  0.00     0.019 A 
ATOM     20  C   UNL d   1     -48.486  28.644  36.207  0.00  0.00     0.003 A 
ATOM     21  C   UNL d   1     -48.351  29.147  35.567  0.00  0.00     0.019 A 
ATOM     22  O   UNL d   1     -49.284  28.599  33.343  0.00  0.00    -0.267 OA
ENDBRANCH   2  15
TORSDOF 5
ENDMDL
MODEL 2
REMARK VINA RESULT:      59.5      1.252      4.620
REMARK  5 active torsions:
REMARK  status: ('A' for Active; 'I' for Inactive)
REMARK    1  A    between atoms: C_4  and  S_1 
REMARK    2  A    between atoms: N_5  and  S_1 
REMARK    3  A    between atoms: C_2  and  C_8 
REMARK       I    between atoms: N_3  and  C_2 
REMARK    4  A    between atoms: C_16  and  N_5 
REMARK    5  A    between atoms: C_17  and  N_5 
ROOT
ATOM      1  C   UNL d   1     -49.689  27.770  34.104  0.00  0.00     0.104 A 
ATOM      2  C   UNL d   1     -50.873  26.689  33.706  0.00  0.00     0.057 A 
ATOM      3  C   UNL d   1     -49.743  27.046  34.504  0.00  0.00     0.013 A 
ATOM      4  C   UNL d   1     -50.226  27.953  33.507  0.00  0.00     0.013 A 
ATOM      5  C   UNL d   1     -50.333  26.508  34.305  0.00  0.00     0.005 A 
ATOM      6  C   UNL d   1     -50.820  27.413  33.306  0.00  0.00     0.005 A 
ENDROOT
BRANCH   1   7
ATOM      7  S   UNL d   1     -49.092  28.311  34.307  0.00  0.00     0.271 S 
ATOM      8  O   UNL d   1     -49.587  29.049  34.238  0.00  0.00    -0.200 OA
ATOM      9  O   UNL d   1     -48.508  27.574  34.399  0.00  0.00    -0.200 OA
BRANCH   7  10
ATOM     10  N   UNL d   1     -48.503  28.846  34.507  0.00  0.00    -0.229 N 
BRANCH  10  11
ATOM     11  C   UNL d   1     -48.621  29.654  34.374  0.00  0.00     0.092 C 
ATOM     12  C   UNL d   1     -48.050  30.199  34.615  0.00  0.00     0.021 C 
ENDBRANCH  10  11
BRANCH  10  13
ATOM     13  C   UNL d   1     -47.794  28.586  34.840  0.00  0.00     0.092 C 
ATOM     14  C   UNL d   1     -47.492  28.973  35.504  0.00  0.00     0.021 C 
ENDBRANCH  10  13
ENDBRANCH   7  10
ENDBRANCH   1   7
BRANCH   2  15
ATOM     15  C   UNL d   1     -51.465  26.143  33.512  0.00  0.00     0.265 C 
ATOM     16  N   UNL d   1     -51.286  25.339  33.509  0.00  0.00    -0.272 N 
ATOM     17  C   UNL d   1     -50.525  25.083  33.700  0.00  0.00     0.083 A 
ATOM     18  C   UNL d   1     -51.870  24.791  33.317  0.00  0.00     0.083 A 
ATOM     19  C   UNL d   1     -50.348  24.279  33.697  0.00  0.00     0.019 A 
ATOM     20  C   UNL d   1     -50.931  23.731  33.505  0.00  0.00     0.003 A 
ATOM     21  C   UNL d   1     -51.692  23.987  33.314  0.00  0.00     0.019 A 
ATOM     22  O   UNL d   1     -52.225  26.402  33.322  0.00  0.00    -0.267 OA
ENDBRANCH   2  15
TORSDOF 5
ENDMDL
