MODEL 1
REMARK VINA RESULT:      -5.4      0.000      0.000
REMARK  2 active torsions:
REMARK  status: ('A' for Active; 'I' for Inactive)
REMARK    1  A    between atoms: N_2  and  S_1 
REMARK    2  A    between atoms: C_3  and  S_1 
ROOT
ATOM      1  S   UNL d   1      57.416  -0.038  31.436  0.00  0.00     0.287 S 
ATOM      2  O   UNL d   1      57.612  -0.037  32.237  0.00  0.00    -0.198 OA
ATOM      3  O   UNL d   1      56.629  -0.203  31.205  0.00  0.00    -0.198 OA
ENDROOT
BRANCH   1   4
ATOM      4  N   UNL d   1      57.995   0.125  30.857  0.00  0.00    -0.152 N 
ATOM      5  N   UNL d   1      57.855  -0.075  30.058  0.00  0.00    -0.155 NA
ATOM      6  C   UNL d   1      58.436   0.088  29.478  0.00  0.00     0.104 A 
ATOM      7  C   UNL d   1      58.491  -0.030  28.643  0.00  0.00     0.022 C 
ATOM      8  C   UNL d   1      59.288   0.645  30.490  0.00  0.00     0.041 A 
ATOM      9  C   UNL d   1      58.708   0.482  31.069  0.00  0.00     0.096 A 
ATOM     10  C   UNL d   1      58.848   0.682  31.868  0.00  0.00     0.022 C 
ENDBRANCH   1   4
BRANCH   1  11
ATOM     11  C   UNL d   1      56.573  -0.274  32.277  0.00  0.00     0.117 A 
ATOM     12  C   UNL d   1      56.268   0.275  32.730  0.00  0.00     0.025 A 
ATOM     13  C   UNL d   1      55.727   0.086  33.261  0.00  0.00     0.059 A 
ATOM     14 CL   UNL d   1      55.396   0.682  33.754  0.00  0.00    -0.082 Cl
ATOM     15  C   UNL d   1      55.502  -0.655  33.327  0.00  0.00     0.012 A 
ATOM     16  C   UNL d   1      55.806  -1.206  32.873  0.00  0.00     0.013 A 
ATOM     17  C   UNL d   1      56.346  -1.014  32.344  0.00  0.00     0.070 A 
ATOM     18 CL   UNL d   1      56.675  -1.604  31.855  0.00  0.00    -0.082 Cl
ENDBRANCH   1  11
TORSDOF 2
ENDMDL
MODEL 2
REMARK VINA RESULT:      -4.7      1.578      3.766
REMARK  2 active torsions:
REMARK  status: ('A' for Active; 'I' for Inactive)
REMARK    1  A    between atoms: N_2  and  S_1 
REMARK    2  A    between atoms: C_3  and  S_1 
ROOT
ATOM      1  S   UNL d   1      56.852  -0.066  32.060  0.00  0.00     0.287 S 
ATOM      2  O   UNL d   1      56.842   0.635  31.627  0.00  0.00    -0.198 OA
ATOM      3  O   UNL d   1      57.471  -0.615  31.941  0.00  0.00    -0.198 OA
ENDROOT
BRANCH   1   4
ATOM      4  N   UNL d   1      56.250  -0.230  32.615  0.00  0.00    -0.152 N 
ATOM      5  N   UNL d   1      55.951   0.382  33.099  0.00  0.00    -0.155 NA
ATOM      6  C   UNL d   1      55.348   0.219  33.655  0.00  0.00     0.104 A 
ATOM      7  C   UNL d   1      54.921   0.679  34.221  0.00  0.00     0.022 C 
ATOM      8  C   UNL d   1      55.345  -1.157  33.246  0.00  0.00     0.041 A 
ATOM      9  C   UNL d   1      55.947  -0.993  32.691  0.00  0.00     0.096 A 
ATOM     10  C   UNL d   1      56.247  -1.605  32.207  0.00  0.00     0.022 C 
ENDBRANCH   1   4
BRANCH   1  11
ATOM     11  C   UNL d   1      57.728   0.171  31.253  0.00  0.00     0.117 A 
ATOM     12  C   UNL d   1      57.658   0.005  30.500  0.00  0.00     0.025 A 
ATOM     13  C   UNL d   1      58.243   0.172  30.009  0.00  0.00     0.059 A 
ATOM     14 CL   UNL d   1      58.169  -0.008  29.191  0.00  0.00    -0.082 Cl
ATOM     15  C   UNL d   1      58.888   0.505  30.286  0.00  0.00     0.012 A 
ATOM     16  C   UNL d   1      58.959   0.672  31.041  0.00  0.00     0.013 A 
ATOM     17  C   UNL d   1      58.373   0.504  31.528  0.00  0.00     0.070 A 
ATOM     18 CL   UNL d   1      58.446   0.682  32.339  0.00  0.00    -0.082 Cl
ENDBRANCH   1  11
TORSDOF 2
ENDMDL
MODEL 3
REMARK VINA RESULT:      -4.4      1.384      1.964
REMARK  2 active torsions:
REMARK  status: ('A' for Active; 'I' for Inactive)
REMARK    1  A    between atoms: N_2  and  S_1 
REMARK    2  A    between atoms: C_3  and  S_1 
ROOT
ATOM      1  S   UNL d   1      56.548  -0.001  32.413  0.00  0.00     0.287 S 
ATOM      2  O   UNL d   1      56.584  -0.488  33.077  0.00  0.00    -0.198 OA
ATOM      3  O   UNL d   1      56.066   0.682  32.427  0.00  0.00    -0.198 OA
ENDROOT
BRANCH   1   4
ATOM      4  N   UNL d   1      56.990  -0.185  31.728  0.00  0.00    -0.152 N 
ATOM      5  N   UNL d   1      57.403   0.418  31.323  0.00  0.00    -0.155 NA
ATOM      6  C   UNL d   1      57.846   0.233  30.638  0.00  0.00     0.104 A 
ATOM      7  C   UNL d   1      58.320   0.679  30.098  0.00  0.00     0.022 C 
ATOM      8  C   UNL d   1      57.465  -1.145  30.763  0.00  0.00     0.041 A 
ATOM      9  C   UNL d   1      57.022  -0.960  31.448  0.00  0.00     0.096 A 
ATOM     10  C   UNL d   1      56.609  -1.563  31.854  0.00  0.00     0.022 C 
ENDBRANCH   1   4
BRANCH   1  11
ATOM     11  C   UNL d   1      55.906   0.268  33.407  0.00  0.00     0.117 A 
ATOM     12  C   UNL d   1      55.134   0.215  33.433  0.00  0.00     0.025 A 
ATOM     13  C   UNL d   1      54.753   0.396  34.091  0.00  0.00     0.059 A 
ATOM     14 CL   UNL d   1      53.914   0.339  34.121  0.00  0.00    -0.082 Cl
ATOM     15  C   UNL d   1      55.158   0.628  34.713  0.00  0.00     0.012 A 
ATOM     16  C   UNL d   1      55.932   0.681  34.688  0.00  0.00     0.013 A 
ATOM     17  C   UNL d   1      56.308   0.499  34.029  0.00  0.00     0.070 A 
ATOM     18 CL   UNL d   1      57.140   0.556  33.999  0.00  0.00    -0.082 Cl
ENDBRANCH   1  11
TORSDOF 2
ENDMDL
MODEL 4
REMARK VINA RESULT:      -4.3      1.222      1.756
REMARK  2 active torsions:
REMARK  status: ('A' for Active; 'I' for Inactive)
REMARK    1  A    between atoms: N_2  and  S_1 
REMARK    2  A    between atoms: C_3  and  S_1 
ROOT
ATOM      1  S   UNL d   1      57.895  -0.505  30.686  0.00  0.00     0.287 S 
ATOM      2  O   UNL d   1      58.161  -0.851  31.386  0.00  0.00    -0.198 OA
ATOM      3  O   UNL d   1      57.156  -0.114  30.674  0.00  0.00    -0.198 OA
ENDROOT
BRANCH   1   4
ATOM      4  N   UNL d   1      58.359  -0.543  29.993  0.00  0.00    -0.152 N 
ATOM      5  N   UNL d   1      58.713   0.151  29.688  0.00  0.00    -0.155 NA
ATOM      6  C   UNL d   1      59.177   0.113  28.994  0.00  0.00     0.104 A 
ATOM      7  C   UNL d   1      59.608   0.678  28.536  0.00  0.00     0.022 C 
ATOM      8  C   UNL d   1      58.935  -1.299  28.910  0.00  0.00     0.041 A 
ATOM      9  C   UNL d   1      58.471  -1.261  29.604  0.00  0.00     0.096 A 
ATOM     10  C   UNL d   1      58.117  -1.954  29.908  0.00  0.00     0.022 C 
ENDBRANCH   1   4
BRANCH   1  11
ATOM     11  C   UNL d   1      57.221  -0.449  31.694  0.00  0.00     0.117 A 
ATOM     12  C   UNL d   1      56.661  -0.961  31.851  0.00  0.00     0.025 A 
ATOM     13  C   UNL d   1      56.247  -0.895  32.511  0.00  0.00     0.059 A 
ATOM     14 CL   UNL d   1      55.639  -1.450  32.683  0.00  0.00    -0.082 Cl
ATOM     15  C   UNL d   1      56.404  -0.313  33.001  0.00  0.00     0.012 A 
ATOM     16  C   UNL d   1      56.964   0.201  32.844  0.00  0.00     0.013 A 
ATOM     17  C   UNL d   1      57.376   0.132  32.185  0.00  0.00     0.070 A 
ATOM     18 CL   UNL d   1      57.979   0.682  32.014  0.00  0.00    -0.082 Cl
ENDBRANCH   1  11
TORSDOF 2
ENDMDL
MODEL 5
REMARK VINA RESULT:      -4.0      2.010      3.687
REMARK  2 active torsions:
REMARK  status: ('A' for Active; 'I' for Inactive)
REMARK    1  A    between atoms: N_2  and  S_1 
REMARK    2  A    between atoms: C_3  and  S_1 
ROOT
ATOM      1  S   UNL d   1      56.454   0.159  33.096  0.00  0.00     0.287 S 
ATOM      2  O   UNL d   1      57.023  -0.437  33.082  0.00  0.00    -0.198 OA
ATOM      3  O   UNL d   1      56.275   0.575  32.393  0.00  0.00    -0.198 OA
ENDROOT
BRANCH   1   4
ATOM      4  N   UNL d   1      56.056   0.349  33.805  0.00  0.00    -0.152 N 
ATOM      5  N   UNL d   1      55.222   0.394  33.818  0.00  0.00    -0.155 NA
ATOM      6  C   UNL d   1      54.824   0.584  34.528  0.00  0.00     0.104 A 
ATOM      7  C   UNL d   1      54.013   0.678  34.748  0.00  0.00     0.022 C 
ATOM      8  C   UNL d   1      56.084   0.682  35.207  0.00  0.00     0.041 A 
ATOM      9  C   UNL d   1      56.482   0.492  34.497  0.00  0.00     0.096 A 
ATOM     10  C   UNL d   1      57.317   0.447  34.485  0.00  0.00     0.022 C 
ENDBRANCH   1   4
BRANCH   1  11
ATOM     11  C   UNL d   1      57.031  -0.116  32.064  0.00  0.00     0.117 A 
ATOM     12  C   UNL d   1      57.530   0.368  31.722  0.00  0.00     0.025 A 
ATOM     13  C   UNL d   1      57.884   0.157  31.057  0.00  0.00     0.059 A 
ATOM     14 CL   UNL d   1      58.425   0.682  30.685  0.00  0.00    -0.082 Cl
ATOM     15  C   UNL d   1      57.729  -0.540  30.749  0.00  0.00     0.012 A 
ATOM     16  C   UNL d   1      57.230  -1.026  31.092  0.00  0.00     0.013 A 
ATOM     17  C   UNL d   1      56.878  -0.811  31.754  0.00  0.00     0.070 A 
ATOM     18 CL   UNL d   1      56.341  -1.331  32.125  0.00  0.00    -0.082 Cl
ENDBRANCH   1  11
TORSDOF 2
ENDMDL
MODEL 6
REMARK VINA RESULT:      -3.0      9.698      9.853
REMARK  2 active torsions:
REMARK  status: ('A' for Active; 'I' for Inactive)
REMARK    1  A    between atoms: N_2  and  S_1 
REMARK    2  A    between atoms: C_3  and  S_1 
ROOT
ATOM      1  S   UNL d   1      59.644  -9.285  33.359  0.00  0.00     0.287 S 
ATOM      2  O   UNL d   1      59.304  -8.625  33.719  0.00  0.00    -0.198 OA
ATOM      3  O   UNL d   1      60.103  -9.813  33.815  0.00  0.00    -0.198 OA
ENDROOT
BRANCH   1   4
ATOM      4  N   UNL d   1      59.531  -9.426  32.544  0.00  0.00    -0.152 N 
ATOM      5  N   UNL d   1      58.760  -9.539  32.242  0.00  0.00    -0.155 NA
ATOM      6  C   UNL d   1      58.647  -9.681  31.426  0.00  0.00     0.104 A 
ATOM      7  C   UNL d   1      57.973  -9.817  30.934  0.00  0.00     0.022 C 
ATOM      8  C   UNL d   1      60.064  -9.598  31.215  0.00  0.00     0.041 A 
ATOM      9  C   UNL d   1      60.177  -9.456  32.031  0.00  0.00     0.096 A 
ATOM     10  C   UNL d   1      60.948  -9.343  32.334  0.00  0.00     0.022 C 
ENDBRANCH   1   4
BRANCH   1  11
ATOM     11  C   UNL d   1      59.807  -9.078  34.544  0.00  0.00     0.117 A 
ATOM     12  C   UNL d   1      60.406  -8.671  34.819  0.00  0.00     0.025 A 
ATOM     13  C   UNL d   1      60.480  -8.558  35.589  0.00  0.00     0.059 A 
ATOM     14 CL   UNL d   1      61.129  -8.116  35.888  0.00  0.00    -0.082 Cl
ATOM     15  C   UNL d   1      59.947  -8.859  36.069  0.00  0.00     0.012 A 
ATOM     16  C   UNL d   1      59.347  -9.267  35.795  0.00  0.00     0.013 A 
ATOM     17  C   UNL d   1      59.277  -9.378  35.026  0.00  0.00     0.070 A 
ATOM     18 CL   UNL d   1      58.633  -9.816  34.728  0.00  0.00    -0.082 Cl
ENDBRANCH   1  11
TORSDOF 2
ENDMDL
MODEL 7
REMARK VINA RESULT:      -2.6      2.922      4.009
REMARK  2 active torsions:
REMARK  status: ('A' for Active; 'I' for Inactive)
REMARK    1  A    between atoms: N_2  and  S_1 
REMARK    2  A    between atoms: C_3  and  S_1 
ROOT
ATOM      1  S   UNL d   1      59.021  -1.831  29.302  0.00  0.00     0.287 S 
ATOM      2  O   UNL d   1      59.396  -1.395  29.894  0.00  0.00    -0.198 OA
ATOM      3  O   UNL d   1      58.345  -1.517  28.924  0.00  0.00    -0.198 OA
ENDROOT
BRANCH   1   4
ATOM      4  N   UNL d   1      59.314  -2.581  29.080  0.00  0.00    -0.152 N 
ATOM      5  N   UNL d   1      60.100  -2.795  29.265  0.00  0.00    -0.155 NA
ATOM      6  C   UNL d   1      60.393  -3.545  29.042  0.00  0.00     0.104 A 
ATOM      7  C   UNL d   1      61.133  -3.944  29.131  0.00  0.00     0.022 C 
ATOM      8  C   UNL d   1      59.124  -3.866  28.455  0.00  0.00     0.041 A 
ATOM      9  C   UNL d   1      58.831  -3.115  28.677  0.00  0.00     0.096 A 
ATOM     10  C   UNL d   1      58.044  -2.901  28.492  0.00  0.00     0.022 C 
ENDBRANCH   1   4
BRANCH   1  11
ATOM     11  C   UNL d   1      58.597  -0.741  29.625  0.00  0.00     0.117 A 
ATOM     12  C   UNL d   1      58.123  -0.639  30.229  0.00  0.00     0.025 A 
ATOM     13  C   UNL d   1      57.869   0.079  30.409  0.00  0.00     0.059 A 
ATOM     14 CL   UNL d   1      57.355   0.191  31.064  0.00  0.00    -0.082 Cl
ATOM     15  C   UNL d   1      58.097   0.682  29.974  0.00  0.00     0.012 A 
ATOM     16  C   UNL d   1      58.572   0.581  29.368  0.00  0.00     0.013 A 
ATOM     17  C   UNL d   1      58.823  -0.137  29.193  0.00  0.00     0.070 A 
ATOM     18 CL   UNL d   1      59.333  -0.248  28.543  0.00  0.00    -0.082 Cl
ENDBRANCH   1  11
TORSDOF 2
ENDMDL
