MODEL 1
REMARK VINA RESULT:      -3.4      0.000      0.000
REMARK  4 active torsions:
REMARK  status: ('A' for Active; 'I' for Inactive)
REMARK    1  A    between atoms: S_9  and  C_2 
REMARK    2  A    between atoms: C_11  and  C_3 
REMARK    3  A    between atoms: C_7  and  C_10 
REMARK       I    between atoms: N_8  and  C_7 
REMARK    4  A    between atoms: C_10  and  S_9 
ROOT
ATOM      1  N   UNL d   1      58.679  -1.519  29.381  0.00  0.00    -0.220 NA
ATOM      2  C   UNL d   1      58.852  -0.739  29.553  0.00  0.00     0.114 A 
ATOM      3  C   UNL d   1      59.224  -1.990  28.981  0.00  0.00     0.163 A 
ATOM      4  N   UNL d   1      59.951  -1.671  28.751  0.00  0.00    -0.227 NA
ATOM      5  C   UNL d   1      59.578  -0.421  29.323  0.00  0.00     0.042 A 
ATOM      6  C   UNL d   1      60.132  -0.882  28.921  0.00  0.00     0.085 A 
ATOM      7  C   UNL d   1      59.755   0.367  29.495  0.00  0.00     0.004 A 
ATOM      8  C   UNL d   1      60.846  -0.579  28.692  0.00  0.00     0.019 A 
ATOM      9  C   UNL d   1      60.485   0.676  29.261  0.00  0.00     0.000 A 
ATOM     10  C   UNL d   1      61.031   0.200  28.858  0.00  0.00     0.002 A 
ENDROOT
BRANCH   2  11
ATOM     11  S   UNL d   1      58.306  -0.263  29.955  0.00  0.00    -0.062 SA
BRANCH  11  12
ATOM     12  C   UNL d   1      57.875  -0.565  30.591  0.00  0.00     0.098 C 
BRANCH  12  13
ATOM     13  C   UNL d   1      57.312  -0.101  30.961  0.00  0.00     0.272 C 
ATOM     14  N   UNL d   1      56.854  -0.419  31.580  0.00  0.00    -0.267 N 
ATOM     15  C   UNL d   1      56.284   0.055  31.952  0.00  0.00     0.110 A 
ATOM     16  C   UNL d   1      56.969  -1.191  31.812  0.00  0.00     0.110 A 
ATOM     17  C   UNL d   1      55.833  -0.258  32.561  0.00  0.00     0.142 A 
ATOM     18  O   UNL d   1      55.947  -1.041  32.800  0.00  0.00    -0.300 OA
ATOM     19  C   UNL d   1      56.518  -1.505  32.421  0.00  0.00     0.142 A 
ATOM     20  O   UNL d   1      57.198   0.682  30.722  0.00  0.00    -0.266 OA
ENDBRANCH  12  13
ENDBRANCH  11  12
ENDBRANCH   2  11
BRANCH   3  21
ATOM     21  C   UNL d   1      59.048  -2.783  28.806  0.00  0.00     0.036 A 
ATOM     22  C   UNL d   1      59.652  -3.345  28.814  0.00  0.00     0.003 A 
ATOM     23  C   UNL d   1      59.475  -4.132  28.640  0.00  0.00     0.000 A 
ATOM     24  C   UNL d   1      58.698  -4.349  28.461  0.00  0.00     0.000 A 
ATOM     25  C   UNL d   1      58.098  -3.780  28.455  0.00  0.00     0.000 A 
ATOM     26  C   UNL d   1      58.283  -2.997  28.629  0.00  0.00     0.003 A 
ENDBRANCH   3  21
TORSDOF 4
ENDMDL
MODEL 2
REMARK VINA RESULT:      -2.1      1.930      4.283
REMARK  4 active torsions:
REMARK  status: ('A' for Active; 'I' for Inactive)
REMARK    1  A    between atoms: S_9  and  C_2 
REMARK    2  A    between atoms: C_11  and  C_3 
REMARK    3  A    between atoms: C_7  and  C_10 
REMARK       I    between atoms: N_8  and  C_7 
REMARK    4  A    between atoms: C_10  and  S_9 
ROOT
ATOM      1  N   UNL d   1      58.110  -1.219  30.030  0.00  0.00    -0.220 NA
ATOM      2  C   UNL d   1      58.638  -1.269  29.409  0.00  0.00     0.114 A 
ATOM      3  C   UNL d   1      58.073  -0.538  30.493  0.00  0.00     0.163 A 
ATOM      4  N   UNL d   1      58.573   0.098  30.328  0.00  0.00    -0.227 NA
ATOM      5  C   UNL d   1      59.138  -0.633  29.243  0.00  0.00     0.042 A 
ATOM      6  C   UNL d   1      59.110   0.054  29.700  0.00  0.00     0.085 A 
ATOM      7  C   UNL d   1      59.672  -0.681  28.616  0.00  0.00     0.004 A 
ATOM      8  C   UNL d   1      59.596   0.682  29.546  0.00  0.00     0.019 A 
ATOM      9  C   UNL d   1      60.168  -0.039  28.459  0.00  0.00     0.000 A 
ATOM     10  C   UNL d   1      60.128   0.644  28.927  0.00  0.00     0.002 A 
ENDROOT
BRANCH   2  11
ATOM     11  S   UNL d   1      58.677  -1.952  28.941  0.00  0.00    -0.062 SA
BRANCH  11  12
ATOM     12  C   UNL d   1      59.169  -2.579  29.155  0.00  0.00     0.098 C 
BRANCH  12  13
ATOM     13  C   UNL d   1      59.065  -3.316  28.815  0.00  0.00     0.272 C 
ATOM     14  N   UNL d   1      59.694  -3.862  28.808  0.00  0.00    -0.267 N 
ATOM     15  C   UNL d   1      59.583  -4.608  28.462  0.00  0.00     0.110 A 
ATOM     16  C   UNL d   1      60.409  -3.659  29.139  0.00  0.00     0.110 A 
ATOM     17  C   UNL d   1      60.202  -5.146  28.455  0.00  0.00     0.142 A 
ATOM     18  O   UNL d   1      60.930  -4.943  28.790  0.00  0.00    -0.300 OA
ATOM     19  C   UNL d   1      61.029  -4.196  29.133  0.00  0.00     0.142 A 
ATOM     20  O   UNL d   1      58.337  -3.518  28.480  0.00  0.00    -0.266 OA
ENDBRANCH  12  13
ENDBRANCH  11  12
ENDBRANCH   2  11
BRANCH   3  21
ATOM     21  C   UNL d   1      57.536  -0.487  31.125  0.00  0.00     0.036 A 
ATOM     22  C   UNL d   1      57.116  -1.158  31.358  0.00  0.00     0.003 A 
ATOM     23  C   UNL d   1      56.584  -1.106  31.985  0.00  0.00     0.000 A 
ATOM     24  C   UNL d   1      56.476  -0.384  32.374  0.00  0.00     0.000 A 
ATOM     25  C   UNL d   1      56.900   0.284  32.135  0.00  0.00     0.000 A 
ATOM     26  C   UNL d   1      57.429   0.223  31.508  0.00  0.00     0.003 A 
ENDBRANCH   3  21
TORSDOF 4
ENDMDL
