MODEL 1
REMARK VINA RESULT:      11.5      0.000      0.000
REMARK  9 active torsions:
REMARK  status: ('A' for Active; 'I' for Inactive)
REMARK    1  A    between atoms: P_4  and  C_1 
REMARK    2  A    between atoms: N_7  and  C_3 
REMARK    3  A    between atoms: O_10  and  P_4 
REMARK    4  A    between atoms: O_11  and  P_4 
REMARK    5  A    between atoms: C_8  and  C_5 
REMARK    6  A    between atoms: C_14  and  N_7 
REMARK    7  A    between atoms: C_21  and  O_10 
REMARK    8  A    between atoms: C_20  and  O_11 
REMARK    9  A    between atoms: C_19  and  C_14 
ROOT
ATOM      1  C   UNL d   1     -42.095-121.931 -52.089  0.00  0.00     0.205 A 
ATOM      2  N   UNL d   1     -42.376-122.467 -51.538  0.00  0.00    -0.211 NA
ATOM      3  C   UNL d   1     -41.676-121.339 -51.701  0.00  0.00     0.209 A 
ATOM      4  C   UNL d   1     -42.139-122.217 -50.819  0.00  0.00     0.184 A 
ATOM      5  O   UNL d   1     -41.708-121.527 -50.892  0.00  0.00    -0.270 OA
ENDROOT
BRANCH   1   6
ATOM      6  P   UNL d   1     -42.209-121.968 -52.927  0.00  0.00     0.395 P 
ATOM      7  O   UNL d   1     -42.791-121.386 -52.887  0.00  0.00    -0.251 OA
BRANCH   6   8
ATOM      8  O   UNL d   1     -42.311-122.013 -53.743  0.00  0.00    -0.263 OA
BRANCH   8   9
ATOM      9  C   UNL d   1     -42.626-121.400 -54.164  0.00  0.00     0.126 C 
ATOM     10  C   UNL d   1     -43.385-121.442 -54.424  0.00  0.00     0.029 C 
ENDBRANCH   8   9
ENDBRANCH   6   8
BRANCH   6  11
ATOM     11  O   UNL d   1     -41.611-122.562 -52.949  0.00  0.00    -0.263 OA
BRANCH  11  12
ATOM     12  C   UNL d   1     -41.520-122.994 -53.634  0.00  0.00     0.126 C 
ATOM     13  C   UNL d   1     -41.393-123.801 -53.548  0.00  0.00     0.029 C 
ENDBRANCH  11  12
ENDBRANCH   6  11
ENDBRANCH   1   6
BRANCH   3  14
ATOM     14  N   UNL d   1     -41.327-120.714 -52.143  0.00  0.00    -0.219 NA
BRANCH  14  15
ATOM     15  C   UNL d   1     -41.124-120.006 -51.764  0.00  0.00     0.101 C 
BRANCH  15  16
ATOM     16  C   UNL d   1     -41.125-119.299 -52.192  0.00  0.00     0.019 A 
ATOM     17  C   UNL d   1     -41.125-119.310 -53.034  0.00  0.00     0.002 A 
ATOM     18  C   UNL d   1     -41.125-118.605 -53.447  0.00  0.00     0.000 A 
ATOM     19  C   UNL d   1     -41.126-117.867 -53.051  0.00  0.00     0.000 A 
ATOM     20  C   UNL d   1     -41.127-117.858 -52.200  0.00  0.00     0.000 A 
ATOM     21  C   UNL d   1     -41.126-118.583 -51.796  0.00  0.00     0.002 A 
ENDBRANCH  15  16
ENDBRANCH  14  15
ENDBRANCH   3  14
BRANCH   4  22
ATOM     22  C   UNL d   1     -42.322-122.624 -50.125  0.00  0.00     0.042 A 
ATOM     23  C   UNL d   1     -42.993-123.091 -50.068  0.00  0.00     0.006 A 
ATOM     24  C   UNL d   1     -43.162-123.489 -49.373  0.00  0.00     0.030 A 
ATOM     25  C   UNL d   1     -42.665-123.430 -48.712  0.00  0.00     0.140 A 
ATOM     26  C   UNL d   1     -41.968-122.948 -48.764  0.00  0.00     0.030 A 
ATOM     27  F   UNL d   1     -42.808-123.817 -48.003  0.00  0.00    -0.204 F 
ATOM     28  C   UNL d   1     -41.807-122.552 -49.467  0.00  0.00     0.006 A 
ENDBRANCH   4  22
TORSDOF 9
ENDMDL
MODEL 2
REMARK VINA RESULT:      14.5      1.877      4.326
REMARK  9 active torsions:
REMARK  status: ('A' for Active; 'I' for Inactive)
REMARK    1  A    between atoms: P_4  and  C_1 
REMARK    2  A    between atoms: N_7  and  C_3 
REMARK    3  A    between atoms: O_10  and  P_4 
REMARK    4  A    between atoms: O_11  and  P_4 
REMARK    5  A    between atoms: C_8  and  C_5 
REMARK    6  A    between atoms: C_14  and  N_7 
REMARK    7  A    between atoms: C_21  and  O_10 
REMARK    8  A    between atoms: C_20  and  O_11 
REMARK    9  A    between atoms: C_19  and  C_14 
ROOT
ATOM      1  C   UNL d   1     -42.078-122.197 -50.927  0.00  0.00     0.205 A 
ATOM      2  N   UNL d   1     -42.074-121.379 -50.902  0.00  0.00    -0.211 NA
ATOM      3  C   UNL d   1     -41.628-122.450 -51.567  0.00  0.00     0.209 A 
ATOM      4  C   UNL d   1     -41.631-121.124 -51.514  0.00  0.00     0.184 A 
ATOM      5  O   UNL d   1     -41.346-121.762 -51.937  0.00  0.00    -0.270 OA
ENDROOT
BRANCH   1   6
ATOM      6  P   UNL d   1     -42.477-122.712 -50.387  0.00  0.00     0.395 P 
ATOM      7  O   UNL d   1     -43.199-122.563 -50.757  0.00  0.00    -0.251 OA
BRANCH   6   8
ATOM      8  O   UNL d   1     -42.854-123.216 -49.855  0.00  0.00    -0.263 OA
BRANCH   8   9
ATOM      9  C   UNL d   1     -43.552-123.013 -49.503  0.00  0.00     0.126 C 
ATOM     10  C   UNL d   1     -44.219-123.430 -49.665  0.00  0.00     0.029 C 
ENDBRANCH   8   9
ENDBRANCH   6   8
BRANCH   6  11
ATOM     11  O   UNL d   1     -41.731-122.853 -50.021  0.00  0.00    -0.263 OA
BRANCH  11  12
ATOM     12  C   UNL d   1     -41.699-122.888 -49.208  0.00  0.00     0.126 C 
ATOM     13  C   UNL d   1     -41.174-123.430 -48.881  0.00  0.00     0.029 C 
ENDBRANCH  11  12
ENDBRANCH   6  11
ENDBRANCH   1   6
BRANCH   3  14
ATOM     14  N   UNL d   1     -41.542-123.274 -51.718  0.00  0.00    -0.219 NA
BRANCH  14  15
ATOM     15  C   UNL d   1     -41.134-123.526 -52.394  0.00  0.00     0.101 C 
BRANCH  15  16
ATOM     16  C   UNL d   1     -41.544-123.622 -53.106  0.00  0.00     0.019 A 
ATOM     17  C   UNL d   1     -42.384-123.676 -53.111  0.00  0.00     0.002 A 
ATOM     18  C   UNL d   1     -42.779-123.770 -53.820  0.00  0.00     0.000 A 
ATOM     19  C   UNL d   1     -42.365-123.815 -54.547  0.00  0.00     0.000 A 
ATOM     20  C   UNL d   1     -41.516-123.760 -54.540  0.00  0.00     0.000 A 
ATOM     21  C   UNL d   1     -41.130-123.664 -53.811  0.00  0.00     0.002 A 
ENDBRANCH  15  16
ENDBRANCH  14  15
ENDBRANCH   3  14
BRANCH   4  22
ATOM     22  C   UNL d   1     -41.502-120.323 -51.666  0.00  0.00     0.042 A 
ATOM     23  C   UNL d   1     -41.316-119.799 -51.063  0.00  0.00     0.006 A 
ATOM     24  C   UNL d   1     -41.190-119.007 -51.229  0.00  0.00     0.030 A 
ATOM     25  C   UNL d   1     -41.247-118.715 -52.002  0.00  0.00     0.140 A 
ATOM     26  C   UNL d   1     -41.439-119.252 -52.631  0.00  0.00     0.030 A 
ATOM     27  F   UNL d   1     -41.126-117.928 -52.198  0.00  0.00    -0.204 F 
ATOM     28  C   UNL d   1     -41.563-120.046 -52.455  0.00  0.00     0.006 A 
ENDBRANCH   4  22
TORSDOF 9
ENDMDL
