MODEL 1
REMARK VINA RESULT:     101.4      0.000      0.000
REMARK  4 active torsions:
REMARK  status: ('A' for Active; 'I' for Inactive)
REMARK    1  A    between atoms: C_7  and  C_1 
REMARK       I    between atoms: C_6  and  N_8 
REMARK    2  A    between atoms: C_14  and  C_6 
REMARK    3  A    between atoms: N_8  and  C_15 
REMARK    4  A    between atoms: C_20  and  C_14 
ROOT
ATOM      1  C   UNL d   1      61.455  46.463  49.954  0.00  0.00     0.024 A 
ATOM      2  C   UNL d   1      62.180  46.417  49.579  0.00  0.00     0.004 A 
ATOM      3  C   UNL d   1      60.931  45.815  49.961  0.00  0.00     0.004 A 
ATOM      4  C   UNL d   1      61.892  45.065  49.197  0.00  0.00     0.085 A 
ATOM      5  C   UNL d   1      62.407  45.709  49.193  0.00  0.00     0.019 A 
ATOM      6  C   UNL d   1      61.165  45.113  49.574  0.00  0.00     0.019 A 
ENDROOT
BRANCH   1   7
ATOM      7  C   UNL d   1      61.247  47.159  50.327  0.00  0.00     0.111 A 
ATOM      8  N   UNL d   1      61.330  47.895  50.001  0.00  0.00    -0.239 NA
ATOM      9  C   UNL d   1      61.066  48.464  50.530  0.00  0.00     0.088 A 
ATOM     10  C   UNL d   1      61.019  49.279  50.499  0.00  0.00     0.020 A 
ATOM     11  C   UNL d   1      60.808  48.056  51.211  0.00  0.00     0.049 A 
ATOM     12  C   UNL d   1      60.722  49.682  51.134  0.00  0.00     0.002 A 
ATOM     13  C   UNL d   1      60.464  49.274  51.816  0.00  0.00     0.001 A 
ATOM     14  C   UNL d   1      60.505  48.469  51.858  0.00  0.00     0.008 A 
ATOM     15  C   UNL d   1      60.164  49.706  52.453  0.00  0.00     0.000 C 
ATOM     16  S   UNL d   1      60.920  47.256  51.085  0.00  0.00    -0.066 SA
ENDBRANCH   1   7
BRANCH   4  17
ATOM     17  N   UNL d   1      62.099  44.378  48.829  0.00  0.00    -0.208 NA
ATOM     18  C   UNL d   1      62.255  43.750  49.237  0.00  0.00     0.279 C 
ATOM     19  O   UNL d   1      62.479  43.005  48.847  0.00  0.00    -0.265 OA
BRANCH  18  20
ATOM     20  C   UNL d   1      62.187  43.870  50.044  0.00  0.00     0.062 C 
BRANCH  20  21
ATOM     21  C   UNL d   1      62.369  43.269  50.557  0.00  0.00     0.005 A 
ATOM     22  C   UNL d   1      61.930  43.188  51.244  0.00  0.00     0.000 A 
ATOM     23  C   UNL d   1      62.102  42.575  51.786  0.00  0.00     0.000 A 
ATOM     24  C   UNL d   1      62.720  42.052  51.620  0.00  0.00     0.000 A 
ATOM     25  C   UNL d   1      63.158  42.144  50.922  0.00  0.00     0.000 A 
ATOM     26  C   UNL d   1      62.991  42.742  50.391  0.00  0.00     0.000 A 
ENDBRANCH  20  21
ENDBRANCH  18  20
ENDBRANCH   4  17
TORSDOF 4
ENDMDL
