MODEL 1
REMARK VINA RESULT:      -4.5      0.000      0.000
REMARK  4 active torsions:
REMARK  status: ('A' for Active; 'I' for Inactive)
REMARK    1  A    between atoms: C_6  and  C_1 
REMARK    2  A    between atoms: C_8  and  N_3 
REMARK    3  A    between atoms: C_7  and  C_4 
REMARK    4  A    between atoms: O_16  and  C_13 
ROOT
ATOM      1  C   UNL d   1      56.612  -0.710  32.203  0.00  0.00     0.103 A 
ATOM      2  N   UNL d   1      56.935   0.677  32.083  0.00  0.00    -0.165 NA
ATOM      3  N   UNL d   1      57.385  -0.241  31.096  0.00  0.00    -0.228 N 
ATOM      4  C   UNL d   1      56.573   0.063  32.489  0.00  0.00     0.109 A 
ATOM      5  C   UNL d   1      57.023  -0.854  31.501  0.00  0.00     0.108 A 
ENDROOT
BRANCH   4   6
ATOM      6  C   UNL d   1      56.167   0.216  33.185  0.00  0.00     0.020 A 
ATOM      7  C   UNL d   1      55.341   0.177  33.199  0.00  0.00     0.004 A 
ATOM      8  C   UNL d   1      54.931   0.331  33.906  0.00  0.00     0.024 A 
ATOM      9  C   UNL d   1      55.348   0.523  34.589  0.00  0.00     0.094 A 
ATOM     10  C   UNL d   1      56.174   0.562  34.575  0.00  0.00     0.024 A 
ATOM     11  C   UNL d   1      56.584   0.407  33.868  0.00  0.00     0.004 A 
BRANCH   9  12
ATOM     12  O   UNL d   1      54.928   0.682  35.316  0.00  0.00    -0.328 OA
ATOM     13  C   UNL d   1      55.346   0.679  36.051  0.00  0.00     0.181 C 
ENDBRANCH   9  12
ENDBRANCH   4   6
BRANCH   1  14
ATOM     14  C   UNL d   1      56.249  -1.324  32.609  0.00  0.00     0.214 C 
ATOM     15  O   UNL d   1      55.488  -1.569  32.408  0.00  0.00    -0.644 OA
ATOM     16  O   UNL d   1      56.662  -1.719  33.251  0.00  0.00    -0.644 OA
ENDBRANCH   1  14
BRANCH   3  17
ATOM     17  C   UNL d   1      57.827  -0.180  30.402  0.00  0.00     0.083 A 
ATOM     18  C   UNL d   1      57.912   0.548  30.028  0.00  0.00     0.019 A 
ATOM     19  C   UNL d   1      58.355   0.608  29.334  0.00  0.00     0.002 A 
ATOM     20  C   UNL d   1      58.712  -0.061  29.015  0.00  0.00     0.000 A 
ATOM     21  C   UNL d   1      58.628  -0.789  29.389  0.00  0.00     0.002 A 
ATOM     22  C   UNL d   1      58.186  -0.849  30.082  0.00  0.00     0.019 A 
ENDBRANCH   3  17
TORSDOF 4
ENDMDL
MODEL 2
REMARK VINA RESULT:      -3.6      1.977      4.870
REMARK  4 active torsions:
REMARK  status: ('A' for Active; 'I' for Inactive)
REMARK    1  A    between atoms: C_6  and  C_1 
REMARK    2  A    between atoms: C_8  and  N_3 
REMARK    3  A    between atoms: C_7  and  C_4 
REMARK    4  A    between atoms: O_16  and  C_13 
ROOT
ATOM      1  C   UNL d   1      57.754  -0.704  30.814  0.00  0.00     0.103 A 
ATOM      2  N   UNL d   1      57.817   0.652  31.258  0.00  0.00    -0.165 NA
ATOM      3  N   UNL d   1      56.918  -0.254  31.883  0.00  0.00    -0.228 N 
ATOM      4  C   UNL d   1      58.072   0.055  30.758  0.00  0.00     0.109 A 
ATOM      5  C   UNL d   1      57.173  -0.852  31.383  0.00  0.00     0.108 A 
ENDROOT
BRANCH   4   6
ATOM      6  C   UNL d   1      58.650   0.209  30.196  0.00  0.00     0.020 A 
ATOM      7  C   UNL d   1      58.432   0.377  29.416  0.00  0.00     0.004 A 
ATOM      8  C   UNL d   1      59.018   0.533  28.847  0.00  0.00     0.024 A 
ATOM      9  C   UNL d   1      59.812   0.521  29.062  0.00  0.00     0.094 A 
ATOM     10  C   UNL d   1      60.030   0.354  29.843  0.00  0.00     0.024 A 
ATOM     11  C   UNL d   1      59.444   0.197  30.411  0.00  0.00     0.004 A 
BRANCH   9  12
ATOM     12  O   UNL d   1      60.416   0.682  28.479  0.00  0.00    -0.328 OA
ATOM     13  C   UNL d   1      61.133   0.234  28.483  0.00  0.00     0.181 C 
ENDBRANCH   9  12
ENDBRANCH   4   6
BRANCH   1  14
ATOM     14  C   UNL d   1      58.010  -1.303  30.314  0.00  0.00     0.214 C 
ATOM     15  O   UNL d   1      57.689  -1.384  29.558  0.00  0.00    -0.644 OA
ATOM     16  O   UNL d   1      58.617  -1.852  30.574  0.00  0.00    -0.644 OA
ENDBRANCH   1  14
BRANCH   3  17
ATOM     17  C   UNL d   1      56.367  -0.201  32.495  0.00  0.00     0.083 A 
ATOM     18  C   UNL d   1      56.069  -0.884  32.843  0.00  0.00     0.019 A 
ATOM     19  C   UNL d   1      55.518  -0.829  33.456  0.00  0.00     0.002 A 
ATOM     20  C   UNL d   1      55.266  -0.091  33.719  0.00  0.00     0.000 A 
ATOM     21  C   UNL d   1      55.565   0.592  33.370  0.00  0.00     0.002 A 
ATOM     22  C   UNL d   1      56.115   0.538  32.759  0.00  0.00     0.019 A 
ENDBRANCH   3  17
TORSDOF 4
ENDMDL
