MODEL 1
REMARK VINA RESULT:      77.8      0.000      0.000
REMARK  5 active torsions:
REMARK  status: ('A' for Active; 'I' for Inactive)
REMARK    1  A    between atoms: C_5  and  C_1 
REMARK    2  A    between atoms: O_8  and  C_2 
REMARK    3  A    between atoms: C_20  and  O_8 
REMARK    4  A    between atoms: C_11  and  O_14 
REMARK    5  A    between atoms: O_14  and  C_13 
ROOT
ATOM      1  C   UNL d   1      60.995  48.666  51.294  0.00  0.00     0.197 A 
ATOM      2  C   UNL d   1      60.584  48.878  50.609  0.00  0.00     0.165 A 
ATOM      3  O   UNL d   1      61.395  47.964  51.318  0.00  0.00    -0.301 OA
ATOM      4  C   UNL d   1      60.581  48.382  49.951  0.00  0.00     0.222 A 
ATOM      5  C   UNL d   1      61.398  47.462  50.667  0.00  0.00     0.105 A 
ATOM      6  C   UNL d   1      60.987  47.676  49.982  0.00  0.00     0.064 A 
ATOM      7  C   UNL d   1      61.807  46.748  50.691  0.00  0.00     0.050 A 
ATOM      8  C   UNL d   1      60.990  47.168  49.325  0.00  0.00     0.007 A 
ATOM      9  O   UNL d   1      60.174  48.593  49.273  0.00  0.00    -0.284 OA
ATOM     10  C   UNL d   1      61.809  46.255  50.052  0.00  0.00     0.105 A 
ATOM     11  C   UNL d   1      61.400  46.465  49.366  0.00  0.00     0.025 A 
ENDROOT
BRANCH   2  12
ATOM     12  O   UNL d   1      60.164  49.598  50.562  0.00  0.00    -0.302 OA
BRANCH  12  13
ATOM     13  C   UNL d   1      59.343  49.603  50.503  0.00  0.00     0.100 A 
ATOM     14  C   UNL d   1      58.877  49.534  51.174  0.00  0.00     0.025 A 
ATOM     15  C   UNL d   1      58.054  49.539  51.111  0.00  0.00     0.002 A 
ATOM     16  C   UNL d   1      57.698  49.614  50.368  0.00  0.00     0.000 A 
ATOM     17  C   UNL d   1      58.165  49.684  49.683  0.00  0.00     0.002 A 
ATOM     18  C   UNL d   1      58.989  49.679  49.750  0.00  0.00     0.025 A 
ENDBRANCH  12  13
ENDBRANCH   2  12
BRANCH   1  19
ATOM     19  C   UNL d   1      61.000  49.154  51.945  0.00  0.00     0.442 C 
ATOM     20  F   UNL d   1      61.074  49.614  52.615  0.00  0.00    -0.164 F 
ATOM     21  F   UNL d   1      60.334  49.705  52.131  0.00  0.00    -0.164 F 
ATOM     22  F   UNL d   1      61.625  49.103  52.387  0.00  0.00    -0.164 F 
ENDBRANCH   1  19
BRANCH  10  23
ATOM     23  O   UNL d   1      62.238  45.513  50.088  0.00  0.00    -0.273 OA
BRANCH  23  24
ATOM     24  C   UNL d   1      61.929  44.849  49.707  0.00  0.00     0.300 C 
ATOM     25  O   UNL d   1      61.943  44.798  48.862  0.00  0.00    -0.259 OA
ATOM     26  C   UNL d   1      61.611  44.242  50.149  0.00  0.00     0.074 C 
ENDBRANCH  23  24
ENDBRANCH  10  23
TORSDOF 5
ENDMDL
