MODEL 1
REMARK VINA RESULT:     114.5      0.000      0.000
REMARK  7 active torsions:
REMARK  status: ('A' for Active; 'I' for Inactive)
REMARK    1  A    between atoms: C_11  and  C_3 
REMARK    2  A    between atoms: C_10  and  C_5 
REMARK    3  A    between atoms: O_22  and  C_13 
REMARK    4  A    between atoms: O_25  and  C_14 
REMARK    5  A    between atoms: O_24  and  C_15 
REMARK    6  A    between atoms: O_26  and  C_21 
REMARK    7  A    between atoms: C_30  and  O_26 
ROOT
ATOM      1  N   UNL d   1     -49.856  27.498  36.186  0.00  0.00    -0.208 N 
ATOM      2  N   UNL d   1     -50.394  27.049  36.617  0.00  0.00    -0.162 NA
ATOM      3  C   UNL d   1     -49.675  27.507  35.381  0.00  0.00     0.184 A 
ATOM      4  C   UNL d   1     -49.462  28.006  36.702  0.00  0.00     0.088 A 
ATOM      5  C   UNL d   1     -50.332  27.282  37.412  0.00  0.00     0.126 A 
ATOM      6  O   UNL d   1     -49.101  28.023  35.094  0.00  0.00    -0.287 OA
ATOM      7  C   UNL d   1     -48.886  28.524  36.414  0.00  0.00     0.043 A 
ATOM      8  C   UNL d   1     -48.707  28.531  35.611  0.00  0.00     0.126 A 
ATOM      9  C   UNL d   1     -49.755  27.875  37.462  0.00  0.00     0.042 A 
ATOM     10  C   UNL d   1     -48.138  29.042  35.318  0.00  0.00     0.123 A 
ATOM     11  C   UNL d   1     -48.495  29.030  36.932  0.00  0.00     0.004 A 
ATOM     12  C   UNL d   1     -47.924  29.543  36.647  0.00  0.00     0.002 A 
ATOM     13  C   UNL d   1     -47.743  29.550  35.835  0.00  0.00     0.027 A 
ENDROOT
BRANCH   3  14
ATOM     14  C   UNL d   1     -50.069  26.999  34.864  0.00  0.00     0.045 A 
ATOM     15  C   UNL d   1     -50.840  27.178  34.612  0.00  0.00     0.030 A 
ATOM     16  C   UNL d   1     -51.234  26.670  34.096  0.00  0.00     0.118 A 
ATOM     17  C   UNL d   1     -50.869  25.986  33.827  0.00  0.00     0.138 A 
ATOM     18  C   UNL d   1     -50.094  25.806  34.080  0.00  0.00     0.118 A 
ATOM     19  C   UNL d   1     -49.700  26.314  34.597  0.00  0.00     0.030 A 
BRANCH  16  20
ATOM     20  O   UNL d   1     -51.998  26.851  33.848  0.00  0.00    -0.326 OA
ATOM     21  C   UNL d   1     -52.132  27.510  33.366  0.00  0.00     0.181 C 
ENDBRANCH  16  20
BRANCH  17  22
ATOM     22  O   UNL d   1     -51.264  25.478  33.310  0.00  0.00    -0.324 OA
ATOM     23  C   UNL d   1     -51.121  24.666  33.344  0.00  0.00     0.182 C 
ENDBRANCH  17  22
BRANCH  18  24
ATOM     24  O   UNL d   1     -49.721  25.120  33.814  0.00  0.00    -0.326 OA
ATOM     25  C   UNL d   1     -49.070  25.173  33.307  0.00  0.00     0.181 C 
ENDBRANCH  18  24
ENDBRANCH   3  14
BRANCH   5  26
ATOM     26  C   UNL d   1     -50.774  26.974  38.047  0.00  0.00     0.119 A 
ATOM     27  O   UNL d   1     -51.237  26.293  38.029  0.00  0.00    -0.306 OA
ATOM     28  C   UNL d   1     -51.573  26.203  38.787  0.00  0.00     0.100 A 
ATOM     29  C   UNL d   1     -52.076  25.593  39.014  0.00  0.00     0.027 C 
ATOM     30  C   UNL d   1     -51.310  26.831  39.260  0.00  0.00     0.027 A 
ATOM     31  C   UNL d   1     -50.818  27.313  38.817  0.00  0.00     0.028 A 
ENDBRANCH   5  26
BRANCH  10  32
ATOM     32  O   UNL d   1     -47.956  29.052  34.514  0.00  0.00    -0.303 OA
BRANCH  32  33
ATOM     33  C   UNL d   1     -47.387  29.575  34.219  0.00  0.00     0.123 C 
ATOM     34  C   UNL d   1     -47.574  30.368  34.109  0.00  0.00     0.029 C 
ENDBRANCH  32  33
ENDBRANCH  10  32
TORSDOF 7
ENDMDL
