MODEL 1
REMARK VINA RESULT:      30.7      0.000      0.000
REMARK  4 active torsions:
REMARK  status: ('A' for Active; 'I' for Inactive)
REMARK    1  A    between atoms: C_3  and  C_1 
REMARK       I    between atoms: N_8  and  C_3 
REMARK    2  A    between atoms: C_10  and  C_7 
REMARK    3  A    between atoms: C_9  and  N_8 
REMARK    4  A    between atoms: O_14  and  C_10 
ROOT
ATOM      1  C   UNL d   1     -58.955 -98.964 -43.755  0.00  0.00     0.081 A 
ATOM      2  C   UNL d   1     -58.355 -98.861 -44.308  0.00  0.00     0.090 A 
ATOM      3  C   UNL d   1     -59.743 -98.973 -44.004  0.00  0.00     0.007 A 
ATOM      4  C   UNL d   1     -58.537 -98.766 -45.109  0.00  0.00     0.019 A 
ATOM      5  C   UNL d   1     -59.928 -98.878 -44.805  0.00  0.00     0.000 A 
ATOM      6  C   UNL d   1     -59.319 -98.774 -45.357  0.00  0.00     0.002 A 
ENDROOT
BRANCH   2   7
ATOM      7  N   UNL d   1     -57.595 -98.861 -43.999  0.00  0.00    -0.207 NA
ATOM      8  C   UNL d   1     -56.949 -98.893 -44.509  0.00  0.00     0.287 C 
ATOM      9  O   UNL d   1     -57.066 -98.924 -45.321  0.00  0.00    -0.265 OA
BRANCH   8  10
ATOM     10  C   UNL d   1     -56.180 -98.894 -44.208  0.00  0.00     0.108 A 
ATOM     11  C   UNL d   1     -55.483 -98.947 -44.649  0.00  0.00     0.094 A 
ATOM     12  N   UNL d   1     -54.849 -98.927 -44.121  0.00  0.00    -0.219 NA
ATOM     13  C   UNL d   1     -55.434 -99.007 -45.467  0.00  0.00     0.021 C 
ATOM     14  C   UNL d   1     -55.153 -98.864 -43.363  0.00  0.00     0.215 A 
ATOM     15  S   UNL d   1     -55.975 -98.844 -43.415  0.00  0.00    -0.041 SA
ATOM     16  N   UNL d   1     -54.715 -98.827 -42.663  0.00  0.00    -0.120 N 
ENDBRANCH   8  10
ENDBRANCH   2   7
BRANCH   1  17
ATOM     17  C   UNL d   1     -58.773 -99.059 -42.960  0.00  0.00     0.297 C 
ATOM     18  O   UNL d   1     -58.019 -98.885 -42.693  0.00  0.00    -0.259 OA
BRANCH  17  19
ATOM     19  O   UNL d   1     -59.346 -99.325 -42.441  0.00  0.00    -0.296 OA
ATOM     20  C   UNL d   1     -59.779 -98.782 -41.993  0.00  0.00     0.185 C 
ENDBRANCH  17  19
ENDBRANCH   1  17
TORSDOF 4
ENDMDL
