MODEL 1
REMARK VINA RESULT:      -7.4      0.000      0.000
REMARK  8 active torsions:
REMARK  status: ('A' for Active; 'I' for Inactive)
REMARK    1  A    between atoms: C_8  and  C_1 
REMARK    2  A    between atoms: C_7  and  C_2 
REMARK    3  A    between atoms: C_9  and  C_3 
REMARK    4  A    between atoms: O_14  and  C_7 
REMARK    5  A    between atoms: O_15  and  C_8 
REMARK    6  A    between atoms: C_22  and  O_14 
REMARK    7  A    between atoms: C_23  and  O_15 
REMARK    8  A    between atoms: O_21  and  C_18 
ROOT
ATOM      1  C   UNL d   1      53.404  32.445  53.622  0.00  0.00     0.081 A 
ATOM      2  C   UNL d   1      53.422  33.635  54.400  0.00  0.00     0.081 A 
ATOM      3  C   UNL d   1      53.059  33.160  53.839  0.00  0.00     0.013 A 
ATOM      4  C   UNL d   1      54.114  32.207  53.970  0.00  0.00     0.086 A 
ATOM      5  C   UNL d   1      54.132  33.398  54.747  0.00  0.00     0.086 A 
ATOM      6  N   UNL d   1      54.476  32.686  54.532  0.00  0.00    -0.245 NA
ATOM      7  C   UNL d   1      54.505  33.885  55.323  0.00  0.00     0.021 C 
ATOM      8  C   UNL d   1      54.468  31.479  53.752  0.00  0.00     0.021 C 
ENDROOT
BRANCH   3   9
ATOM      9  C   UNL d   1      52.346  33.399  53.490  0.00  0.00     0.001 A 
ATOM     10  C   UNL d   1      51.629  33.199  53.836  0.00  0.00     0.002 A 
ATOM     11  C   UNL d   1      50.913  33.439  53.486  0.00  0.00     0.024 A 
ATOM     12  C   UNL d   1      50.919  33.877  52.792  0.00  0.00     0.094 A 
ATOM     13  C   UNL d   1      51.637  34.079  52.443  0.00  0.00     0.024 A 
ATOM     14  C   UNL d   1      52.354  33.839  52.793  0.00  0.00     0.002 A 
BRANCH  12  15
ATOM     15  O   UNL d   1      50.216  34.117  52.441  0.00  0.00    -0.328 OA
ATOM     16  C   UNL d   1      49.777  34.723  52.783  0.00  0.00     0.181 C 
ENDBRANCH  12  15
ENDBRANCH   3   9
BRANCH   2  17
ATOM     17  C   UNL d   1      53.065  34.368  54.618  0.00  0.00     0.302 C 
ATOM     18  O   UNL d   1      52.420  34.373  55.128  0.00  0.00    -0.259 OA
BRANCH  17  19
ATOM     19  O   UNL d   1      53.368  35.080  54.315  0.00  0.00    -0.271 OA
BRANCH  19  20
ATOM     20  C   UNL d   1      53.239  35.789  54.715  0.00  0.00     0.126 C 
ATOM     21  C   UNL d   1      53.411  36.506  54.352  0.00  0.00     0.029 C 
ENDBRANCH  19  20
ENDBRANCH  17  19
ENDBRANCH   2  17
BRANCH   1  22
ATOM     22  C   UNL d   1      53.027  31.962  53.047  0.00  0.00     0.302 C 
ATOM     23  O   UNL d   1      53.073  32.169  52.237  0.00  0.00    -0.259 OA
BRANCH  22  24
ATOM     24  O   UNL d   1      52.618  31.289  53.292  0.00  0.00    -0.271 OA
BRANCH  24  25
ATOM     25  C   UNL d   1      52.617  30.617  52.813  0.00  0.00     0.126 C 
ATOM     26  C   UNL d   1      52.254  29.924  53.082  0.00  0.00     0.029 C 
ENDBRANCH  24  25
ENDBRANCH  22  24
ENDBRANCH   1  22
TORSDOF 8
ENDMDL
MODEL 2
REMARK VINA RESULT:      -7.4      0.058      3.129
REMARK  8 active torsions:
REMARK  status: ('A' for Active; 'I' for Inactive)
REMARK    1  A    between atoms: C_8  and  C_1 
REMARK    2  A    between atoms: C_7  and  C_2 
REMARK    3  A    between atoms: C_9  and  C_3 
REMARK    4  A    between atoms: O_14  and  C_7 
REMARK    5  A    between atoms: O_15  and  C_8 
REMARK    6  A    between atoms: C_22  and  O_14 
REMARK    7  A    between atoms: C_23  and  O_15 
REMARK    8  A    between atoms: O_21  and  C_18 
ROOT
ATOM      1  C   UNL d   1      53.434  33.680  54.364  0.00  0.00     0.081 A 
ATOM      2  C   UNL d   1      53.409  32.494  53.580  0.00  0.00     0.081 A 
ATOM      3  C   UNL d   1      53.062  33.202  53.806  0.00  0.00     0.013 A 
ATOM      4  C   UNL d   1      54.154  33.447  54.693  0.00  0.00     0.086 A 
ATOM      5  C   UNL d   1      54.129  32.261  53.909  0.00  0.00     0.086 A 
ATOM      6  N   UNL d   1      54.500  32.737  54.463  0.00  0.00    -0.245 NA
ATOM      7  C   UNL d   1      54.485  31.535  53.676  0.00  0.00     0.021 C 
ATOM      8  C   UNL d   1      54.536  33.932  55.260  0.00  0.00     0.021 C 
ENDROOT
BRANCH   3   9
ATOM      9  C   UNL d   1      52.339  33.436  53.476  0.00  0.00     0.001 A 
ATOM     10  C   UNL d   1      51.633  33.242  53.847  0.00  0.00     0.002 A 
ATOM     11  C   UNL d   1      50.906  33.477  53.514  0.00  0.00     0.024 A 
ATOM     12  C   UNL d   1      50.892  33.904  52.814  0.00  0.00     0.094 A 
ATOM     13  C   UNL d   1      51.599  34.100  52.440  0.00  0.00     0.024 A 
ATOM     14  C   UNL d   1      52.325  33.865  52.772  0.00  0.00     0.002 A 
BRANCH  12  15
ATOM     15  O   UNL d   1      50.178  34.139  52.481  0.00  0.00    -0.328 OA
ATOM     16  C   UNL d   1      49.774  34.783  52.797  0.00  0.00     0.181 C 
ENDBRANCH  12  15
ENDBRANCH   3   9
BRANCH   2  17
ATOM     17  C   UNL d   1      53.023  32.008  53.008  0.00  0.00     0.302 C 
ATOM     18  O   UNL d   1      53.044  32.214  52.213  0.00  0.00    -0.259 OA
BRANCH  17  19
ATOM     19  O   UNL d   1      52.624  31.321  53.254  0.00  0.00    -0.271 OA
BRANCH  19  20
ATOM     20  C   UNL d   1      52.631  30.646  52.783  0.00  0.00     0.126 C 
ATOM     21  C   UNL d   1      52.273  29.954  53.045  0.00  0.00     0.029 C 
ENDBRANCH  19  20
ENDBRANCH  17  19
ENDBRANCH   2  17
BRANCH   1  22
ATOM     22  C   UNL d   1      53.074  34.405  54.592  0.00  0.00     0.302 C 
ATOM     23  O   UNL d   1      52.431  34.397  55.128  0.00  0.00    -0.259 OA
BRANCH  22  24
ATOM     24  O   UNL d   1      53.363  35.112  54.284  0.00  0.00    -0.271 OA
BRANCH  24  25
ATOM     25  C   UNL d   1      53.250  35.815  54.702  0.00  0.00     0.126 C 
ATOM     26  C   UNL d   1      53.415  36.539  54.339  0.00  0.00     0.029 C 
ENDBRANCH  24  25
ENDBRANCH  22  24
ENDBRANCH   1  22
TORSDOF 8
ENDMDL
MODEL 3
REMARK VINA RESULT:      -6.2      1.398      4.086
REMARK  8 active torsions:
REMARK  status: ('A' for Active; 'I' for Inactive)
REMARK    1  A    between atoms: C_8  and  C_1 
REMARK    2  A    between atoms: C_7  and  C_2 
REMARK    3  A    between atoms: C_9  and  C_3 
REMARK    4  A    between atoms: O_14  and  C_7 
REMARK    5  A    between atoms: O_15  and  C_8 
REMARK    6  A    between atoms: C_22  and  O_14 
REMARK    7  A    between atoms: C_23  and  O_15 
REMARK    8  A    between atoms: O_21  and  C_18 
ROOT
ATOM      1  C   UNL d   1      52.611  33.089  53.132  0.00  0.00     0.081 A 
ATOM      2  C   UNL d   1      53.023  31.736  53.282  0.00  0.00     0.081 A 
ATOM      3  C   UNL d   1      53.133  32.533  53.442  0.00  0.00     0.013 A 
ATOM      4  C   UNL d   1      51.979  32.844  52.661  0.00  0.00     0.086 A 
ATOM      5  C   UNL d   1      52.392  31.491  52.811  0.00  0.00     0.086 A 
ATOM      6  N   UNL d   1      51.871  32.044  52.502  0.00  0.00    -0.245 NA
ATOM      7  C   UNL d   1      52.279  30.673  52.647  0.00  0.00     0.021 C 
ATOM      8  C   UNL d   1      51.446  33.407  52.343  0.00  0.00     0.021 C 
ENDROOT
BRANCH   3   9
ATOM      9  C   UNL d   1      53.768  32.779  53.915  0.00  0.00     0.001 A 
ATOM     10  C   UNL d   1      54.483  32.987  53.571  0.00  0.00     0.002 A 
ATOM     11  C   UNL d   1      55.121  33.234  54.047  0.00  0.00     0.024 A 
ATOM     12  C   UNL d   1      55.038  33.271  54.862  0.00  0.00     0.094 A 
ATOM     13  C   UNL d   1      54.321  33.062  55.210  0.00  0.00     0.024 A 
ATOM     14  C   UNL d   1      53.683  32.815  54.734  0.00  0.00     0.002 A 
BRANCH  12  15
ATOM     15  O   UNL d   1      55.663  33.514  55.336  0.00  0.00    -0.328 OA
ATOM     16  C   UNL d   1      55.726  34.306  55.552  0.00  0.00     0.181 C 
ENDBRANCH  12  15
ENDBRANCH   3   9
BRANCH   2  17
ATOM     17  C   UNL d   1      53.561  31.170  53.603  0.00  0.00     0.302 C 
ATOM     18  O   UNL d   1      54.324  31.113  53.301  0.00  0.00    -0.259 OA
BRANCH  17  19
ATOM     19  O   UNL d   1      53.316  30.675  54.223  0.00  0.00    -0.271 OA
BRANCH  19  20
ATOM     20  C   UNL d   1      53.603  29.904  54.277  0.00  0.00     0.126 C 
ATOM     21  C   UNL d   1      53.346  29.407  54.879  0.00  0.00     0.029 C 
ENDBRANCH  19  20
ENDBRANCH  17  19
ENDBRANCH   2  17
BRANCH   1  22
ATOM     22  C   UNL d   1      52.728  33.904  53.299  0.00  0.00     0.302 C 
ATOM     23  O   UNL d   1      53.281  34.344  52.850  0.00  0.00    -0.259 OA
BRANCH  22  24
ATOM     24  O   UNL d   1      52.295  34.257  53.905  0.00  0.00    -0.271 OA
BRANCH  24  25
ATOM     25  C   UNL d   1      52.139  35.067  53.875  0.00  0.00     0.126 C 
ATOM     26  C   UNL d   1      52.059  35.495  54.579  0.00  0.00     0.029 C 
ENDBRANCH  24  25
ENDBRANCH  22  24
ENDBRANCH   1  22
TORSDOF 8
ENDMDL
MODEL 4
REMARK VINA RESULT:      -6.1      1.403      3.037
REMARK  8 active torsions:
REMARK  status: ('A' for Active; 'I' for Inactive)
REMARK    1  A    between atoms: C_8  and  C_1 
REMARK    2  A    between atoms: C_7  and  C_2 
REMARK    3  A    between atoms: C_9  and  C_3 
REMARK    4  A    between atoms: O_14  and  C_7 
REMARK    5  A    between atoms: O_15  and  C_8 
REMARK    6  A    between atoms: C_22  and  O_14 
REMARK    7  A    between atoms: C_23  and  O_15 
REMARK    8  A    between atoms: O_21  and  C_18 
ROOT
ATOM      1  C   UNL d   1      53.028  31.710  53.292  0.00  0.00     0.081 A 
ATOM      2  C   UNL d   1      52.609  33.060  53.132  0.00  0.00     0.081 A 
ATOM      3  C   UNL d   1      53.132  32.512  53.447  0.00  0.00     0.013 A 
ATOM      4  C   UNL d   1      52.398  31.459  52.821  0.00  0.00     0.086 A 
ATOM      5  C   UNL d   1      51.980  32.809  52.661  0.00  0.00     0.086 A 
ATOM      6  N   UNL d   1      51.875  32.011  52.506  0.00  0.00    -0.245 NA
ATOM      7  C   UNL d   1      51.443  33.371  52.338  0.00  0.00     0.021 C 
ATOM      8  C   UNL d   1      52.289  30.643  52.661  0.00  0.00     0.021 C 
ENDROOT
BRANCH   3   9
ATOM      9  C   UNL d   1      53.765  32.764  53.920  0.00  0.00     0.001 A 
ATOM     10  C   UNL d   1      54.480  32.973  53.576  0.00  0.00     0.002 A 
ATOM     11  C   UNL d   1      55.115  33.226  54.051  0.00  0.00     0.024 A 
ATOM     12  C   UNL d   1      55.030  33.268  54.866  0.00  0.00     0.094 A 
ATOM     13  C   UNL d   1      54.313  33.059  55.213  0.00  0.00     0.024 A 
ATOM     14  C   UNL d   1      53.677  32.806  54.738  0.00  0.00     0.002 A 
BRANCH  12  15
ATOM     15  O   UNL d   1      55.653  33.517  55.340  0.00  0.00    -0.328 OA
ATOM     16  C   UNL d   1      55.681  34.298  55.598  0.00  0.00     0.181 C 
ENDBRANCH  12  15
ENDBRANCH   3   9
BRANCH   2  17
ATOM     17  C   UNL d   1      52.721  33.880  53.294  0.00  0.00     0.302 C 
ATOM     18  O   UNL d   1      53.265  34.314  52.856  0.00  0.00    -0.259 OA
BRANCH  17  19
ATOM     19  O   UNL d   1      52.279  34.244  53.895  0.00  0.00    -0.271 OA
BRANCH  19  20
ATOM     20  C   UNL d   1      52.121  35.053  53.864  0.00  0.00     0.126 C 
ATOM     21  C   UNL d   1      52.032  35.485  54.557  0.00  0.00     0.029 C 
ENDBRANCH  19  20
ENDBRANCH  17  19
ENDBRANCH   2  17
BRANCH   1  22
ATOM     22  C   UNL d   1      53.566  31.153  53.617  0.00  0.00     0.302 C 
ATOM     23  O   UNL d   1      54.342  31.096  53.307  0.00  0.00    -0.259 OA
BRANCH  22  24
ATOM     24  O   UNL d   1      53.320  30.670  54.237  0.00  0.00    -0.271 OA
BRANCH  24  25
ATOM     25  C   UNL d   1      53.611  29.899  54.294  0.00  0.00     0.126 C 
ATOM     26  C   UNL d   1      53.348  29.406  54.904  0.00  0.00     0.029 C 
ENDBRANCH  24  25
ENDBRANCH  22  24
ENDBRANCH   1  22
TORSDOF 8
ENDMDL
MODEL 5
REMARK VINA RESULT:      -5.3      1.297      2.922
REMARK  8 active torsions:
REMARK  status: ('A' for Active; 'I' for Inactive)
REMARK    1  A    between atoms: C_8  and  C_1 
REMARK    2  A    between atoms: C_7  and  C_2 
REMARK    3  A    between atoms: C_9  and  C_3 
REMARK    4  A    between atoms: O_14  and  C_7 
REMARK    5  A    between atoms: O_15  and  C_8 
REMARK    6  A    between atoms: C_22  and  O_14 
REMARK    7  A    between atoms: C_23  and  O_15 
REMARK    8  A    between atoms: O_21  and  C_18 
ROOT
ATOM      1  C   UNL d   1      53.231  32.554  53.616  0.00  0.00     0.081 A 
ATOM      2  C   UNL d   1      51.876  32.898  53.355  0.00  0.00     0.081 A 
ATOM      3  C   UNL d   1      52.629  33.116  53.594  0.00  0.00     0.013 A 
ATOM      4  C   UNL d   1      53.075  31.774  53.397  0.00  0.00     0.086 A 
ATOM      5  C   UNL d   1      51.720  32.118  53.136  0.00  0.00     0.086 A 
ATOM      6  N   UNL d   1      52.318  31.558  53.158  0.00  0.00    -0.245 NA
ATOM      7  C   UNL d   1      50.947  31.893  52.891  0.00  0.00     0.021 C 
ATOM      8  C   UNL d   1      53.685  31.199  53.418  0.00  0.00     0.021 C 
ENDROOT
BRANCH   3   9
ATOM      9  C   UNL d   1      52.785  33.900  53.814  0.00  0.00     0.001 A 
ATOM     10  C   UNL d   1      52.743  34.124  54.602  0.00  0.00     0.002 A 
ATOM     11  C   UNL d   1      52.901  34.912  54.822  0.00  0.00     0.024 A 
ATOM     12  C   UNL d   1      53.098  35.468  54.253  0.00  0.00     0.094 A 
ATOM     13  C   UNL d   1      53.141  35.245  53.461  0.00  0.00     0.024 A 
ATOM     14  C   UNL d   1      52.984  34.458  53.240  0.00  0.00     0.002 A 
BRANCH  12  15
ATOM     15  O   UNL d   1      53.254  36.247  54.464  0.00  0.00    -0.328 OA
ATOM     16  C   UNL d   1      52.959  36.544  55.172  0.00  0.00     0.181 C 
ENDBRANCH  12  15
ENDBRANCH   3   9
BRANCH   2  17
ATOM     17  C   UNL d   1      51.263  33.477  53.334  0.00  0.00     0.302 C 
ATOM     18  O   UNL d   1      50.894  33.708  54.031  0.00  0.00    -0.259 OA
BRANCH  17  19
ATOM     19  O   UNL d   1      51.036  33.811  52.607  0.00  0.00    -0.271 OA
BRANCH  19  20
ATOM     20  C   UNL d   1      50.286  34.141  52.518  0.00  0.00     0.126 C 
ATOM     21  C   UNL d   1      50.070  34.491  51.806  0.00  0.00     0.029 C 
ENDBRANCH  19  20
ENDBRANCH  17  19
ENDBRANCH   2  17
BRANCH   1  22
ATOM     22  C   UNL d   1      54.001  32.783  53.862  0.00  0.00     0.302 C 
ATOM     23  O   UNL d   1      54.180  32.827  54.678  0.00  0.00    -0.259 OA
BRANCH  22  24
ATOM     24  O   UNL d   1      54.569  32.961  53.292  0.00  0.00    -0.271 OA
BRANCH  24  25
ATOM     25  C   UNL d   1      55.369  32.932  53.492  0.00  0.00     0.126 C 
ATOM     26  C   UNL d   1      55.939  33.168  52.940  0.00  0.00     0.029 C 
ENDBRANCH  24  25
ENDBRANCH  22  24
ENDBRANCH   1  22
TORSDOF 8
ENDMDL
MODEL 6
REMARK VINA RESULT:      -5.3      1.299      2.997
REMARK  8 active torsions:
REMARK  status: ('A' for Active; 'I' for Inactive)
REMARK    1  A    between atoms: C_8  and  C_1 
REMARK    2  A    between atoms: C_7  and  C_2 
REMARK    3  A    between atoms: C_9  and  C_3 
REMARK    4  A    between atoms: O_14  and  C_7 
REMARK    5  A    between atoms: O_15  and  C_8 
REMARK    6  A    between atoms: C_22  and  O_14 
REMARK    7  A    between atoms: C_23  and  O_15 
REMARK    8  A    between atoms: O_21  and  C_18 
ROOT
ATOM      1  C   UNL d   1      51.868  32.905  53.358  0.00  0.00     0.081 A 
ATOM      2  C   UNL d   1      53.220  32.550  53.616  0.00  0.00     0.081 A 
ATOM      3  C   UNL d   1      52.627  33.116  53.598  0.00  0.00     0.013 A 
ATOM      4  C   UNL d   1      51.706  32.126  53.137  0.00  0.00     0.086 A 
ATOM      5  C   UNL d   1      53.059  31.772  53.396  0.00  0.00     0.086 A 
ATOM      6  N   UNL d   1      52.304  31.561  53.157  0.00  0.00    -0.245 NA
ATOM      7  C   UNL d   1      53.668  31.192  53.415  0.00  0.00     0.021 C 
ATOM      8  C   UNL d   1      50.935  31.908  52.892  0.00  0.00     0.021 C 
ENDROOT
BRANCH   3   9
ATOM      9  C   UNL d   1      52.789  33.898  53.820  0.00  0.00     0.001 A 
ATOM     10  C   UNL d   1      52.762  34.117  54.610  0.00  0.00     0.002 A 
ATOM     11  C   UNL d   1      52.925  34.903  54.833  0.00  0.00     0.024 A 
ATOM     12  C   UNL d   1      53.114  35.462  54.264  0.00  0.00     0.094 A 
ATOM     13  C   UNL d   1      53.142  35.245  53.470  0.00  0.00     0.024 A 
ATOM     14  C   UNL d   1      52.979  34.459  53.247  0.00  0.00     0.002 A 
BRANCH  12  15
ATOM     15  O   UNL d   1      53.276  36.239  54.477  0.00  0.00    -0.328 OA
ATOM     16  C   UNL d   1      52.925  36.558  55.150  0.00  0.00     0.181 C 
ENDBRANCH  12  15
ENDBRANCH   3   9
BRANCH   2  17
ATOM     17  C   UNL d   1      53.997  32.772  53.863  0.00  0.00     0.302 C 
ATOM     18  O   UNL d   1      54.177  32.807  54.664  0.00  0.00    -0.259 OA
BRANCH  17  19
ATOM     19  O   UNL d   1      54.573  32.953  53.293  0.00  0.00    -0.271 OA
BRANCH  19  20
ATOM     20  C   UNL d   1      55.373  32.934  53.491  0.00  0.00     0.126 C 
ATOM     21  C   UNL d   1      55.938  33.207  52.960  0.00  0.00     0.029 C 
ENDBRANCH  19  20
ENDBRANCH  17  19
ENDBRANCH   2  17
BRANCH   1  22
ATOM     22  C   UNL d   1      51.263  33.488  53.340  0.00  0.00     0.302 C 
ATOM     23  O   UNL d   1      50.874  33.704  54.050  0.00  0.00    -0.259 OA
BRANCH  22  24
ATOM     24  O   UNL d   1      51.062  33.839  52.622  0.00  0.00    -0.271 OA
BRANCH  24  25
ATOM     25  C   UNL d   1      50.308  34.157  52.521  0.00  0.00     0.126 C 
ATOM     26  C   UNL d   1      50.088  34.466  51.785  0.00  0.00     0.029 C 
ENDBRANCH  24  25
ENDBRANCH  22  24
ENDBRANCH   1  22
TORSDOF 8
ENDMDL
MODEL 7
REMARK VINA RESULT:      -5.2      1.272      3.019
REMARK  8 active torsions:
REMARK  status: ('A' for Active; 'I' for Inactive)
REMARK    1  A    between atoms: C_8  and  C_1 
REMARK    2  A    between atoms: C_7  and  C_2 
REMARK    3  A    between atoms: C_9  and  C_3 
REMARK    4  A    between atoms: O_14  and  C_7 
REMARK    5  A    between atoms: O_15  and  C_8 
REMARK    6  A    between atoms: C_22  and  O_14 
REMARK    7  A    between atoms: C_23  and  O_15 
REMARK    8  A    between atoms: O_21  and  C_18 
ROOT
ATOM      1  C   UNL d   1      51.924  34.059  53.629  0.00  0.00     0.081 A 
ATOM      2  C   UNL d   1      53.111  33.937  54.403  0.00  0.00     0.081 A 
ATOM      3  C   UNL d   1      52.574  33.616  53.873  0.00  0.00     0.013 A 
ATOM      4  C   UNL d   1      51.815  34.824  53.916  0.00  0.00     0.086 A 
ATOM      5  C   UNL d   1      53.002  34.703  54.690  0.00  0.00     0.086 A 
ATOM      6  N   UNL d   1      52.356  35.145  54.448  0.00  0.00    -0.245 NA
ATOM      7  C   UNL d   1      53.554  35.034  55.234  0.00  0.00     0.021 C 
ATOM      8  C   UNL d   1      51.155  35.278  53.670  0.00  0.00     0.021 C 
ENDROOT
BRANCH   3   9
ATOM      9  C   UNL d   1      52.684  32.846  53.585  0.00  0.00     0.001 A 
ATOM     10  C   UNL d   1      52.337  32.208  53.967  0.00  0.00     0.002 A 
ATOM     11  C   UNL d   1      52.447  31.435  53.677  0.00  0.00     0.024 A 
ATOM     12  C   UNL d   1      52.903  31.308  53.007  0.00  0.00     0.094 A 
ATOM     13  C   UNL d   1      53.252  31.946  52.622  0.00  0.00     0.024 A 
ATOM     14  C   UNL d   1      53.142  32.719  52.912  0.00  0.00     0.002 A 
BRANCH  12  15
ATOM     15  O   UNL d   1      53.016  30.547  52.716  0.00  0.00    -0.328 OA
ATOM     16  C   UNL d   1      53.072  29.915  53.239  0.00  0.00     0.181 C 
ENDBRANCH  12  15
ENDBRANCH   3   9
BRANCH   2  17
ATOM     17  C   UNL d   1      53.775  33.479  54.650  0.00  0.00     0.302 C 
ATOM     18  O   UNL d   1      53.678  32.886  55.211  0.00  0.00    -0.259 OA
BRANCH  17  19
ATOM     19  O   UNL d   1      54.524  33.631  54.324  0.00  0.00    -0.271 OA
BRANCH  19  20
ATOM     20  C   UNL d   1      55.205  33.497  54.768  0.00  0.00     0.126 C 
ATOM     21  C   UNL d   1      55.939  33.737  54.485  0.00  0.00     0.029 C 
ENDBRANCH  19  20
ENDBRANCH  17  19
ENDBRANCH   2  17
BRANCH   1  22
ATOM     22  C   UNL d   1      51.377  33.724  53.086  0.00  0.00     0.302 C 
ATOM     23  O   UNL d   1      50.823  33.156  53.353  0.00  0.00    -0.259 OA
BRANCH  22  24
ATOM     24  O   UNL d   1      51.395  33.963  52.298  0.00  0.00    -0.271 OA
BRANCH  24  25
ATOM     25  C   UNL d   1      50.694  33.983  51.862  0.00  0.00     0.126 C 
ATOM     26  C   UNL d   1      50.707  34.238  51.075  0.00  0.00     0.029 C 
ENDBRANCH  24  25
ENDBRANCH  22  24
ENDBRANCH   1  22
TORSDOF 8
ENDMDL
MODEL 8
REMARK VINA RESULT:      -5.1      1.273      3.292
REMARK  8 active torsions:
REMARK  status: ('A' for Active; 'I' for Inactive)
REMARK    1  A    between atoms: C_8  and  C_1 
REMARK    2  A    between atoms: C_7  and  C_2 
REMARK    3  A    between atoms: C_9  and  C_3 
REMARK    4  A    between atoms: O_14  and  C_7 
REMARK    5  A    between atoms: O_15  and  C_8 
REMARK    6  A    between atoms: C_22  and  O_14 
REMARK    7  A    between atoms: C_23  and  O_15 
REMARK    8  A    between atoms: O_21  and  C_18 
ROOT
ATOM      1  C   UNL d   1      53.115  33.938  54.371  0.00  0.00     0.081 A 
ATOM      2  C   UNL d   1      51.926  34.072  53.602  0.00  0.00     0.081 A 
ATOM      3  C   UNL d   1      52.574  33.626  53.835  0.00  0.00     0.013 A 
ATOM      4  C   UNL d   1      53.006  34.699  54.672  0.00  0.00     0.086 A 
ATOM      5  C   UNL d   1      51.817  34.832  53.903  0.00  0.00     0.086 A 
ATOM      6  N   UNL d   1      52.356  35.145  54.436  0.00  0.00    -0.245 NA
ATOM      7  C   UNL d   1      51.153  35.291  53.664  0.00  0.00     0.021 C 
ATOM      8  C   UNL d   1      53.556  35.020  55.217  0.00  0.00     0.021 C 
ENDROOT
BRANCH   3   9
ATOM      9  C   UNL d   1      52.683  32.862  53.532  0.00  0.00     0.001 A 
ATOM     10  C   UNL d   1      52.344  32.216  53.908  0.00  0.00     0.002 A 
ATOM     11  C   UNL d   1      52.454  31.449  53.604  0.00  0.00     0.024 A 
ATOM     12  C   UNL d   1      52.903  31.334  52.927  0.00  0.00     0.094 A 
ATOM     13  C   UNL d   1      53.244  31.980  52.548  0.00  0.00     0.024 A 
ATOM     14  C   UNL d   1      53.134  32.748  52.852  0.00  0.00     0.002 A 
BRANCH  12  15
ATOM     15  O   UNL d   1      53.015  30.579  52.622  0.00  0.00    -0.328 OA
ATOM     16  C   UNL d   1      52.940  29.925  53.116  0.00  0.00     0.181 C 
ENDBRANCH  12  15
ENDBRANCH   3   9
BRANCH   2  17
ATOM     17  C   UNL d   1      51.374  33.747  53.053  0.00  0.00     0.302 C 
ATOM     18  O   UNL d   1      50.833  33.180  53.302  0.00  0.00    -0.259 OA
BRANCH  17  19
ATOM     19  O   UNL d   1      51.381  34.003  52.262  0.00  0.00    -0.271 OA
BRANCH  19  20
ATOM     20  C   UNL d   1      50.680  34.039  51.831  0.00  0.00     0.126 C 
ATOM     21  C   UNL d   1      50.687  34.291  51.049  0.00  0.00     0.029 C 
ENDBRANCH  19  20
ENDBRANCH  17  19
ENDBRANCH   2  17
BRANCH   1  22
ATOM     22  C   UNL d   1      53.777  33.477  54.606  0.00  0.00     0.302 C 
ATOM     23  O   UNL d   1      53.677  32.865  55.168  0.00  0.00    -0.259 OA
BRANCH  22  24
ATOM     24  O   UNL d   1      54.516  33.636  54.277  0.00  0.00    -0.271 OA
BRANCH  24  25
ATOM     25  C   UNL d   1      55.199  33.453  54.703  0.00  0.00     0.126 C 
ATOM     26  C   UNL d   1      55.935  33.710  54.427  0.00  0.00     0.029 C 
ENDBRANCH  24  25
ENDBRANCH  22  24
ENDBRANCH   1  22
TORSDOF 8
ENDMDL
