MODEL 1
REMARK VINA RESULT:       6.0      0.000      0.000
REMARK  1 active torsions:
REMARK  status: ('A' for Active; 'I' for Inactive)
REMARK    1  A    between atoms: C_6  and  C_2 
ROOT
ATOM      1  S   UNL d   1     -50.848  25.616  33.325  0.00  0.00    -0.024 SA
ATOM      2  C   UNL d   1     -51.652  25.455  33.333  0.00  0.00     0.135 A 
ATOM      3  N   UNL d   1     -52.064  26.168  33.335  0.00  0.00    -0.139 NA
ATOM      4  C   UNL d   1     -50.764  26.436  33.322  0.00  0.00     0.236 A 
ATOM      5  N   UNL d   1     -51.504  26.777  33.328  0.00  0.00    -0.119 NA
ATOM      6  N   UNL d   1     -50.045  26.841  33.314  0.00  0.00    -0.118 N 
ENDROOT
BRANCH   2   7
ATOM      7  C   UNL d   1     -51.992  24.704  33.338  0.00  0.00     0.029 A 
ATOM      8  C   UNL d   1     -52.806  24.612  33.369  0.00  0.00     0.023 A 
ATOM      9  C   UNL d   1     -53.148  23.858  33.374  0.00  0.00     0.099 A 
ATOM     10  N   UNL d   1     -52.678  23.193  33.348  0.00  0.00    -0.242 NA
ATOM     11  C   UNL d   1     -51.860  23.274  33.316  0.00  0.00     0.099 A 
ATOM     12  C   UNL d   1     -51.518  24.028  33.311  0.00  0.00     0.023 A 
ENDBRANCH   2   7
TORSDOF 1
ENDMDL
