MODEL 1
REMARK VINA RESULT:      -5.9      0.000      0.000
REMARK  2 active torsions:
REMARK  status: ('A' for Active; 'I' for Inactive)
REMARK    1  A    between atoms: N_2  and  S_1 
REMARK    2  A    between atoms: C_8  and  S_1 
ROOT
ATOM      1  N   UNL d   1     -41.491-123.013 -53.479  0.00  0.00    -0.231 N 
ATOM      2  C   UNL d   1     -41.125-123.656 -53.826  0.00  0.00     0.092 A 
ATOM      3  C   UNL d   1     -41.855-122.578 -54.078  0.00  0.00     0.075 A 
ATOM      4  C   UNL d   1     -41.257-123.626 -54.639  0.00  0.00     0.021 A 
ATOM      5  C   UNL d   1     -41.709-122.959 -54.798  0.00  0.00     0.018 A 
ATOM      6  C   UNL d   1     -42.298-121.887 -54.060  0.00  0.00     0.018 A 
ATOM      7  C   UNL d   1     -42.008-122.646 -55.496  0.00  0.00     0.002 A 
ATOM      8  C   UNL d   1     -42.600-121.570 -54.762  0.00  0.00     0.002 A 
ATOM      9  C   UNL d   1     -42.454-121.950 -55.482  0.00  0.00     0.000 A 
ENDROOT
BRANCH   1  10
ATOM     10  S   UNL d   1     -41.497-122.831 -52.674  0.00  0.00     0.271 S 
ATOM     11  O   UNL d   1     -41.872-123.553 -52.517  0.00  0.00    -0.200 OA
ATOM     12  O   UNL d   1     -41.124-122.112 -52.835  0.00  0.00    -0.200 OA
BRANCH  10  13
ATOM     13  C   UNL d   1     -41.502-122.645 -51.868  0.00  0.00     0.104 A 
ATOM     14  C   UNL d   1     -41.159-121.949 -51.600  0.00  0.00     0.013 A 
ATOM     15  C   UNL d   1     -41.164-121.766 -50.804  0.00  0.00     0.001 A 
ATOM     16  C   UNL d   1     -41.516-122.283 -50.262  0.00  0.00     0.000 A 
ATOM     17  C   UNL d   1     -41.860-122.980 -50.523  0.00  0.00     0.001 A 
ATOM     18  C   UNL d   1     -41.854-123.164 -51.329  0.00  0.00     0.013 A 
ENDBRANCH  10  13
ENDBRANCH   1  10
TORSDOF 2
ENDMDL
MODEL 2
REMARK VINA RESULT:      -5.8      0.808      3.443
REMARK  2 active torsions:
REMARK  status: ('A' for Active; 'I' for Inactive)
REMARK    1  A    between atoms: N_2  and  S_1 
REMARK    2  A    between atoms: C_8  and  S_1 
ROOT
ATOM      1  N   UNL d   1     -41.473-123.006 -52.953  0.00  0.00    -0.231 N 
ATOM      2  C   UNL d   1     -41.301-123.781 -52.756  0.00  0.00     0.092 A 
ATOM      3  C   UNL d   1     -41.420-122.555 -52.264  0.00  0.00     0.075 A 
ATOM      4  C   UNL d   1     -41.142-123.817 -51.949  0.00  0.00     0.021 A 
ATOM      5  C   UNL d   1     -41.215-123.058 -51.641  0.00  0.00     0.018 A 
ATOM      6  C   UNL d   1     -41.533-121.753 -52.126  0.00  0.00     0.018 A 
ATOM      7  C   UNL d   1     -41.123-122.757 -50.882  0.00  0.00     0.002 A 
ATOM      8  C   UNL d   1     -41.441-121.448 -51.363  0.00  0.00     0.002 A 
ATOM      9  C   UNL d   1     -41.236-121.951 -50.740  0.00  0.00     0.000 A 
ENDROOT
BRANCH   1  10
ATOM     10  S   UNL d   1     -41.664-122.724 -53.705  0.00  0.00     0.271 S 
ATOM     11  O   UNL d   1     -41.123-122.103 -53.605  0.00  0.00    -0.200 OA
ATOM     12  O   UNL d   1     -42.201-123.344 -53.800  0.00  0.00    -0.200 OA
BRANCH  10  13
ATOM     13  C   UNL d   1     -41.857-122.444 -54.459  0.00  0.00     0.104 A 
ATOM     14  C   UNL d   1     -42.641-122.313 -54.664  0.00  0.00     0.013 A 
ATOM     15  C   UNL d   1     -42.832-122.036 -55.409  0.00  0.00     0.001 A 
ATOM     16  C   UNL d   1     -42.233-121.886 -55.961  0.00  0.00     0.000 A 
ATOM     17  C   UNL d   1     -41.449-122.015 -55.762  0.00  0.00     0.001 A 
ATOM     18  C   UNL d   1     -41.257-122.295 -55.008  0.00  0.00     0.013 A 
ENDBRANCH  10  13
ENDBRANCH   1  10
TORSDOF 2
ENDMDL
MODEL 3
REMARK VINA RESULT:      -5.6      1.955      3.033
REMARK  2 active torsions:
REMARK  status: ('A' for Active; 'I' for Inactive)
REMARK    1  A    between atoms: N_2  and  S_1 
REMARK    2  A    between atoms: C_8  and  S_1 
ROOT
ATOM      1  N   UNL d   1     -41.693-122.393 -50.762  0.00  0.00    -0.231 N 
ATOM      2  C   UNL d   1     -41.567-121.594 -50.882  0.00  0.00     0.092 A 
ATOM      3  C   UNL d   1     -41.537-122.781 -51.474  0.00  0.00     0.075 A 
ATOM      4  C   UNL d   1     -41.333-121.480 -51.663  0.00  0.00     0.021 A 
ATOM      5  C   UNL d   1     -41.313-122.214 -52.033  0.00  0.00     0.018 A 
ATOM      6  C   UNL d   1     -41.570-123.575 -51.683  0.00  0.00     0.018 A 
ATOM      7  C   UNL d   1     -41.124-122.444 -52.798  0.00  0.00     0.002 A 
ATOM      8  C   UNL d   1     -41.379-123.808 -52.453  0.00  0.00     0.002 A 
ATOM      9  C   UNL d   1     -41.155-123.242 -53.012  0.00  0.00     0.000 A 
ENDROOT
BRANCH   1  10
ATOM     10  S   UNL d   1     -41.934-122.749 -50.058  0.00  0.00     0.271 S 
ATOM     11  O   UNL d   1     -41.152-122.723 -49.782  0.00  0.00    -0.200 OA
ATOM     12  O   UNL d   1     -42.711-122.774 -50.336  0.00  0.00    -0.200 OA
BRANCH  10  13
ATOM     13  C   UNL d   1     -42.178-123.107 -49.352  0.00  0.00     0.104 A 
ATOM     14  C   UNL d   1     -42.973-123.261 -49.218  0.00  0.00     0.013 A 
ATOM     15  C   UNL d   1     -43.213-123.613 -48.522  0.00  0.00     0.001 A 
ATOM     16  C   UNL d   1     -42.654-123.817 -47.946  0.00  0.00     0.000 A 
ATOM     17  C   UNL d   1     -41.858-123.666 -48.074  0.00  0.00     0.001 A 
ATOM     18  C   UNL d   1     -41.616-123.309 -48.779  0.00  0.00     0.013 A 
ENDBRANCH  10  13
ENDBRANCH   1  10
TORSDOF 2
ENDMDL
