MODEL 1
REMARK VINA RESULT:      -8.4      0.000      0.000
REMARK  4 active torsions:
REMARK  status: ('A' for Active; 'I' for Inactive)
REMARK    1  A    between atoms: C_6  and  C_1 
REMARK    2  A    between atoms: N_7  and  C_2 
REMARK    3  A    between atoms: C_8  and  C_5 
REMARK    4  A    between atoms: O_10  and  C_6 
ROOT
ATOM      1  C   UNL d   1      53.468  33.140  54.076  0.00  0.00     0.186 A 
ATOM      2  C   UNL d   1      54.222  32.886  54.365  0.00  0.00     0.193 A 
ATOM      3  N   UNL d   1      53.107  32.514  53.712  0.00  0.00    -0.213 NA
ATOM      4  O   UNL d   1      54.290  32.068  54.152  0.00  0.00    -0.271 OA
ATOM      5  C   UNL d   1      53.574  31.882  53.749  0.00  0.00     0.184 A 
ENDROOT
BRANCH   5   6
ATOM      6  C   UNL d   1      53.229  31.311  53.409  0.00  0.00     0.041 A 
ATOM      7  C   UNL d   1      53.650  30.787  53.910  0.00  0.00     0.004 A 
ATOM      8  C   UNL d   1      53.540  29.969  53.847  0.00  0.00     0.000 A 
ATOM      9  C   UNL d   1      53.010  29.677  53.285  0.00  0.00     0.000 A 
ATOM     10  C   UNL d   1      52.590  30.201  52.784  0.00  0.00     0.000 A 
ATOM     11  C   UNL d   1      52.711  31.001  52.860  0.00  0.00     0.004 A 
ENDBRANCH   5   6
BRANCH   1  12
ATOM     12  C   UNL d   1      53.350  33.823  54.225  0.00  0.00     0.317 C 
ATOM     13  O   UNL d   1      53.227  34.311  54.950  0.00  0.00    -0.257 OA
BRANCH  12  14
ATOM     14  O   UNL d   1      53.289  34.398  53.771  0.00  0.00    -0.294 OA
ATOM     15  C   UNL d   1      52.641  34.952  53.670  0.00  0.00     0.185 C 
ENDBRANCH  12  14
ENDBRANCH   1  12
BRANCH   2  16
ATOM     16  N   UNL d   1      54.544  33.370  54.667  0.00  0.00    -0.281 N 
ATOM     17  C   UNL d   1      55.183  33.320  54.180  0.00  0.00     0.101 C 
ATOM     18  C   UNL d   1      54.530  33.906  55.254  0.00  0.00     0.101 C 
ENDBRANCH   2  16
TORSDOF 4
ENDMDL
MODEL 2
REMARK VINA RESULT:      -8.3      1.276      1.713
REMARK  4 active torsions:
REMARK  status: ('A' for Active; 'I' for Inactive)
REMARK    1  A    between atoms: C_6  and  C_1 
REMARK    2  A    between atoms: N_7  and  C_2 
REMARK    3  A    between atoms: C_8  and  C_5 
REMARK    4  A    between atoms: O_10  and  C_6 
ROOT
ATOM      1  C   UNL d   1      52.194  33.317  53.076  0.00  0.00     0.186 A 
ATOM      2  C   UNL d   1      52.876  33.535  53.528  0.00  0.00     0.193 A 
ATOM      3  N   UNL d   1      52.208  32.516  52.961  0.00  0.00    -0.213 NA
ATOM      4  O   UNL d   1      53.299  32.816  53.675  0.00  0.00    -0.271 OA
ATOM      5  C   UNL d   1      52.846  32.210  53.304  0.00  0.00     0.184 A 
ENDROOT
BRANCH   5   6
ATOM      6  C   UNL d   1      52.846  31.471  53.190  0.00  0.00     0.041 A 
ATOM      7  C   UNL d   1      53.536  31.420  53.663  0.00  0.00     0.004 A 
ATOM      8  C   UNL d   1      53.897  30.687  53.801  0.00  0.00     0.000 A 
ATOM      9  C   UNL d   1      53.567  30.008  53.466  0.00  0.00     0.000 A 
ATOM     10  C   UNL d   1      52.877  30.059  52.993  0.00  0.00     0.000 A 
ATOM     11  C   UNL d   1      52.537  30.787  52.869  0.00  0.00     0.004 A 
ENDBRANCH   5   6
BRANCH   1  12
ATOM     12  C   UNL d   1      51.795  33.881  52.920  0.00  0.00     0.317 C 
ATOM     13  O   UNL d   1      51.865  34.594  52.404  0.00  0.00    -0.257 OA
BRANCH  12  14
ATOM     14  O   UNL d   1      51.128  34.067  53.166  0.00  0.00    -0.294 OA
ATOM     15  C   UNL d   1      50.415  34.259  52.729  0.00  0.00     0.185 C 
ENDBRANCH  12  14
ENDBRANCH   1  12
BRANCH   2  16
ATOM     16  N   UNL d   1      52.898  34.180  53.641  0.00  0.00    -0.281 N 
ATOM     17  C   UNL d   1      53.036  34.091  54.429  0.00  0.00     0.101 C 
ATOM     18  C   UNL d   1      52.845  34.908  53.324  0.00  0.00     0.101 C 
ENDBRANCH   2  16
TORSDOF 4
ENDMDL
MODEL 3
REMARK VINA RESULT:      -8.0      1.406      3.698
REMARK  4 active torsions:
REMARK  status: ('A' for Active; 'I' for Inactive)
REMARK    1  A    between atoms: C_6  and  C_1 
REMARK    2  A    between atoms: N_7  and  C_2 
REMARK    3  A    between atoms: C_8  and  C_5 
REMARK    4  A    between atoms: O_10  and  C_6 
ROOT
ATOM      1  C   UNL d   1      53.336  30.838  53.965  0.00  0.00     0.186 A 
ATOM      2  C   UNL d   1      53.176  31.237  53.236  0.00  0.00     0.193 A 
ATOM      3  N   UNL d   1      53.686  31.361  54.474  0.00  0.00    -0.213 NA
ATOM      4  O   UNL d   1      53.452  32.031  53.340  0.00  0.00    -0.271 OA
ATOM      5  C   UNL d   1      53.760  32.061  54.123  0.00  0.00     0.184 A 
ENDROOT
BRANCH   5   6
ATOM      6  C   UNL d   1      54.084  32.534  54.603  0.00  0.00     0.041 A 
ATOM      7  C   UNL d   1      54.494  32.876  53.957  0.00  0.00     0.004 A 
ATOM      8  C   UNL d   1      55.017  33.507  54.079  0.00  0.00     0.000 A 
ATOM      9  C   UNL d   1      55.129  33.794  54.845  0.00  0.00     0.000 A 
ATOM     10  C   UNL d   1      54.719  33.452  55.491  0.00  0.00     0.000 A 
ATOM     11  C   UNL d   1      54.210  32.833  55.353  0.00  0.00     0.004 A 
ENDBRANCH   5   6
BRANCH   1  12
ATOM     12  C   UNL d   1      53.126  30.161  53.941  0.00  0.00     0.317 C 
ATOM     13  O   UNL d   1      52.374  29.726  53.787  0.00  0.00    -0.257 OA
BRANCH  12  14
ATOM     14  O   UNL d   1      53.514  29.546  54.050  0.00  0.00    -0.294 OA
ATOM     15  C   UNL d   1      53.378  28.899  54.597  0.00  0.00     0.185 C 
ENDBRANCH  12  14
ENDBRANCH   1  12
BRANCH   2  16
ATOM     16  N   UNL d   1      52.892  30.842  52.798  0.00  0.00    -0.281 N 
ATOM     17  C   UNL d   1      52.302  31.363  52.632  0.00  0.00     0.101 C 
ATOM     18  C   UNL d   1      52.919  30.138  52.429  0.00  0.00     0.101 C 
ENDBRANCH   2  16
TORSDOF 4
ENDMDL
MODEL 4
REMARK VINA RESULT:      -7.8      1.619      3.008
REMARK  4 active torsions:
REMARK  status: ('A' for Active; 'I' for Inactive)
REMARK    1  A    between atoms: C_6  and  C_1 
REMARK    2  A    between atoms: N_7  and  C_2 
REMARK    3  A    between atoms: C_8  and  C_5 
REMARK    4  A    between atoms: O_10  and  C_6 
ROOT
ATOM      1  C   UNL d   1      53.120  33.117  54.008  0.00  0.00     0.186 A 
ATOM      2  C   UNL d   1      53.242  32.619  53.334  0.00  0.00     0.193 A 
ATOM      3  N   UNL d   1      52.417  33.506  53.915  0.00  0.00    -0.213 NA
ATOM      4  O   UNL d   1      52.569  32.735  52.833  0.00  0.00    -0.271 OA
ATOM      5  C   UNL d   1      52.084  33.294  53.235  0.00  0.00     0.184 A 
ENDROOT
BRANCH   5   6
ATOM      6  C   UNL d   1      51.436  33.660  53.162  0.00  0.00     0.041 A 
ATOM      7  C   UNL d   1      51.603  33.752  52.347  0.00  0.00     0.004 A 
ATOM      8  C   UNL d   1      51.071  34.149  51.851  0.00  0.00     0.000 A 
ATOM      9  C   UNL d   1      50.375  34.454  52.172  0.00  0.00     0.000 A 
ATOM     10  C   UNL d   1      50.207  34.363  52.988  0.00  0.00     0.000 A 
ATOM     11  C   UNL d   1      50.741  33.970  53.460  0.00  0.00     0.004 A 
ENDBRANCH   5   6
BRANCH   1  12
ATOM     12  C   UNL d   1      53.655  33.065  54.469  0.00  0.00     0.317 C 
ATOM     13  O   UNL d   1      53.963  32.457  55.030  0.00  0.00    -0.257 OA
BRANCH  12  14
ATOM     14  O   UNL d   1      54.175  33.555  54.642  0.00  0.00    -0.294 OA
ATOM     15  C   UNL d   1      54.467  33.799  55.411  0.00  0.00     0.185 C 
ENDBRANCH  12  14
ENDBRANCH   1  12
BRANCH   2  16
ATOM     16  N   UNL d   1      53.805  32.287  53.375  0.00  0.00    -0.281 N 
ATOM     17  C   UNL d   1      53.449  31.569  53.297  0.00  0.00     0.101 C 
ATOM     18  C   UNL d   1      54.594  32.334  53.461  0.00  0.00     0.101 C 
ENDBRANCH   2  16
TORSDOF 4
ENDMDL
MODEL 5
REMARK VINA RESULT:      -7.5      1.241      3.445
REMARK  4 active torsions:
REMARK  status: ('A' for Active; 'I' for Inactive)
REMARK    1  A    between atoms: C_6  and  C_1 
REMARK    2  A    between atoms: N_7  and  C_2 
REMARK    3  A    between atoms: C_8  and  C_5 
REMARK    4  A    between atoms: O_10  and  C_6 
ROOT
ATOM      1  C   UNL d   1      53.081  32.167  53.308  0.00  0.00     0.186 A 
ATOM      2  C   UNL d   1      52.532  32.807  53.383  0.00  0.00     0.193 A 
ATOM      3  N   UNL d   1      53.781  32.388  53.648  0.00  0.00    -0.213 NA
ATOM      4  O   UNL d   1      52.947  33.425  53.788  0.00  0.00    -0.271 OA
ATOM      5  C   UNL d   1      53.718  33.119  53.931  0.00  0.00     0.184 A 
ENDROOT
BRANCH   5   6
ATOM      6  C   UNL d   1      54.372  33.311  54.242  0.00  0.00     0.041 A 
ATOM      7  C   UNL d   1      53.945  33.642  54.883  0.00  0.00     0.004 A 
ATOM      8  C   UNL d   1      54.348  33.999  55.514  0.00  0.00     0.000 A 
ATOM      9  C   UNL d   1      55.172  34.023  55.502  0.00  0.00     0.000 A 
ATOM     10  C   UNL d   1      55.599  33.692  54.861  0.00  0.00     0.000 A 
ATOM     11  C   UNL d   1      55.188  33.346  54.250  0.00  0.00     0.004 A 
ENDBRANCH   5   6
BRANCH   1  12
ATOM     12  C   UNL d   1      52.790  31.614  52.974  0.00  0.00     0.317 C 
ATOM     13  O   UNL d   1      52.509  31.431  52.158  0.00  0.00    -0.257 OA
BRANCH  12  14
ATOM     14  O   UNL d   1      52.615  30.949  53.234  0.00  0.00    -0.294 OA
ATOM     15  C   UNL d   1      52.883  30.172  52.984  0.00  0.00     0.185 C 
ENDBRANCH  12  14
ENDBRANCH   1  12
BRANCH   2  16
ATOM     16  N   UNL d   1      51.950  32.662  53.118  0.00  0.00    -0.281 N 
ATOM     17  C   UNL d   1      51.925  33.334  52.676  0.00  0.00     0.101 C 
ATOM     18  C   UNL d   1      51.353  32.138  53.084  0.00  0.00     0.101 C 
ENDBRANCH   2  16
TORSDOF 4
ENDMDL
