MODEL 1
REMARK VINA RESULT:      -2.9      0.000      0.000
REMARK  6 active torsions:
REMARK  status: ('A' for Active; 'I' for Inactive)
REMARK       I    between atoms: C_2  and  N_1 
REMARK    1  A    between atoms: C_8  and  C_2 
REMARK    2  A    between atoms: C_11  and  C_3 
REMARK       I    between atoms: C_4  and  N_6 
REMARK    3  A    between atoms: C_5  and  C_4 
REMARK       I    between atoms: N_7  and  C_5 
REMARK    4  A    between atoms: N_6  and  C_11 
REMARK    5  A    between atoms: C_17  and  N_7 
REMARK    6  A    between atoms: C_20  and  C_17 
ROOT
ATOM      1  C   UNL d   1      31.847  17.737 -24.216  0.00  0.00     0.146 C 
ENDROOT
BRANCH   1   2
ATOM      2  N   UNL d   1      32.160  18.263 -24.768  0.00  0.00    -0.199 NA
ATOM      3  C   UNL d   1      32.693  18.838 -24.527  0.00  0.00     0.337 C 
ATOM      4  O   UNL d   1      33.006  19.364 -25.080  0.00  0.00    -0.260 OA
BRANCH   3   5
ATOM      5  C   UNL d   1      32.922  18.896 -23.734  0.00  0.00     0.337 C 
ATOM      6  N   UNL d   1      32.832  19.597 -23.331  0.00  0.00    -0.202 NA
ATOM      7  O   UNL d   1      33.241  18.238 -23.354  0.00  0.00    -0.260 OA
BRANCH   6   8
ATOM      8  C   UNL d   1      33.060  19.655 -22.537  0.00  0.00     0.102 C 
BRANCH   8   9
ATOM      9  C   UNL d   1      32.925  20.344 -22.112  0.00  0.00     0.019 A 
ATOM     10  C   UNL d   1      33.241  21.059 -22.351  0.00  0.00     0.002 A 
ATOM     11  C   UNL d   1      33.113  21.749 -21.937  0.00  0.00     0.011 A 
ATOM     12  C   UNL d   1      32.643  21.725 -21.245  0.00  0.00     0.058 A 
ATOM     13  C   UNL d   1      32.318  21.013 -20.991  0.00  0.00     0.011 A 
ATOM     14 CL   UNL d   1      32.507  22.427 -20.815  0.00  0.00    -0.082 Cl
ATOM     15  C   UNL d   1      32.455  20.320 -21.420  0.00  0.00     0.002 A 
ENDBRANCH   8   9
ENDBRANCH   6   8
ENDBRANCH   3   5
ENDBRANCH   1   2
BRANCH   1  16
ATOM     16  C   UNL d   1      31.592  16.992 -24.455  0.00  0.00     0.190 A 
ATOM     17  N   UNL d   1      30.845  16.674 -24.313  0.00  0.00    -0.250 N 
ATOM     18  C   UNL d   1      30.222  17.041 -23.909  0.00  0.00     0.266 C 
ATOM     19  C   UNL d   1      30.834  15.921 -24.649  0.00  0.00     0.112 A 
ATOM     20  O   UNL d   1      30.315  17.798 -23.602  0.00  0.00    -0.267 OA
ATOM     21  C   UNL d   1      31.570  15.769 -24.999  0.00  0.00     0.144 A 
ATOM     22  O   UNL d   1      32.040  16.432 -24.879  0.00  0.00    -0.285 OA
BRANCH  18  23
ATOM     23  C   UNL d   1      29.493  16.639 -23.811  0.00  0.00     0.057 A 
ATOM     24  C   UNL d   1      29.442  15.996 -23.308  0.00  0.00     0.006 A 
ATOM     25  C   UNL d   1      28.723  15.601 -23.213  0.00  0.00     0.012 A 
ATOM     26  C   UNL d   1      28.058  15.854 -23.625  0.00  0.00     0.058 A 
ATOM     27  C   UNL d   1      28.110  16.505 -24.134  0.00  0.00     0.012 A 
ATOM     28 CL   UNL d   1      27.331  15.453 -23.527  0.00  0.00    -0.082 Cl
ATOM     29  C   UNL d   1      28.823  16.890 -24.223  0.00  0.00     0.006 A 
ENDBRANCH  18  23
ENDBRANCH   1  16
TORSDOF 6
ENDMDL
MODEL 2
REMARK VINA RESULT:      -0.8      3.536      5.296
REMARK  6 active torsions:
REMARK  status: ('A' for Active; 'I' for Inactive)
REMARK       I    between atoms: C_2  and  N_1 
REMARK    1  A    between atoms: C_8  and  C_2 
REMARK    2  A    between atoms: C_11  and  C_3 
REMARK       I    between atoms: C_4  and  N_6 
REMARK    3  A    between atoms: C_5  and  C_4 
REMARK       I    between atoms: N_7  and  C_5 
REMARK    4  A    between atoms: N_6  and  C_11 
REMARK    5  A    between atoms: C_17  and  N_7 
REMARK    6  A    between atoms: C_20  and  C_17 
ROOT
ATOM      1  C   UNL d   1      32.664  22.074 -21.539  0.00  0.00     0.146 C 
ENDROOT
BRANCH   1   2
ATOM      2  N   UNL d   1      31.929  22.425 -21.419  0.00  0.00    -0.199 NA
ATOM      3  C   UNL d   1      31.838  22.992 -20.832  0.00  0.00     0.337 C 
ATOM      4  O   UNL d   1      31.101  23.344 -20.712  0.00  0.00    -0.260 OA
BRANCH   3   5
ATOM      5  C   UNL d   1      32.479  23.216 -20.359  0.00  0.00     0.337 C 
ATOM      6  N   UNL d   1      32.431  23.161 -19.548  0.00  0.00    -0.202 NA
ATOM      7  O   UNL d   1      33.168  23.494 -20.714  0.00  0.00    -0.260 OA
BRANCH   6   8
ATOM      8  C   UNL d   1      33.072  23.385 -19.075  0.00  0.00     0.102 C 
BRANCH   8   9
ATOM      9  C   UNL d   1      33.113  23.151 -18.290  0.00  0.00     0.019 A 
ATOM     10  C   UNL d   1      33.072  23.696 -17.681  0.00  0.00     0.002 A 
ATOM     11  C   UNL d   1      33.112  23.475 -16.899  0.00  0.00     0.011 A 
ATOM     12  C   UNL d   1      33.198  22.665 -16.710  0.00  0.00     0.058 A 
ATOM     13  C   UNL d   1      33.241  22.104 -17.310  0.00  0.00     0.011 A 
ATOM     14 CL   UNL d   1      33.239  22.430 -15.910  0.00  0.00    -0.082 Cl
ATOM     15  C   UNL d   1      33.199  22.340 -18.100  0.00  0.00     0.002 A 
ENDBRANCH   8   9
ENDBRANCH   6   8
ENDBRANCH   3   5
ENDBRANCH   1   2
BRANCH   1  16
ATOM     16  C   UNL d   1      32.878  21.811 -22.289  0.00  0.00     0.190 A 
ATOM     17  N   UNL d   1      32.952  21.023 -22.517  0.00  0.00    -0.250 N 
ATOM     18  C   UNL d   1      32.828  20.359 -22.039  0.00  0.00     0.266 C 
ATOM     19  C   UNL d   1      33.175  21.020 -23.310  0.00  0.00     0.112 A 
ATOM     20  O   UNL d   1      32.606  20.449 -21.252  0.00  0.00    -0.267 OA
ATOM     21  C   UNL d   1      33.239  21.801 -23.579  0.00  0.00     0.144 A 
ATOM     22  O   UNL d   1      33.055  22.293 -22.945  0.00  0.00    -0.285 OA
BRANCH  18  23
ATOM     23  C   UNL d   1      32.928  19.589 -22.357  0.00  0.00     0.057 A 
ATOM     24  C   UNL d   1      32.813  19.458 -23.157  0.00  0.00     0.006 A 
ATOM     25  C   UNL d   1      32.912  18.700 -23.470  0.00  0.00     0.012 A 
ATOM     26  C   UNL d   1      33.125  18.078 -22.977  0.00  0.00     0.058 A 
ATOM     27  C   UNL d   1      33.241  18.211 -22.168  0.00  0.00     0.012 A 
ATOM     28 CL   UNL d   1      33.224  17.311 -23.295  0.00  0.00    -0.082 Cl
ATOM     29  C   UNL d   1      33.142  18.962 -21.866  0.00  0.00     0.006 A 
ENDBRANCH  18  23
ENDBRANCH   1  16
TORSDOF 6
ENDMDL
MODEL 3
REMARK VINA RESULT:       0.1      2.369      3.695
REMARK  6 active torsions:
REMARK  status: ('A' for Active; 'I' for Inactive)
REMARK       I    between atoms: C_2  and  N_1 
REMARK    1  A    between atoms: C_8  and  C_2 
REMARK    2  A    between atoms: C_11  and  C_3 
REMARK       I    between atoms: C_4  and  N_6 
REMARK    3  A    between atoms: C_5  and  C_4 
REMARK       I    between atoms: N_7  and  C_5 
REMARK    4  A    between atoms: N_6  and  C_11 
REMARK    5  A    between atoms: C_17  and  N_7 
REMARK    6  A    between atoms: C_20  and  C_17 
ROOT
ATOM      1  C   UNL d   1      33.011  20.814 -23.143  0.00  0.00     0.146 C 
ENDROOT
BRANCH   1   2
ATOM      2  N   UNL d   1      33.093  21.628 -23.238  0.00  0.00    -0.199 NA
ATOM      3  C   UNL d   1      32.975  22.127 -22.597  0.00  0.00     0.337 C 
ATOM      4  O   UNL d   1      33.057  22.943 -22.692  0.00  0.00    -0.260 OA
BRANCH   3   5
ATOM      5  C   UNL d   1      32.774  21.821 -21.855  0.00  0.00     0.337 C 
ATOM      6  N   UNL d   1      33.108  22.128 -21.180  0.00  0.00    -0.202 NA
ATOM      7  O   UNL d   1      32.233  21.202 -21.804  0.00  0.00    -0.260 OA
BRANCH   6   8
ATOM      8  C   UNL d   1      32.907  21.822 -20.437  0.00  0.00     0.102 C 
BRANCH   8   9
ATOM      9  C   UNL d   1      32.955  22.290 -19.765  0.00  0.00     0.019 A 
ATOM     10  C   UNL d   1      32.781  23.089 -19.790  0.00  0.00     0.002 A 
ATOM     11  C   UNL d   1      32.824  23.562 -19.129  0.00  0.00     0.011 A 
ATOM     12  C   UNL d   1      33.055  23.221 -18.400  0.00  0.00     0.058 A 
ATOM     13  C   UNL d   1      33.233  22.419 -18.358  0.00  0.00     0.011 A 
ATOM     14 CL   UNL d   1      33.102  23.700 -17.719  0.00  0.00    -0.082 Cl
ATOM     15  C   UNL d   1      33.185  21.949 -19.036  0.00  0.00     0.002 A 
ENDBRANCH   8   9
ENDBRANCH   6   8
ENDBRANCH   3   5
ENDBRANCH   1   2
BRANCH   1  16
ATOM     16  C   UNL d   1      33.048  20.317 -23.797  0.00  0.00     0.190 A 
ATOM     17  N   UNL d   1      32.918  19.503 -23.789  0.00  0.00    -0.250 N 
ATOM     18  C   UNL d   1      32.728  19.041 -23.128  0.00  0.00     0.266 C 
ATOM     19  C   UNL d   1      33.011  19.234 -24.562  0.00  0.00     0.112 A 
ATOM     20  O   UNL d   1      32.653  19.389 -22.387  0.00  0.00    -0.267 OA
ATOM     21  C   UNL d   1      33.199  19.875 -25.053  0.00  0.00     0.144 A 
ATOM     22  O   UNL d   1      33.221  20.547 -24.579  0.00  0.00    -0.285 OA
BRANCH  18  23
ATOM     23  C   UNL d   1      32.613  18.215 -23.214  0.00  0.00     0.057 A 
ATOM     24  C   UNL d   1      33.222  17.696 -23.045  0.00  0.00     0.006 A 
ATOM     25  C   UNL d   1      33.107  16.882 -23.131  0.00  0.00     0.012 A 
ATOM     26  C   UNL d   1      32.380  16.595 -23.385  0.00  0.00     0.058 A 
ATOM     27  C   UNL d   1      31.764  17.122 -23.555  0.00  0.00     0.012 A 
ATOM     28 CL   UNL d   1      32.266  15.772 -23.470  0.00  0.00    -0.082 Cl
ATOM     29  C   UNL d   1      31.884  17.923 -23.469  0.00  0.00     0.006 A 
ENDBRANCH  18  23
ENDBRANCH   1  16
TORSDOF 6
ENDMDL
