MODEL 1
REMARK VINA RESULT:      57.8      0.000      0.000
REMARK  3 active torsions:
REMARK  status: ('A' for Active; 'I' for Inactive)
REMARK    1  A    between atoms: S_2  and  N_1 
REMARK    2  A    between atoms: C_8  and  S_2 
REMARK       I    between atoms: C_14  and  N_15 
REMARK    3  A    between atoms: N_15  and  C_19 
ROOT
ATOM      1  S   UNL d   1      13.649  13.813  -3.773  0.00  0.00     0.273 S 
ATOM      2  O   UNL d   1      13.108  14.431  -3.690  0.00  0.00    -0.200 OA
ATOM      3  O   UNL d   1      14.374  13.948  -4.135  0.00  0.00    -0.200 OA
ENDROOT
BRANCH   1   4
ATOM      4  N   UNL d   1      13.468  13.059  -3.497  0.00  0.00    -0.212 N 
ATOM      5  C   UNL d   1      13.751  12.802  -2.766  0.00  0.00     0.094 A 
ATOM      6  C   UNL d   1      13.564  12.043  -2.495  0.00  0.00     0.100 A 
ATOM      7  C   UNL d   1      14.221  13.301  -2.301  0.00  0.00     0.020 A 
ATOM      8  C   UNL d   1      13.848  11.779  -1.757  0.00  0.00     0.021 A 
ATOM      9  N   UNL d   1      12.809  11.794  -3.688  0.00  0.00    -0.223 NA
ATOM     10  C   UNL d   1      14.323  12.287  -1.292  0.00  0.00     0.002 A 
ATOM     11  C   UNL d   1      14.504  13.044  -1.570  0.00  0.00     0.002 A 
ATOM     12  C   UNL d   1      14.605  12.034  -0.565  0.00  0.00     0.000 C 
ATOM     13  C   UNL d   1      14.971  13.549  -1.118  0.00  0.00     0.000 C 
ATOM     14  C   UNL d   1      12.996  12.556  -3.960  0.00  0.00     0.193 A 
ENDBRANCH   1   4
BRANCH   1  15
ATOM     15  C   UNL d   1      13.844  14.561  -4.055  0.00  0.00     0.104 A 
ATOM     16  C   UNL d   1      13.892  14.701  -4.861  0.00  0.00     0.014 A 
ATOM     17  C   UNL d   1      14.087  15.451  -5.138  0.00  0.00     0.020 A 
ATOM     18  C   UNL d   1      14.236  16.063  -4.603  0.00  0.00     0.085 A 
ATOM     19  C   UNL d   1      14.186  15.915  -3.794  0.00  0.00     0.020 A 
ATOM     20  C   UNL d   1      13.992  15.172  -3.514  0.00  0.00     0.014 A 
BRANCH  18  21
ATOM     21  N   UNL d   1      14.430  16.806  -4.888  0.00  0.00    -0.208 NA
ATOM     22  C   UNL d   1      15.202  17.082  -4.806  0.00  0.00     0.279 C 
ATOM     23  O   UNL d   1      15.409  17.827  -5.088  0.00  0.00    -0.265 OA
ATOM     24  C   UNL d   1      15.775  16.615  -4.442  0.00  0.00     0.068 C 
ENDBRANCH  18  21
ENDBRANCH   1  15
TORSDOF 3
ENDMDL
