MODEL 1
REMARK VINA RESULT:      -2.6      0.000      0.000
REMARK  5 active torsions:
REMARK  status: ('A' for Active; 'I' for Inactive)
REMARK    1  A    between atoms: N_12  and  C_5 
REMARK    2  A    between atoms: C_17  and  N_12 
REMARK    3  A    between atoms: C_19  and  C_17 
REMARK    4  A    between atoms: C_18  and  C_20 
REMARK    5  A    between atoms: C_20  and  C_19 
ROOT
ATOM      1  C   UNL d   1      33.174  21.804 -22.294  0.00  0.00     0.159 A 
ATOM      2  N   UNL d   1      33.204  21.175 -22.826  0.00  0.00    -0.275 N 
ATOM      3  C   UNL d   1      33.152  21.652 -21.474  0.00  0.00     0.103 A 
ATOM      4  N   UNL d   1      33.167  22.581 -22.573  0.00  0.00    -0.226 NA
ATOM      5  C   UNL d   1      33.211  20.389 -22.542  0.00  0.00     0.149 A 
ATOM      6  C   UNL d   1      33.159  20.875 -21.195  0.00  0.00     0.016 A 
ATOM      7  C   UNL d   1      33.189  20.245 -21.727  0.00  0.00     0.038 A 
ATOM      8  C   UNL d   1      33.219  22.102 -23.921  0.00  0.00     0.084 A 
ATOM      9  C   UNL d   1      33.189  22.731 -23.389  0.00  0.00     0.099 A 
ATOM     10  C   UNL d   1      33.123  22.282 -20.942  0.00  0.00     0.104 C 
ATOM     11  N   UNL d   1      33.094  22.911 -20.410  0.00  0.00    -0.191 NA
ATOM     12  C   UNL d   1      33.137  20.728 -20.383  0.00  0.00     0.001 C 
ATOM     13  C   UNL d   1      33.241  22.251 -24.743  0.00  0.00     0.019 A 
ATOM     14  C   UNL d   1      33.182  23.514 -23.675  0.00  0.00     0.021 A 
ATOM     15  C   UNL d   1      33.234  23.025 -25.013  0.00  0.00     0.002 A 
ATOM     16  C   UNL d   1      33.204  23.655 -24.481  0.00  0.00     0.002 A 
ENDROOT
BRANCH   5  17
ATOM     17  N   UNL d   1      33.240  19.759 -23.075  0.00  0.00    -0.227 NA
BRANCH  17  18
ATOM     18  C   UNL d   1      32.926  19.026 -22.863  0.00  0.00     0.101 C 
BRANCH  18  19
ATOM     19  C   UNL d   1      32.924  18.406 -23.408  0.00  0.00     0.024 C 
BRANCH  19  20
ATOM     20  C   UNL d   1      32.515  17.709 -23.239  0.00  0.00     0.047 C 
BRANCH  20  21
ATOM     21  C   UNL d   1      32.664  17.027 -23.677  0.00  0.00     0.234 C 
ATOM     22  O   UNL d   1      32.378  16.298 -23.415  0.00  0.00    -0.283 OA
ENDBRANCH  20  21
ENDBRANCH  19  20
ENDBRANCH  18  19
ENDBRANCH  17  18
ENDBRANCH   5  17
TORSDOF 5
ENDMDL
MODEL 2
REMARK VINA RESULT:      -2.1      2.219      3.863
REMARK  5 active torsions:
REMARK  status: ('A' for Active; 'I' for Inactive)
REMARK    1  A    between atoms: N_12  and  C_5 
REMARK    2  A    between atoms: C_17  and  N_12 
REMARK    3  A    between atoms: C_19  and  C_17 
REMARK    4  A    between atoms: C_18  and  C_20 
REMARK    5  A    between atoms: C_20  and  C_19 
ROOT
ATOM      1  C   UNL d   1      33.236  20.995 -22.608  0.00  0.00     0.159 A 
ATOM      2  N   UNL d   1      33.237  21.712 -22.200  0.00  0.00    -0.275 N 
ATOM      3  C   UNL d   1      33.235  20.278 -22.184  0.00  0.00     0.103 A 
ATOM      4  N   UNL d   1      33.235  20.990 -23.434  0.00  0.00    -0.226 NA
ATOM      5  C   UNL d   1      33.238  21.715 -21.364  0.00  0.00     0.149 A 
ATOM      6  C   UNL d   1      33.236  20.282 -21.358  0.00  0.00     0.016 A 
ATOM      7  C   UNL d   1      33.237  20.999 -20.950  0.00  0.00     0.038 A 
ATOM      8  C   UNL d   1      33.236  22.423 -23.446  0.00  0.00     0.084 A 
ATOM      9  C   UNL d   1      33.235  21.706 -23.855  0.00  0.00     0.099 A 
ATOM     10  C   UNL d   1      33.234  19.561 -22.593  0.00  0.00     0.104 C 
ATOM     11  N   UNL d   1      33.233  18.844 -23.001  0.00  0.00    -0.191 NA
ATOM     12  C   UNL d   1      33.236  19.569 -20.942  0.00  0.00     0.001 C 
ATOM     13  C   UNL d   1      33.237  23.143 -23.868  0.00  0.00     0.019 A 
ATOM     14  C   UNL d   1      33.234  21.706 -24.688  0.00  0.00     0.021 A 
ATOM     15  C   UNL d   1      33.236  23.131 -24.688  0.00  0.00     0.002 A 
ATOM     16  C   UNL d   1      33.235  22.414 -25.097  0.00  0.00     0.002 A 
ENDROOT
BRANCH   5  17
ATOM     17  N   UNL d   1      33.239  22.432 -20.955  0.00  0.00    -0.227 NA
BRANCH  17  18
ATOM     18  C   UNL d   1      32.807  22.508 -20.256  0.00  0.00     0.101 C 
BRANCH  18  19
ATOM     19  C   UNL d   1      32.991  23.110 -19.722  0.00  0.00     0.024 C 
BRANCH  19  20
ATOM     20  C   UNL d   1      32.583  23.165 -19.007  0.00  0.00     0.047 C 
BRANCH  20  21
ATOM     21  C   UNL d   1      32.905  23.595 -18.380  0.00  0.00     0.234 C 
ATOM     22  O   UNL d   1      32.529  23.598 -17.646  0.00  0.00    -0.283 OA
ENDBRANCH  20  21
ENDBRANCH  19  20
ENDBRANCH  18  19
ENDBRANCH  17  18
ENDBRANCH   5  17
TORSDOF 5
ENDMDL
MODEL 3
REMARK VINA RESULT:       0.1      1.986      3.617
REMARK  5 active torsions:
REMARK  status: ('A' for Active; 'I' for Inactive)
REMARK    1  A    between atoms: N_12  and  C_5 
REMARK    2  A    between atoms: C_17  and  N_12 
REMARK    3  A    between atoms: C_19  and  C_17 
REMARK    4  A    between atoms: C_18  and  C_20 
REMARK    5  A    between atoms: C_20  and  C_19 
ROOT
ATOM      1  C   UNL d   1      32.986  19.721 -23.436  0.00  0.00     0.159 A 
ATOM      2  N   UNL d   1      33.097  20.192 -22.768  0.00  0.00    -0.275 N 
ATOM      3  C   UNL d   1      32.901  18.897 -23.352  0.00  0.00     0.103 A 
ATOM      4  N   UNL d   1      32.959  20.068 -24.185  0.00  0.00    -0.226 NA
ATOM      5  C   UNL d   1      33.124  19.840 -22.010  0.00  0.00     0.149 A 
ATOM      6  C   UNL d   1      32.927  18.550 -22.603  0.00  0.00     0.016 A 
ATOM      7  C   UNL d   1      33.039  19.020 -21.934  0.00  0.00     0.038 A 
ATOM      8  C   UNL d   1      33.155  21.360 -23.599  0.00  0.00     0.084 A 
ATOM      9  C   UNL d   1      33.044  20.890 -24.268  0.00  0.00     0.099 A 
ATOM     10  C   UNL d   1      32.789  18.426 -24.021  0.00  0.00     0.104 C 
ATOM     11  N   UNL d   1      32.678  17.956 -24.689  0.00  0.00    -0.191 NA
ATOM     12  C   UNL d   1      32.843  17.732 -22.524  0.00  0.00     0.001 C 
ATOM     13  C   UNL d   1      33.241  22.187 -23.680  0.00  0.00     0.019 A 
ATOM     14  C   UNL d   1      33.017  21.244 -25.022  0.00  0.00     0.021 A 
ATOM     15  C   UNL d   1      33.213  22.524 -24.427  0.00  0.00     0.002 A 
ATOM     16  C   UNL d   1      33.102  22.054 -25.096  0.00  0.00     0.002 A 
ENDROOT
BRANCH   5  17
ATOM     17  N   UNL d   1      33.236  20.310 -21.342  0.00  0.00    -0.227 NA
BRANCH  17  18
ATOM     18  C   UNL d   1      32.583  20.615 -20.939  0.00  0.00     0.101 C 
BRANCH  18  19
ATOM     19  C   UNL d   1      32.690  21.187 -20.354  0.00  0.00     0.024 C 
BRANCH  19  20
ATOM     20  C   UNL d   1      32.199  21.850 -20.330  0.00  0.00     0.047 C 
BRANCH  20  21
ATOM     21  C   UNL d   1      32.527  22.606 -20.318  0.00  0.00     0.234 C 
ATOM     22  O   UNL d   1      32.040  23.265 -20.220  0.00  0.00    -0.283 OA
ENDBRANCH  20  21
ENDBRANCH  19  20
ENDBRANCH  18  19
ENDBRANCH  17  18
ENDBRANCH   5  17
TORSDOF 5
ENDMDL
