MODEL 1
REMARK VINA RESULT:      17.3      0.000      0.000
REMARK  3 active torsions:
REMARK  status: ('A' for Active; 'I' for Inactive)
REMARK    1  A    between atoms: N_2  and  C_1 
REMARK    2  A    between atoms: C_5  and  C_4 
REMARK       I    between atoms: N_6  and  C_5 
REMARK    3  A    between atoms: C_9  and  N_6 
ROOT
ATOM      1  C   UNL d   1      44.701 -16.448  36.565  0.00  0.00     0.285 C 
ATOM      2  N   UNL d   1      45.437 -16.090  36.456  0.00  0.00    -0.205 NA
ATOM      3  O   UNL d   1      44.568 -17.212  36.334  0.00  0.00    -0.265 OA
ENDROOT
BRANCH   1   4
ATOM      4  C   UNL d   1      44.083 -16.035  36.912  0.00  0.00     0.089 A 
ATOM      5  S   UNL d   1      43.375 -15.907  36.564  0.00  0.00    -0.059 SA
ATOM      6  C   UNL d   1      42.888 -15.482  37.052  0.00  0.00     0.156 A 
ATOM      7  C   UNL d   1      43.323 -15.331  37.759  0.00  0.00     0.031 A 
ATOM      8  C   UNL d   1      44.072 -15.679  37.669  0.00  0.00     0.014 A 
BRANCH   6   9
ATOM      9  N   UNL d   1      42.135 -15.255  36.880  0.00  0.00    -0.107 N 
ATOM     10  O   UNL d   1      41.755 -14.571  37.152  0.00  0.00    -0.531 OA
ATOM     11  O   UNL d   1      41.646 -15.675  36.410  0.00  0.00    -0.531 OA
ENDBRANCH   6   9
ENDBRANCH   1   4
BRANCH   2  12
ATOM     12  C   UNL d   1      45.551 -15.320  36.696  0.00  0.00     0.112 A 
ATOM     13  C   UNL d   1      46.145 -15.145  37.242  0.00  0.00     0.158 A 
ATOM     14  F   UNL d   1      46.628 -15.747  37.550  0.00  0.00    -0.203 F 
ATOM     15  C   UNL d   1      46.258 -14.376  37.482  0.00  0.00     0.031 A 
ATOM     16  C   UNL d   1      45.780 -13.775  37.178  0.00  0.00     0.002 A 
ATOM     17  C   UNL d   1      45.195 -13.937  36.642  0.00  0.00     0.002 A 
ATOM     18  C   UNL d   1      45.073 -14.720  36.392  0.00  0.00     0.021 A 
ENDBRANCH   2  12
TORSDOF 3
ENDMDL
MODEL 2
REMARK VINA RESULT:      18.1      7.541      8.110
REMARK  3 active torsions:
REMARK  status: ('A' for Active; 'I' for Inactive)
REMARK    1  A    between atoms: N_2  and  C_1 
REMARK    2  A    between atoms: C_5  and  C_4 
REMARK       I    between atoms: N_6  and  C_5 
REMARK    3  A    between atoms: C_9  and  N_6 
ROOT
ATOM      1  C   UNL d   1      46.327 -18.165  42.756  0.00  0.00     0.285 C 
ATOM      2  N   UNL d   1      46.266 -18.990  42.750  0.00  0.00    -0.205 NA
ATOM      3  O   UNL d   1      46.446 -17.749  42.073  0.00  0.00    -0.265 OA
ENDROOT
BRANCH   1   4
ATOM      4  C   UNL d   1      46.266 -17.748  43.459  0.00  0.00     0.089 A 
ATOM      5  S   UNL d   1      45.902 -17.041  43.534  0.00  0.00    -0.059 SA
ATOM      6  C   UNL d   1      45.939 -16.778  44.299  0.00  0.00     0.156 A 
ATOM      7  C   UNL d   1      46.359 -17.364  44.738  0.00  0.00     0.031 A 
ATOM      8  C   UNL d   1      46.563 -17.971  44.210  0.00  0.00     0.014 A 
BRANCH   6   9
ATOM      9  N   UNL d   1      45.629 -16.086  44.572  0.00  0.00    -0.107 N 
ATOM     10  O   UNL d   1      45.991 -15.342  44.543  0.00  0.00    -0.531 OA
ATOM     11  O   UNL d   1      44.911 -16.033  44.916  0.00  0.00    -0.531 OA
ENDBRANCH   6   9
ENDBRANCH   1   4
BRANCH   2  12
ATOM     12  C   UNL d   1      46.146 -19.391  43.448  0.00  0.00     0.112 A 
ATOM     13  C   UNL d   1      45.523 -19.928  43.509  0.00  0.00     0.158 A 
ATOM     14  F   UNL d   1      45.017 -20.064  42.863  0.00  0.00    -0.203 F 
ATOM     15  C   UNL d   1      45.402 -20.329  44.207  0.00  0.00     0.031 A 
ATOM     16  C   UNL d   1      45.903 -20.197  44.849  0.00  0.00     0.002 A 
ATOM     17  C   UNL d   1      46.517 -19.671  44.800  0.00  0.00     0.002 A 
ATOM     18  C   UNL d   1      46.647 -19.258  44.090  0.00  0.00     0.021 A 
ENDBRANCH   2  12
TORSDOF 3
ENDMDL
