MODEL 1
REMARK VINA RESULT:      36.5      0.000      0.000
REMARK  8 active torsions:
REMARK  status: ('A' for Active; 'I' for Inactive)
REMARK    1  A    between atoms: C_6  and  C_1 
REMARK    2  A    between atoms: C_7  and  C_2 
REMARK    3  A    between atoms: C_14  and  N_4 
REMARK    4  A    between atoms: C_8  and  C_6 
REMARK    5  A    between atoms: C_9  and  C_8 
REMARK    6  A    between atoms: C_12  and  C_9 
REMARK    7  A    between atoms: C_10  and  C_11 
REMARK    8  A    between atoms: C_11  and  C_14 
ROOT
ATOM      1  C   UNL d   1      46.111 -18.149  43.005  0.00  0.00     0.039 A 
ATOM      2  C   UNL d   1      46.112 -18.956  42.955  0.00  0.00     0.103 A 
ATOM      3  N   UNL d   1      46.223 -19.316  42.240  0.00  0.00    -0.165 NA
ATOM      4  N   UNL d   1      46.333 -18.056  41.621  0.00  0.00    -0.227 N 
ATOM      5  C   UNL d   1      46.222 -17.695  42.337  0.00  0.00     0.102 A 
ENDROOT
BRANCH   1   6
ATOM      6  C   UNL d   1      45.997 -17.774  43.731  0.00  0.00     0.006 C 
BRANCH   6   7
ATOM      7  C   UNL d   1      45.922 -16.951  43.771  0.00  0.00     0.042 C 
BRANCH   7   8
ATOM      8  C   UNL d   1      45.491 -16.596  44.392  0.00  0.00     0.196 C 
ATOM      9  O   UNL d   1      45.102 -17.076  44.939  0.00  0.00    -0.287 OA
BRANCH   8  10
ATOM     10  C   UNL d   1      45.576 -15.781  44.283  0.00  0.00     0.039 A 
ATOM     11  C   UNL d   1      46.319 -15.452  44.128  0.00  0.00     0.004 A 
ATOM     12  C   UNL d   1      46.405 -14.636  44.019  0.00  0.00     0.011 A 
ATOM     13  C   UNL d   1      45.743 -14.142  44.065  0.00  0.00     0.058 A 
ATOM     14  C   UNL d   1      44.993 -14.481  44.223  0.00  0.00     0.011 A 
ATOM     15 CL   UNL d   1      45.825 -13.327  43.957  0.00  0.00    -0.082 Cl
ATOM     16  C   UNL d   1      44.905 -15.294  44.332  0.00  0.00     0.004 A 
ENDBRANCH   8  10
ENDBRANCH   7   8
ENDBRANCH   6   7
ENDBRANCH   1   6
BRANCH   2  17
ATOM     17  C   UNL d   1      46.001 -19.415  43.622  0.00  0.00     0.020 A 
ATOM     18  C   UNL d   1      45.255 -19.640  43.846  0.00  0.00     0.008 A 
ATOM     19  C   UNL d   1      45.151 -20.101  44.517  0.00  0.00     0.035 A 
ATOM     20 BR   UNL d   1      44.393 -20.324  44.738  0.00  0.00    -0.049 Br
ATOM     21  C   UNL d   1      45.790 -20.329  44.949  0.00  0.00     0.007 A 
ATOM     22  C   UNL d   1      46.541 -20.101  44.719  0.00  0.00     0.001 A 
ATOM     23  C   UNL d   1      46.646 -19.645  44.058  0.00  0.00     0.002 A 
ENDBRANCH   2  17
BRANCH   4  24
ATOM     24  C   UNL d   1      46.458 -17.798  40.860  0.00  0.00     0.107 C 
BRANCH  24  25
ATOM     25  C   UNL d   1      46.405 -18.485  40.395  0.00  0.00     0.091 C 
BRANCH  25  26
ATOM     26  C   UNL d   1      45.850 -18.302  39.810  0.00  0.00     0.213 C 
ATOM     27  O   UNL d   1      45.941 -18.596  39.028  0.00  0.00    -0.644 OA
ATOM     28  O   UNL d   1      45.205 -17.830  39.993  0.00  0.00    -0.644 OA
ENDBRANCH  25  26
ENDBRANCH  24  25
ENDBRANCH   4  24
TORSDOF 8
ENDMDL
