MODEL 1
REMARK VINA RESULT:       8.7      0.000      0.000
REMARK  5 active torsions:
REMARK  status: ('A' for Active; 'I' for Inactive)
REMARK       I    between atoms: C_2  and  N_1 
REMARK    1  A    between atoms: C_3  and  N_1 
REMARK    2  A    between atoms: C_7  and  C_2 
REMARK    3  A    between atoms: N_5  and  C_3 
REMARK    4  A    between atoms: C_8  and  N_5 
REMARK    5  A    between atoms: C_9  and  C_8 
ROOT
ATOM      1  C   UNL d   1      45.693 -16.620  44.206  0.00  0.00     0.179 C 
ATOM      2  S   UNL d   1      45.483 -16.919  44.955  0.00  0.00    -0.040 SA
ENDROOT
BRANCH   1   3
ATOM      3  N   UNL d   1      45.769 -17.127  43.567  0.00  0.00    -0.299 N 
ATOM      4  C   UNL d   1      46.192 -17.841  43.647  0.00  0.00     0.259 C 
ATOM      5  O   UNL d   1      46.535 -18.031  44.377  0.00  0.00    -0.267 OA
ATOM      6  H   UNL d   1      45.425 -16.928  42.847  0.00  0.00     0.171 HD
BRANCH   4   7
ATOM      7  C   UNL d   1      46.265 -18.348  43.001  0.00  0.00     0.056 A 
ATOM      8  C   UNL d   1      46.572 -18.065  42.295  0.00  0.00     0.005 A 
ATOM      9  C   UNL d   1      46.643 -18.581  41.647  0.00  0.00     0.000 A 
ATOM     10  C   UNL d   1      46.406 -19.372  41.713  0.00  0.00     0.000 A 
ATOM     11  C   UNL d   1      46.096 -19.651  42.431  0.00  0.00     0.000 A 
ATOM     12  C   UNL d   1      46.025 -19.132  43.084  0.00  0.00     0.005 A 
ENDBRANCH   4   7
ENDBRANCH   1   3
BRANCH   1  13
ATOM     13  N   UNL d   1      45.825 -15.807  44.112  0.00  0.00    -0.330 N 
ATOM     14  H   UNL d   1      46.558 -15.548  43.843  0.00  0.00     0.168 HD
BRANCH  13  15
ATOM     15  C   UNL d   1      45.236 -15.273  44.285  0.00  0.00     0.074 C 
BRANCH  15  16
ATOM     16  C   UNL d   1      45.415 -14.450  44.321  0.00  0.00     0.017 A 
ATOM     17  C   UNL d   1      45.900 -14.165  44.917  0.00  0.00     0.002 A 
ATOM     18  C   UNL d   1      46.076 -13.372  44.955  0.00  0.00     0.000 A 
ATOM     19  C   UNL d   1      45.768 -12.852  44.397  0.00  0.00     0.000 A 
ATOM     20  C   UNL d   1      45.273 -13.143  43.788  0.00  0.00     0.000 A 
ATOM     21  C   UNL d   1      45.102 -13.944  43.758  0.00  0.00     0.002 A 
ENDBRANCH  15  16
ENDBRANCH  13  15
ENDBRANCH   1  13
TORSDOF 5
ENDMDL
