MODEL 1
REMARK VINA RESULT:      -5.1      0.000      0.000
REMARK  2 active torsions:
REMARK  status: ('A' for Active; 'I' for Inactive)
REMARK    1  A    between atoms: C_6  and  C_3 
REMARK    2  A    between atoms: O_13  and  C_10 
ROOT
ATOM      1  C   UNL d   1      56.572  -0.376  32.131  0.00  0.00     0.018 A 
ATOM      2  C   UNL d   1      56.357   0.396  32.268  0.00  0.00     0.004 A 
ATOM      3  C   UNL d   1      56.234  -0.977  32.573  0.00  0.00     0.004 A 
ATOM      4  C   UNL d   1      55.462  -0.035  33.295  0.00  0.00     0.094 A 
ATOM      5  C   UNL d   1      55.677  -0.807  33.158  0.00  0.00     0.024 A 
ATOM      6  C   UNL d   1      55.800   0.585  32.850  0.00  0.00     0.024 A 
ENDROOT
BRANCH   1   7
ATOM      7  C   UNL d   1      57.092  -0.125  31.534  0.00  0.00     0.090 A 
ATOM      8  N   UNL d   1      57.438   0.535  31.168  0.00  0.00    -0.219 NA
ATOM      9  C   UNL d   1      57.928   0.245  30.573  0.00  0.00     0.215 A 
ATOM     10  S   UNL d   1      57.880  -0.553  30.580  0.00  0.00    -0.045 SA
ATOM     11  N   UNL d   1      58.404   0.682  30.039  0.00  0.00    -0.120 N 
ATOM     12  C   UNL d   1      57.373  -0.797  31.162  0.00  0.00     0.058 A 
ENDBRANCH   1   7
BRANCH   4  13
ATOM     13  O   UNL d   1      54.896   0.149  33.887  0.00  0.00    -0.328 OA
ATOM     14  C   UNL d   1      55.113   0.604  34.548  0.00  0.00     0.181 C 
ENDBRANCH   4  13
TORSDOF 2
ENDMDL
MODEL 2
REMARK VINA RESULT:      -5.1      0.860      1.242
REMARK  2 active torsions:
REMARK  status: ('A' for Active; 'I' for Inactive)
REMARK    1  A    between atoms: C_6  and  C_3 
REMARK    2  A    between atoms: O_13  and  C_10 
ROOT
ATOM      1  C   UNL d   1      56.928   0.076  31.639  0.00  0.00     0.018 A 
ATOM      2  C   UNL d   1      56.762  -0.698  31.824  0.00  0.00     0.004 A 
ATOM      3  C   UNL d   1      56.586   0.681  32.072  0.00  0.00     0.004 A 
ATOM      4  C   UNL d   1      55.908  -0.261  32.882  0.00  0.00     0.094 A 
ATOM      5  C   UNL d   1      56.074   0.513  32.697  0.00  0.00     0.024 A 
ATOM      6  C   UNL d   1      56.251  -0.884  32.447  0.00  0.00     0.024 A 
ENDROOT
BRANCH   1   7
ATOM      7  C   UNL d   1      57.425  -0.178  31.023  0.00  0.00     0.090 A 
ATOM      8  N   UNL d   1      57.689  -0.836  30.592  0.00  0.00    -0.219 NA
ATOM      9  C   UNL d   1      58.227  -0.554  30.036  0.00  0.00     0.215 A 
ATOM     10  S   UNL d   1      58.284   0.238  30.127  0.00  0.00    -0.045 SA
ATOM     11  N   UNL d   1      58.654  -0.992  29.463  0.00  0.00    -0.120 N 
ATOM     12  C   UNL d   1      57.800   0.485  30.727  0.00  0.00     0.058 A 
ENDBRANCH   1   7
BRANCH   4  13
ATOM     13  O   UNL d   1      55.388  -0.443  33.516  0.00  0.00    -0.328 OA
ATOM     14  C   UNL d   1      54.944   0.158  33.880  0.00  0.00     0.181 C 
ENDBRANCH   4  13
TORSDOF 2
ENDMDL
MODEL 3
REMARK VINA RESULT:      -4.7      2.159      3.408
REMARK  2 active torsions:
REMARK  status: ('A' for Active; 'I' for Inactive)
REMARK    1  A    between atoms: C_6  and  C_3 
REMARK    2  A    between atoms: O_13  and  C_10 
ROOT
ATOM      1  C   UNL d   1      56.663  -0.311  31.920  0.00  0.00     0.018 A 
ATOM      2  C   UNL d   1      56.822   0.470  31.760  0.00  0.00     0.004 A 
ATOM      3  C   UNL d   1      57.036  -0.899  31.491  0.00  0.00     0.004 A 
ATOM      4  C   UNL d   1      57.732   0.074  30.734  0.00  0.00     0.094 A 
ATOM      5  C   UNL d   1      57.573  -0.707  30.895  0.00  0.00     0.024 A 
ATOM      6  C   UNL d   1      57.357   0.680  31.166  0.00  0.00     0.024 A 
ENDROOT
BRANCH   1   7
ATOM      7  C   UNL d   1      56.133  -0.080  32.517  0.00  0.00     0.090 A 
ATOM      8  N   UNL d   1      55.755   0.566  32.877  0.00  0.00    -0.219 NA
ATOM      9  C   UNL d   1      55.283   0.259  33.478  0.00  0.00     0.215 A 
ATOM     10  S   UNL d   1      55.372  -0.535  33.482  0.00  0.00    -0.045 SA
ATOM     11  N   UNL d   1      54.787   0.677  34.009  0.00  0.00    -0.120 N 
ATOM     12  C   UNL d   1      55.889  -0.760  32.900  0.00  0.00     0.058 A 
ENDBRANCH   1   7
BRANCH   4  13
ATOM     13  O   UNL d   1      58.278   0.279  30.129  0.00  0.00    -0.328 OA
ATOM     14  C   UNL d   1      58.571  -0.302  29.613  0.00  0.00     0.181 C 
ENDBRANCH   4  13
TORSDOF 2
ENDMDL
MODEL 4
REMARK VINA RESULT:      -4.4      2.247      3.664
REMARK  2 active torsions:
REMARK  status: ('A' for Active; 'I' for Inactive)
REMARK    1  A    between atoms: C_6  and  C_3 
REMARK    2  A    between atoms: O_13  and  C_10 
ROOT
ATOM      1  C   UNL d   1      57.134  -0.078  31.397  0.00  0.00     0.018 A 
ATOM      2  C   UNL d   1      57.428  -0.767  31.079  0.00  0.00     0.004 A 
ATOM      3  C   UNL d   1      57.354   0.643  31.079  0.00  0.00     0.004 A 
ATOM      4  C   UNL d   1      58.166  -0.009  30.120  0.00  0.00     0.094 A 
ATOM      5  C   UNL d   1      57.872   0.680  30.437  0.00  0.00     0.024 A 
ATOM      6  C   UNL d   1      57.948  -0.749  30.437  0.00  0.00     0.024 A 
ENDROOT
BRANCH   1   7
ATOM      7  C   UNL d   1      56.706  -0.519  31.956  0.00  0.00     0.090 A 
ATOM      8  N   UNL d   1      56.479  -1.284  32.188  0.00  0.00    -0.219 NA
ATOM      9  C   UNL d   1      56.013  -1.197  32.862  0.00  0.00     0.215 A 
ATOM     10  S   UNL d   1      55.961  -0.418  33.028  0.00  0.00    -0.045 SA
ATOM     11  N   UNL d   1      55.645  -1.799  33.315  0.00  0.00    -0.120 N 
ATOM     12  C   UNL d   1      56.379   0.012  32.484  0.00  0.00     0.058 A 
ENDBRANCH   1   7
BRANCH   4  13
ATOM     13  O   UNL d   1      58.693   0.017  29.467  0.00  0.00    -0.328 OA
ATOM     14  C   UNL d   1      58.495   0.448  28.784  0.00  0.00     0.181 C 
ENDBRANCH   4  13
TORSDOF 2
ENDMDL
MODEL 5
REMARK VINA RESULT:      -4.2      2.414      3.575
REMARK  2 active torsions:
REMARK  status: ('A' for Active; 'I' for Inactive)
REMARK    1  A    between atoms: C_6  and  C_3 
REMARK    2  A    between atoms: O_13  and  C_10 
ROOT
ATOM      1  C   UNL d   1      56.313   0.178  32.898  0.00  0.00     0.018 A 
ATOM      2  C   UNL d   1      55.996  -0.568  32.831  0.00  0.00     0.004 A 
ATOM      3  C   UNL d   1      56.892   0.422  32.375  0.00  0.00     0.004 A 
ATOM      4  C   UNL d   1      56.843  -0.828  31.712  0.00  0.00     0.094 A 
ATOM      5  C   UNL d   1      57.160  -0.082  31.778  0.00  0.00     0.024 A 
ATOM      6  C   UNL d   1      56.252  -1.086  32.240  0.00  0.00     0.024 A 
ENDROOT
BRANCH   1   7
ATOM      7  C   UNL d   1      55.820   0.329  33.550  0.00  0.00     0.090 A 
ATOM      8  N   UNL d   1      55.033   0.353  33.815  0.00  0.00    -0.219 NA
ATOM      9  C   UNL d   1      55.058   0.576  34.607  0.00  0.00     0.215 A 
ATOM     10  S   UNL d   1      55.823   0.682  34.811  0.00  0.00    -0.045 SA
ATOM     11  N   UNL d   1      54.413   0.682  35.133  0.00  0.00    -0.120 N 
ATOM     12  C   UNL d   1      56.303   0.535  34.175  0.00  0.00     0.058 A 
ENDBRANCH   1   7
BRANCH   4  13
ATOM     13  O   UNL d   1      57.108  -1.348  31.108  0.00  0.00    -0.328 OA
ATOM     14  C   UNL d   1      57.782  -1.161  30.658  0.00  0.00     0.181 C 
ENDBRANCH   4  13
TORSDOF 2
ENDMDL
MODEL 6
REMARK VINA RESULT:      -4.0      2.128      3.590
REMARK  2 active torsions:
REMARK  status: ('A' for Active; 'I' for Inactive)
REMARK    1  A    between atoms: C_6  and  C_3 
REMARK    2  A    between atoms: O_13  and  C_10 
ROOT
ATOM      1  C   UNL d   1      57.376  -0.424  31.089  0.00  0.00     0.018 A 
ATOM      2  C   UNL d   1      57.494   0.377  31.019  0.00  0.00     0.004 A 
ATOM      3  C   UNL d   1      57.759  -0.938  30.581  0.00  0.00     0.004 A 
ATOM      4  C   UNL d   1      58.384   0.150  29.926  0.00  0.00     0.094 A 
ATOM      5  C   UNL d   1      58.266  -0.652  29.996  0.00  0.00     0.024 A 
ATOM      6  C   UNL d   1      57.999   0.682  30.439  0.00  0.00     0.024 A 
ENDROOT
BRANCH   1   7
ATOM      7  C   UNL d   1      56.857  -0.291  31.725  0.00  0.00     0.090 A 
ATOM      8  N   UNL d   1      56.466   0.288  32.173  0.00  0.00    -0.219 NA
ATOM      9  C   UNL d   1      56.029  -0.110  32.745  0.00  0.00     0.215 A 
ATOM     10  S   UNL d   1      56.150  -0.894  32.648  0.00  0.00    -0.045 SA
ATOM     11  N   UNL d   1      55.535   0.218  33.338  0.00  0.00    -0.120 N 
ATOM     12  C   UNL d   1      56.655  -1.023  32.028  0.00  0.00     0.058 A 
ENDBRANCH   1   7
BRANCH   4  13
ATOM     13  O   UNL d   1      58.898   0.452  29.334  0.00  0.00    -0.328 OA
ATOM     14  C   UNL d   1      59.711   0.534  29.487  0.00  0.00     0.181 C 
ENDBRANCH   4  13
TORSDOF 2
ENDMDL
MODEL 7
REMARK VINA RESULT:      -2.8      1.976      2.879
REMARK  2 active torsions:
REMARK  status: ('A' for Active; 'I' for Inactive)
REMARK    1  A    between atoms: C_6  and  C_3 
REMARK    2  A    between atoms: O_13  and  C_10 
ROOT
ATOM      1  C   UNL d   1      58.107  -0.491  30.091  0.00  0.00     0.018 A 
ATOM      2  C   UNL d   1      57.752  -0.959  30.653  0.00  0.00     0.004 A 
ATOM      3  C   UNL d   1      58.039   0.323  30.138  0.00  0.00     0.004 A 
ATOM      4  C   UNL d   1      57.259   0.207  31.314  0.00  0.00     0.094 A 
ATOM      5  C   UNL d   1      57.613   0.675  30.752  0.00  0.00     0.024 A 
ATOM      6  C   UNL d   1      57.322  -0.624  31.274  0.00  0.00     0.024 A 
ENDROOT
BRANCH   1   7
ATOM      7  C   UNL d   1      58.394  -1.170  29.707  0.00  0.00     0.090 A 
ATOM      8  N   UNL d   1      58.291  -1.987  29.605  0.00  0.00    -0.219 NA
ATOM      9  C   UNL d   1      58.874  -2.235  29.079  0.00  0.00     0.215 A 
ATOM     10  S   UNL d   1      59.308  -1.597  28.872  0.00  0.00    -0.045 SA
ATOM     11  N   UNL d   1      59.013  -3.011  28.792  0.00  0.00    -0.120 N 
ATOM     12  C   UNL d   1      59.028  -0.936  29.247  0.00  0.00     0.058 A 
ENDBRANCH   1   7
BRANCH   4  13
ATOM     13  O   UNL d   1      56.823   0.554  31.942  0.00  0.00    -0.328 OA
ATOM     14  C   UNL d   1      56.242   0.116  32.343  0.00  0.00     0.181 C 
ENDBRANCH   4  13
TORSDOF 2
ENDMDL
MODEL 8
REMARK VINA RESULT:      -2.8     10.020     10.206
REMARK  2 active torsions:
REMARK  status: ('A' for Active; 'I' for Inactive)
REMARK    1  A    between atoms: C_6  and  C_3 
REMARK    2  A    between atoms: O_13  and  C_10 
ROOT
ATOM      1  C   UNL d   1      59.822  -9.523  33.401  0.00  0.00     0.018 A 
ATOM      2  C   UNL d   1      59.349  -9.375  34.046  0.00  0.00     0.004 A 
ATOM      3  C   UNL d   1      60.636  -9.522  33.485  0.00  0.00     0.004 A 
ATOM      4  C   UNL d   1      60.510  -9.224  34.863  0.00  0.00     0.094 A 
ATOM      5  C   UNL d   1      60.983  -9.372  34.218  0.00  0.00     0.024 A 
ATOM      6  C   UNL d   1      59.680  -9.223  34.788  0.00  0.00     0.024 A 
ENDROOT
BRANCH   1   7
ATOM      7  C   UNL d   1      59.146  -9.611  32.926  0.00  0.00     0.090 A 
ATOM      8  N   UNL d   1      58.316  -9.625  32.922  0.00  0.00    -0.219 NA
ATOM      9  C   UNL d   1      58.085  -9.756  32.143  0.00  0.00     0.215 A 
ATOM     10  S   UNL d   1      58.745  -9.817  31.697  0.00  0.00    -0.045 SA
ATOM     11  N   UNL d   1      57.306  -9.818  31.839  0.00  0.00    -0.120 N 
ATOM     12  C   UNL d   1      59.404  -9.731  32.160  0.00  0.00     0.058 A 
ENDBRANCH   1   7
BRANCH   4  13
ATOM     13  O   UNL d   1      60.854  -9.070  35.614  0.00  0.00    -0.328 OA
ATOM     14  C   UNL d   1      60.959  -8.288  35.874  0.00  0.00     0.181 C 
ENDBRANCH   4  13
TORSDOF 2
ENDMDL
MODEL 9
REMARK VINA RESULT:      -2.6      3.176      4.845
REMARK  2 active torsions:
REMARK  status: ('A' for Active; 'I' for Inactive)
REMARK    1  A    between atoms: C_6  and  C_3 
REMARK    2  A    between atoms: O_13  and  C_10 
ROOT
ATOM      1  C   UNL d   1      59.028  -0.897  29.420  0.00  0.00     0.018 A 
ATOM      2  C   UNL d   1      58.656  -1.596  29.604  0.00  0.00     0.004 A 
ATOM      3  C   UNL d   1      59.673  -0.900  28.917  0.00  0.00     0.004 A 
ATOM      4  C   UNL d   1      59.580  -2.306  28.778  0.00  0.00     0.094 A 
ATOM      5  C   UNL d   1      59.952  -1.607  28.594  0.00  0.00     0.024 A 
ATOM      6  C   UNL d   1      58.922  -2.314  29.290  0.00  0.00     0.024 A 
ENDROOT
BRANCH   1   7
ATOM      7  C   UNL d   1      58.490  -0.485  29.900  0.00  0.00     0.090 A 
ATOM      8  N   UNL d   1      57.783  -0.542  30.333  0.00  0.00    -0.219 NA
ATOM      9  C   UNL d   1      57.649   0.200  30.664  0.00  0.00     0.215 A 
ATOM     10  S   UNL d   1      58.246   0.682  30.443  0.00  0.00    -0.045 SA
ATOM     11  N   UNL d   1      57.010   0.438  31.152  0.00  0.00    -0.120 N 
ATOM     12  C   UNL d   1      58.770   0.280  29.975  0.00  0.00     0.058 A 
ENDBRANCH   1   7
BRANCH   4  13
ATOM     13  O   UNL d   1      59.855  -3.030  28.455  0.00  0.00    -0.328 OA
ATOM     14  C   UNL d   1      60.591  -3.340  28.686  0.00  0.00     0.181 C 
ENDBRANCH   4  13
TORSDOF 2
ENDMDL
