MODEL 1
REMARK VINA RESULT:      -4.0      0.000      0.000
REMARK  2 active torsions:
REMARK  status: ('A' for Active; 'I' for Inactive)
REMARK    1  A    between atoms: C_6  and  N_2 
REMARK    2  A    between atoms: C_4  and  C_6 
ROOT
ATOM      1  C   UNL d   1      55.606  -0.028  33.154  0.00  0.00     0.206 A 
ATOM      2  N   UNL d   1      56.185  -0.004  32.572  0.00  0.00    -0.277 N 
ATOM      3  N   UNL d   1      55.455  -0.824  33.327  0.00  0.00    -0.215 NA
ATOM      4  C   UNL d   1      55.948  -1.286  32.845  0.00  0.00     0.120 A 
ATOM      5  C   UNL d   1      56.400  -0.778  32.378  0.00  0.00     0.103 A 
ATOM      6  S   UNL d   1      55.238   0.622  33.505  0.00  0.00    -0.038 SA
ENDROOT
BRANCH   2   7
ATOM      7  C   UNL d   1      56.504   0.682  32.233  0.00  0.00     0.107 C 
BRANCH   7   8
ATOM      8  C   UNL d   1      57.106   0.623  31.672  0.00  0.00     0.118 A 
ATOM      9  O   UNL d   1      57.005   0.494  30.858  0.00  0.00    -0.304 OA
ATOM     10  C   UNL d   1      57.749   0.475  30.512  0.00  0.00     0.123 A 
ATOM     11  C   UNL d   1      58.312   0.591  31.104  0.00  0.00     0.029 A 
ATOM     12  C   UNL d   1      57.913   0.682  31.818  0.00  0.00     0.028 A 
ENDBRANCH   7   8
ENDBRANCH   2   7
TORSDOF 2
ENDMDL
MODEL 2
REMARK VINA RESULT:      -3.3      1.761      2.937
REMARK  2 active torsions:
REMARK  status: ('A' for Active; 'I' for Inactive)
REMARK    1  A    between atoms: C_6  and  N_2 
REMARK    2  A    between atoms: C_4  and  C_6 
ROOT
ATOM      1  C   UNL d   1      57.965   0.351  31.042  0.00  0.00     0.206 A 
ATOM      2  N   UNL d   1      57.435   0.175  31.645  0.00  0.00    -0.277 N 
ATOM      3  N   UNL d   1      58.648   0.667  31.391  0.00  0.00    -0.215 NA
ATOM      4  C   UNL d   1      58.530   0.682  32.211  0.00  0.00     0.120 A 
ATOM      5  C   UNL d   1      57.779   0.377  32.369  0.00  0.00     0.103 A 
ATOM      6  S   UNL d   1      57.843   0.235  30.234  0.00  0.00    -0.038 SA
ENDROOT
BRANCH   2   7
ATOM      7  C   UNL d   1      56.681  -0.152  31.547  0.00  0.00     0.107 C 
BRANCH   7   8
ATOM      8  C   UNL d   1      56.309  -0.529  32.180  0.00  0.00     0.118 A 
ATOM      9  O   UNL d   1      56.353  -1.337  32.363  0.00  0.00    -0.304 OA
ATOM     10  C   UNL d   1      55.900  -1.469  33.034  0.00  0.00     0.123 A 
ATOM     11  C   UNL d   1      55.574  -0.749  33.271  0.00  0.00     0.029 A 
ATOM     12  C   UNL d   1      55.828  -0.171  32.743  0.00  0.00     0.028 A 
ENDBRANCH   7   8
ENDBRANCH   2   7
TORSDOF 2
ENDMDL
MODEL 3
REMARK VINA RESULT:      -3.2      1.480      1.937
REMARK  2 active torsions:
REMARK  status: ('A' for Active; 'I' for Inactive)
REMARK    1  A    between atoms: C_6  and  N_2 
REMARK    2  A    between atoms: C_4  and  C_6 
ROOT
ATOM      1  C   UNL d   1      55.509   0.567  34.740  0.00  0.00     0.206 A 
ATOM      2  N   UNL d   1      55.735   0.492  33.954  0.00  0.00    -0.277 N 
ATOM      3  N   UNL d   1      54.687   0.667  34.758  0.00  0.00    -0.215 NA
ATOM      4  C   UNL d   1      54.412   0.653  33.976  0.00  0.00     0.120 A 
ATOM      5  C   UNL d   1      55.061   0.544  33.478  0.00  0.00     0.103 A 
ATOM      6  S   UNL d   1      56.009   0.547  35.396  0.00  0.00    -0.038 SA
ENDROOT
BRANCH   2   7
ATOM      7  C   UNL d   1      56.509   0.382  33.680  0.00  0.00     0.107 C 
BRANCH   7   8
ATOM      8  C   UNL d   1      56.641   0.026  32.948  0.00  0.00     0.118 A 
ATOM      9  O   UNL d   1      56.430  -0.748  32.735  0.00  0.00    -0.304 OA
ATOM     10  C   UNL d   1      56.665  -0.870  31.958  0.00  0.00     0.123 A 
ATOM     11  C   UNL d   1      57.021  -0.177  31.685  0.00  0.00     0.029 A 
ATOM     12  C   UNL d   1      57.004   0.374  32.297  0.00  0.00     0.028 A 
ENDBRANCH   7   8
ENDBRANCH   2   7
TORSDOF 2
ENDMDL
MODEL 4
REMARK VINA RESULT:      -3.2      8.781      9.532
REMARK  2 active torsions:
REMARK  status: ('A' for Active; 'I' for Inactive)
REMARK    1  A    between atoms: C_6  and  N_2 
REMARK    2  A    between atoms: C_4  and  C_6 
ROOT
ATOM      1  C   UNL d   1      60.445  -6.473  36.140  0.00  0.00     0.206 A 
ATOM      2  N   UNL d   1      60.397  -7.264  35.923  0.00  0.00    -0.277 N 
ATOM      3  N   UNL d   1      59.674  -6.167  36.147  0.00  0.00    -0.215 NA
ATOM      4  C   UNL d   1      59.156  -6.778  35.932  0.00  0.00     0.120 A 
ATOM      5  C   UNL d   1      59.604  -7.457  35.794  0.00  0.00     0.103 A 
ATOM      6  S   UNL d   1      61.133  -6.055  36.320  0.00  0.00    -0.038 SA
ENDROOT
BRANCH   2   7
ATOM      7  C   UNL d   1      61.037  -7.784  35.846  0.00  0.00     0.107 C 
BRANCH   7   8
ATOM      8  C   UNL d   1      61.021  -8.376  35.271  0.00  0.00     0.118 A 
ATOM      9  O   UNL d   1      61.111  -8.266  34.453  0.00  0.00    -0.304 OA
ATOM     10  C   UNL d   1      61.057  -9.001  34.092  0.00  0.00     0.123 A 
ATOM     11  C   UNL d   1      60.934  -9.568  34.679  0.00  0.00     0.029 A 
ATOM     12  C   UNL d   1      60.912  -9.180  35.405  0.00  0.00     0.028 A 
ENDBRANCH   7   8
ENDBRANCH   2   7
TORSDOF 2
ENDMDL
MODEL 5
REMARK VINA RESULT:      -3.1      9.173      9.965
REMARK  2 active torsions:
REMARK  status: ('A' for Active; 'I' for Inactive)
REMARK    1  A    between atoms: C_6  and  N_2 
REMARK    2  A    between atoms: C_4  and  C_6 
ROOT
ATOM      1  C   UNL d   1      59.851  -9.468  33.476  0.00  0.00     0.206 A 
ATOM      2  N   UNL d   1      60.043  -9.072  34.170  0.00  0.00    -0.277 N 
ATOM      3  N   UNL d   1      60.523  -9.464  32.989  0.00  0.00    -0.215 NA
ATOM      4  C   UNL d   1      61.126  -9.062  33.392  0.00  0.00     0.120 A 
ATOM      5  C   UNL d   1      60.829  -8.819  34.123  0.00  0.00     0.103 A 
ATOM      6  S   UNL d   1      59.123  -9.809  33.293  0.00  0.00    -0.038 SA
ENDROOT
BRANCH   2   7
ATOM      7  C   UNL d   1      59.535  -8.945  34.811  0.00  0.00     0.107 C 
BRANCH   7   8
ATOM      8  C   UNL d   1      59.657  -8.301  35.313  0.00  0.00     0.118 A 
ATOM      9  O   UNL d   1      59.352  -7.536  35.211  0.00  0.00    -0.304 OA
ATOM     10  C   UNL d   1      59.611  -7.075  35.838  0.00  0.00     0.123 A 
ATOM     11  C   UNL d   1      60.076  -7.547  36.330  0.00  0.00     0.029 A 
ATOM     12  C   UNL d   1      60.102  -8.303  36.004  0.00  0.00     0.028 A 
ENDBRANCH   7   8
ENDBRANCH   2   7
TORSDOF 2
ENDMDL
MODEL 6
REMARK VINA RESULT:      -2.8      9.832     10.145
REMARK  2 active torsions:
REMARK  status: ('A' for Active; 'I' for Inactive)
REMARK    1  A    between atoms: C_6  and  N_2 
REMARK    2  A    between atoms: C_4  and  C_6 
ROOT
ATOM      1  C   UNL d   1      59.646  -8.415  35.868  0.00  0.00     0.206 A 
ATOM      2  N   UNL d   1      59.970  -8.890  35.281  0.00  0.00    -0.277 N 
ATOM      3  N   UNL d   1      59.148  -8.890  36.330  0.00  0.00    -0.215 NA
ATOM      4  C   UNL d   1      59.171  -9.659  36.021  0.00  0.00     0.120 A 
ATOM      5  C   UNL d   1      59.680  -9.659  35.371  0.00  0.00     0.103 A 
ATOM      6  S   UNL d   1      59.788  -7.610  35.979  0.00  0.00    -0.038 SA
ENDROOT
BRANCH   2   7
ATOM      7  C   UNL d   1      60.500  -8.642  34.695  0.00  0.00     0.107 C 
BRANCH   7   8
ATOM      8  C   UNL d   1      60.517  -9.027  33.965  0.00  0.00     0.118 A 
ATOM      9  O   UNL d   1      59.970  -8.933  33.349  0.00  0.00    -0.304 OA
ATOM     10  C   UNL d   1      60.200  -9.420  32.730  0.00  0.00     0.123 A 
ATOM     11  C   UNL d   1      60.887  -9.818  32.956  0.00  0.00     0.029 A 
ATOM     12  C   UNL d   1      61.080  -9.573  33.718  0.00  0.00     0.028 A 
ENDBRANCH   7   8
ENDBRANCH   2   7
TORSDOF 2
ENDMDL
MODEL 7
REMARK VINA RESULT:      -2.8      2.186      3.283
REMARK  2 active torsions:
REMARK  status: ('A' for Active; 'I' for Inactive)
REMARK    1  A    between atoms: C_6  and  N_2 
REMARK    2  A    between atoms: C_4  and  C_6 
ROOT
ATOM      1  C   UNL d   1      58.576   0.611  29.978  0.00  0.00     0.206 A 
ATOM      2  N   UNL d   1      58.156   0.568  30.684  0.00  0.00    -0.277 N 
ATOM      3  N   UNL d   1      59.380   0.682  30.167  0.00  0.00    -0.215 NA
ATOM      4  C   UNL d   1      59.448   0.682  30.993  0.00  0.00     0.120 A 
ATOM      5  C   UNL d   1      58.691   0.612  31.313  0.00  0.00     0.103 A 
ATOM      6  S   UNL d   1      58.256   0.588  29.218  0.00  0.00    -0.038 SA
ENDROOT
BRANCH   2   7
ATOM      7  C   UNL d   1      57.335   0.494  30.755  0.00  0.00     0.107 C 
BRANCH   7   8
ATOM      8  C   UNL d   1      57.010   0.122  31.416  0.00  0.00     0.118 A 
ATOM      9  O   UNL d   1      57.003  -0.695  31.563  0.00  0.00    -0.304 OA
ATOM     10  C   UNL d   1      56.625  -0.819  32.281  0.00  0.00     0.123 A 
ATOM     11  C   UNL d   1      56.398  -0.085  32.583  0.00  0.00     0.029 A 
ATOM     12  C   UNL d   1      56.637   0.493  32.048  0.00  0.00     0.028 A 
ENDBRANCH   7   8
ENDBRANCH   2   7
TORSDOF 2
ENDMDL
MODEL 8
REMARK VINA RESULT:      -2.2      3.679      4.508
REMARK  2 active torsions:
REMARK  status: ('A' for Active; 'I' for Inactive)
REMARK    1  A    between atoms: C_6  and  N_2 
REMARK    2  A    between atoms: C_4  and  C_6 
ROOT
ATOM      1  C   UNL d   1      58.435   0.062  29.104  0.00  0.00     0.206 A 
ATOM      2  N   UNL d   1      58.593  -0.742  29.166  0.00  0.00    -0.277 N 
ATOM      3  N   UNL d   1      58.080   0.304  29.813  0.00  0.00    -0.215 NA
ATOM      4  C   UNL d   1      58.022  -0.359  30.307  0.00  0.00     0.120 A 
ATOM      5  C   UNL d   1      58.340  -1.007  29.907  0.00  0.00     0.103 A 
ATOM      6  S   UNL d   1      58.600   0.544  28.455  0.00  0.00    -0.038 SA
ENDROOT
BRANCH   2   7
ATOM      7  C   UNL d   1      58.947  -1.212  28.583  0.00  0.00     0.107 C 
BRANCH   7   8
ATOM      8  C   UNL d   1      59.227  -1.965  28.774  0.00  0.00     0.118 A 
ATOM      9  O   UNL d   1      59.957  -2.140  29.128  0.00  0.00    -0.304 OA
ATOM     10  C   UNL d   1      60.005  -2.955  29.216  0.00  0.00     0.123 A 
ATOM     11  C   UNL d   1      59.310  -3.288  28.921  0.00  0.00     0.029 A 
ATOM     12  C   UNL d   1      58.832  -2.675  28.649  0.00  0.00     0.028 A 
ENDBRANCH   7   8
ENDBRANCH   2   7
TORSDOF 2
ENDMDL
MODEL 9
REMARK VINA RESULT:      -2.1      4.264      5.086
REMARK  2 active torsions:
REMARK  status: ('A' for Active; 'I' for Inactive)
REMARK    1  A    between atoms: C_6  and  N_2 
REMARK    2  A    between atoms: C_4  and  C_6 
ROOT
ATOM      1  C   UNL d   1      59.498  -3.213  28.729  0.00  0.00     0.206 A 
ATOM      2  N   UNL d   1      59.485  -2.393  28.778  0.00  0.00    -0.277 N 
ATOM      3  N   UNL d   1      60.236  -3.471  29.004  0.00  0.00    -0.215 NA
ATOM      4  C   UNL d   1      60.674  -2.802  29.222  0.00  0.00     0.120 A 
ATOM      5  C   UNL d   1      60.209  -2.134  29.082  0.00  0.00     0.103 A 
ATOM      6  S   UNL d   1      58.887  -3.696  28.455  0.00  0.00    -0.038 SA
ENDROOT
BRANCH   2   7
ATOM      7  C   UNL d   1      58.853  -1.904  28.561  0.00  0.00     0.107 C 
BRANCH   7   8
ATOM      8  C   UNL d   1      58.760  -1.166  28.919  0.00  0.00     0.118 A 
ATOM      9  O   UNL d   1      58.446  -1.025  29.674  0.00  0.00    -0.304 OA
ATOM     10  C   UNL d   1      58.457  -0.215  29.804  0.00  0.00     0.123 A 
ATOM     11  C   UNL d   1      58.776   0.150  29.136  0.00  0.00     0.029 A 
ATOM     12  C   UNL d   1      58.962  -0.440  28.592  0.00  0.00     0.028 A 
ENDBRANCH   7   8
ENDBRANCH   2   7
TORSDOF 2
ENDMDL
