MODEL 1
REMARK VINA RESULT:      -7.9      0.000      0.000
REMARK  3 active torsions:
REMARK  status: ('A' for Active; 'I' for Inactive)
REMARK    1  A    between atoms: C_6  and  C_1 
REMARK    2  A    between atoms: C_4  and  C_8 
REMARK       I    between atoms: N_11  and  C_6 
REMARK       I    between atoms: C_8  and  N_12 
REMARK    3  A    between atoms: N_12  and  N_11 
ROOT
ATOM      1  C   UNL d   1     -47.938  13.020  22.183  0.00  0.00     0.302 C 
ATOM      2  N   UNL d   1     -47.248  13.138  22.618  0.00  0.00    -0.102 NA
ATOM      3  O   UNL d   1     -47.902  12.724  21.411  0.00  0.00    -0.263 OA
ENDROOT
BRANCH   1   4
ATOM      4  C   UNL d   1     -48.678  13.197  22.512  0.00  0.00     0.123 A 
ATOM      5  C   UNL d   1     -49.213  12.601  22.659  0.00  0.00     0.305 A 
ATOM      6  O   UNL d   1     -49.954  12.789  22.991  0.00  0.00    -0.273 OA
ATOM      7  O   UNL d   1     -49.025  11.820  22.482  0.00  0.00    -0.259 OA
ATOM      8  C   UNL d   1     -50.142  13.569  23.168  0.00  0.00     0.103 A 
ATOM      9  C   UNL d   1     -49.595  14.173  23.017  0.00  0.00     0.024 A 
ATOM     10  C   UNL d   1     -50.874  13.749  23.495  0.00  0.00     0.025 A 
ATOM     11  C   UNL d   1     -48.860  13.983  22.688  0.00  0.00     0.012 A 
ATOM     12  C   UNL d   1     -49.784  14.952  23.194  0.00  0.00     0.009 A 
ATOM     13  C   UNL d   1     -50.513  15.142  23.521  0.00  0.00     0.035 A 
ATOM     14  C   UNL d   1     -51.063  14.536  23.672  0.00  0.00     0.009 A 
ATOM     15 BR   UNL d   1     -50.701  15.922  23.698  0.00  0.00    -0.049 Br
ENDBRANCH   1   4
BRANCH   2  16
ATOM     16  N   UNL d   1     -46.519  12.957  22.275  0.00  0.00    -0.102 NA
ATOM     17  C   UNL d   1     -45.831  13.052  22.718  0.00  0.00     0.300 C 
ATOM     18  O   UNL d   1     -45.868  13.326  23.497  0.00  0.00    -0.264 OA
BRANCH  17  19
ATOM     19  C   UNL d   1     -45.098  12.874  22.385  0.00  0.00     0.098 A 
ATOM     20  C   UNL d   1     -44.697  12.193  22.619  0.00  0.00     0.203 A 
ATOM     21  C   UNL d   1     -43.970  12.012  22.291  0.00  0.00     0.084 A 
ATOM     22  O   UNL d   1     -45.027  11.693  23.184  0.00  0.00    -0.286 OA
ATOM     23  C   UNL d   1     -43.636  12.509  21.726  0.00  0.00     0.199 A 
ATOM     24  C   UNL d   1     -44.035  13.192  21.489  0.00  0.00     0.042 A 
ATOM     25  O   UNL d   1     -42.903  12.328  21.394  0.00  0.00    -0.286 OA
ATOM     26  C   UNL d   1     -44.772  13.373  21.823  0.00  0.00     0.011 A 
ENDBRANCH  17  19
ENDBRANCH   2  16
TORSDOF 3
ENDMDL
MODEL 2
REMARK VINA RESULT:      -7.5      1.256      1.629
REMARK  3 active torsions:
REMARK  status: ('A' for Active; 'I' for Inactive)
REMARK    1  A    between atoms: C_6  and  C_1 
REMARK    2  A    between atoms: C_4  and  C_8 
REMARK       I    between atoms: N_11  and  C_6 
REMARK       I    between atoms: C_8  and  N_12 
REMARK    3  A    between atoms: N_12  and  N_11 
ROOT
ATOM      1  C   UNL d   1     -48.297  11.748  23.120  0.00  0.00     0.302 C 
ATOM      2  N   UNL d   1     -47.604  11.970  23.506  0.00  0.00    -0.102 NA
ATOM      3  O   UNL d   1     -48.308  11.088  22.622  0.00  0.00    -0.263 OA
ENDROOT
BRANCH   1   4
ATOM      4  C   UNL d   1     -48.994  12.185  23.225  0.00  0.00     0.123 A 
ATOM      5  C   UNL d   1     -49.675  11.814  23.477  0.00  0.00     0.305 A 
ATOM      6  O   UNL d   1     -50.370  12.262  23.580  0.00  0.00    -0.273 OA
ATOM      7  O   UNL d   1     -49.676  11.006  23.630  0.00  0.00    -0.259 OA
ATOM      8  C   UNL d   1     -50.369  13.069  23.427  0.00  0.00     0.103 A 
ATOM      9  C   UNL d   1     -49.675  13.442  23.171  0.00  0.00     0.024 A 
ATOM     10  C   UNL d   1     -51.057  13.505  23.530  0.00  0.00     0.025 A 
ATOM     11  C   UNL d   1     -48.986  12.996  23.070  0.00  0.00     0.012 A 
ATOM     12  C   UNL d   1     -49.675  14.249  23.019  0.00  0.00     0.009 A 
ATOM     13  C   UNL d   1     -50.358  14.694  23.119  0.00  0.00     0.035 A 
ATOM     14  C   UNL d   1     -51.055  14.319  23.377  0.00  0.00     0.009 A 
ATOM     15 BR   UNL d   1     -50.357  15.501  22.967  0.00  0.00    -0.049 Br
ENDBRANCH   1   4
BRANCH   2  16
ATOM     16  N   UNL d   1     -46.918  11.526  23.391  0.00  0.00    -0.102 NA
ATOM     17  C   UNL d   1     -46.184  11.886  23.487  0.00  0.00     0.300 C 
ATOM     18  O   UNL d   1     -46.131  12.683  23.697  0.00  0.00    -0.264 OA
BRANCH  17  19
ATOM     19  C   UNL d   1     -45.492  11.450  23.374  0.00  0.00     0.098 A 
ATOM     20  C   UNL d   1     -44.871  11.773  22.939  0.00  0.00     0.203 A 
ATOM     21  C   UNL d   1     -44.184  11.345  22.824  0.00  0.00     0.084 A 
ATOM     22  O   UNL d   1     -44.942  12.529  22.618  0.00  0.00    -0.286 OA
ATOM     23  C   UNL d   1     -44.110  10.589  23.143  0.00  0.00     0.199 A 
ATOM     24  C   UNL d   1     -44.730  10.262  23.580  0.00  0.00     0.042 A 
ATOM     25  O   UNL d   1     -43.418  10.156  23.028  0.00  0.00    -0.286 OA
ATOM     26  C   UNL d   1     -45.426  10.699  23.695  0.00  0.00     0.011 A 
ENDBRANCH  17  19
ENDBRANCH   2  16
TORSDOF 3
ENDMDL
MODEL 3
REMARK VINA RESULT:      -6.0      1.570      2.252
REMARK  3 active torsions:
REMARK  status: ('A' for Active; 'I' for Inactive)
REMARK    1  A    between atoms: C_6  and  C_1 
REMARK    2  A    between atoms: C_4  and  C_8 
REMARK       I    between atoms: N_11  and  C_6 
REMARK       I    between atoms: C_8  and  N_12 
REMARK    3  A    between atoms: N_12  and  N_11 
ROOT
ATOM      1  C   UNL d   1     -46.243  13.678  22.877  0.00  0.00     0.302 C 
ATOM      2  N   UNL d   1     -45.854  13.318  22.246  0.00  0.00    -0.102 NA
ATOM      3  O   UNL d   1     -45.816  14.079  23.460  0.00  0.00    -0.263 OA
ENDROOT
BRANCH   1   4
ATOM      4  C   UNL d   1     -47.069  13.643  22.936  0.00  0.00     0.123 A 
ATOM      5  C   UNL d   1     -47.519  14.306  22.785  0.00  0.00     0.305 A 
ATOM      6  O   UNL d   1     -48.348  14.260  22.847  0.00  0.00    -0.273 OA
ATOM      7  O   UNL d   1     -47.158  15.013  22.573  0.00  0.00    -0.259 OA
ATOM      8  C   UNL d   1     -48.709  13.552  23.059  0.00  0.00     0.103 A 
ATOM      9  C   UNL d   1     -48.249  12.881  23.212  0.00  0.00     0.024 A 
ATOM     10  C   UNL d   1     -49.528  13.513  23.119  0.00  0.00     0.025 A 
ATOM     11  C   UNL d   1     -47.426  12.929  23.149  0.00  0.00     0.012 A 
ATOM     12  C   UNL d   1     -48.610  12.175  23.423  0.00  0.00     0.009 A 
ATOM     13  C   UNL d   1     -49.428  12.125  23.486  0.00  0.00     0.035 A 
ATOM     14  C   UNL d   1     -49.890  12.800  23.332  0.00  0.00     0.009 A 
ATOM     15 BR   UNL d   1     -49.789  11.418  23.698  0.00  0.00    -0.049 Br
ENDBRANCH   1   4
BRANCH   2  16
ATOM     16  N   UNL d   1     -45.031  13.362  22.202  0.00  0.00    -0.102 NA
ATOM     17  C   UNL d   1     -44.640  12.973  21.590  0.00  0.00     0.300 C 
ATOM     18  O   UNL d   1     -45.064  12.543  21.026  0.00  0.00    -0.264 OA
BRANCH  17  19
ATOM     19  C   UNL d   1     -43.817  13.011  21.537  0.00  0.00     0.098 A 
ATOM     20  C   UNL d   1     -43.358  12.410  21.866  0.00  0.00     0.203 A 
ATOM     21  C   UNL d   1     -42.543  12.442  21.816  0.00  0.00     0.084 A 
ATOM     22  O   UNL d   1     -43.721  11.774  22.245  0.00  0.00    -0.286 OA
ATOM     23  C   UNL d   1     -42.177  13.076  21.438  0.00  0.00     0.199 A 
ATOM     24  C   UNL d   1     -42.633  13.680  21.107  0.00  0.00     0.042 A 
ATOM     25  O   UNL d   1     -41.355  13.111  21.387  0.00  0.00    -0.286 OA
ATOM     26  C   UNL d   1     -43.461  13.644  21.159  0.00  0.00     0.011 A 
ENDBRANCH  17  19
ENDBRANCH   2  16
TORSDOF 3
ENDMDL
MODEL 4
REMARK VINA RESULT:      -5.7      3.060      4.909
REMARK  3 active torsions:
REMARK  status: ('A' for Active; 'I' for Inactive)
REMARK    1  A    between atoms: C_6  and  C_1 
REMARK    2  A    between atoms: C_4  and  C_8 
REMARK       I    between atoms: N_11  and  C_6 
REMARK       I    between atoms: C_8  and  N_12 
REMARK    3  A    between atoms: N_12  and  N_11 
ROOT
ATOM      1  C   UNL d   1     -43.246  12.901  21.256  0.00  0.00     0.302 C 
ATOM      2  N   UNL d   1     -42.718  13.519  21.392  0.00  0.00    -0.102 NA
ATOM      3  O   UNL d   1     -43.126  12.377  20.629  0.00  0.00    -0.263 OA
ENDROOT
BRANCH   1   4
ATOM      4  C   UNL d   1     -43.906  12.797  21.748  0.00  0.00     0.123 A 
ATOM      5  C   UNL d   1     -43.943  12.159  22.254  0.00  0.00     0.305 A 
ATOM      6  O   UNL d   1     -44.610  12.064  22.743  0.00  0.00    -0.273 OA
ATOM      7  O   UNL d   1     -43.328  11.615  22.282  0.00  0.00    -0.259 OA
ATOM      8  C   UNL d   1     -45.225  12.608  22.715  0.00  0.00     0.103 A 
ATOM      9  C   UNL d   1     -45.184  13.255  22.200  0.00  0.00     0.024 A 
ATOM     10  C   UNL d   1     -45.881  12.508  23.200  0.00  0.00     0.025 A 
ATOM     11  C   UNL d   1     -44.521  13.347  21.715  0.00  0.00     0.012 A 
ATOM     12  C   UNL d   1     -45.799  13.798  22.173  0.00  0.00     0.009 A 
ATOM     13  C   UNL d   1     -46.459  13.707  22.654  0.00  0.00     0.035 A 
ATOM     14  C   UNL d   1     -46.500  13.057  23.172  0.00  0.00     0.009 A 
ATOM     15 BR   UNL d   1     -47.074  14.251  22.626  0.00  0.00    -0.049 Br
ENDBRANCH   1   4
BRANCH   2  16
ATOM     16  N   UNL d   1     -42.067  13.609  20.894  0.00  0.00    -0.102 NA
ATOM     17  C   UNL d   1     -41.589  14.276  20.973  0.00  0.00     0.300 C 
ATOM     18  O   UNL d   1     -41.758  14.848  21.544  0.00  0.00    -0.264 OA
BRANCH  17  19
ATOM     19  C   UNL d   1     -40.935  14.375  20.480  0.00  0.00     0.098 A 
ATOM     20  C   UNL d   1     -40.174  14.278  20.784  0.00  0.00     0.203 A 
ATOM     21  C   UNL d   1     -39.523  14.375  20.300  0.00  0.00     0.084 A 
ATOM     22  O   UNL d   1     -40.069  14.083  21.578  0.00  0.00    -0.286 OA
ATOM     23  C   UNL d   1     -39.624  14.570  19.505  0.00  0.00     0.199 A 
ATOM     24  C   UNL d   1     -40.384  14.668  19.197  0.00  0.00     0.042 A 
ATOM     25  O   UNL d   1     -38.969  14.668  19.016  0.00  0.00    -0.286 OA
ATOM     26  C   UNL d   1     -41.043  14.569  19.692  0.00  0.00     0.011 A 
ENDBRANCH  17  19
ENDBRANCH   2  16
TORSDOF 3
ENDMDL
MODEL 5
REMARK VINA RESULT:      -5.7      2.135      5.472
REMARK  3 active torsions:
REMARK  status: ('A' for Active; 'I' for Inactive)
REMARK    1  A    between atoms: C_6  and  C_1 
REMARK    2  A    between atoms: C_4  and  C_8 
REMARK       I    between atoms: N_11  and  C_6 
REMARK       I    between atoms: C_8  and  N_12 
REMARK    3  A    between atoms: N_12  and  N_11 
ROOT
ATOM      1  C   UNL d   1     -46.753  12.744  22.707  0.00  0.00     0.302 C 
ATOM      2  N   UNL d   1     -46.939  13.519  22.917  0.00  0.00    -0.102 NA
ATOM      3  O   UNL d   1     -47.352  12.202  22.530  0.00  0.00    -0.263 OA
ENDROOT
BRANCH   1   4
ATOM      4  C   UNL d   1     -45.963  12.497  22.671  0.00  0.00     0.123 A 
ATOM      5  C   UNL d   1     -45.696  11.904  23.163  0.00  0.00     0.305 A 
ATOM      6  O   UNL d   1     -44.900  11.663  23.119  0.00  0.00    -0.273 OA
ATOM      7  O   UNL d   1     -46.208  11.546  23.698  0.00  0.00    -0.259 OA
ATOM      8  C   UNL d   1     -44.389  12.021  22.584  0.00  0.00     0.103 A 
ATOM      9  C   UNL d   1     -44.663  12.623  22.086  0.00  0.00     0.024 A 
ATOM     10  C   UNL d   1     -43.604  11.779  22.545  0.00  0.00     0.025 A 
ATOM     11  C   UNL d   1     -45.454  12.860  22.132  0.00  0.00     0.012 A 
ATOM     12  C   UNL d   1     -44.151  12.979  21.552  0.00  0.00     0.009 A 
ATOM     13  C   UNL d   1     -43.365  12.745  21.505  0.00  0.00     0.035 A 
ATOM     14  C   UNL d   1     -43.090  12.140  22.005  0.00  0.00     0.009 A 
ATOM     15 BR   UNL d   1     -42.854  13.102  20.970  0.00  0.00    -0.049 Br
ENDBRANCH   1   4
BRANCH   2  16
ATOM     16  N   UNL d   1     -47.731  13.749  22.949  0.00  0.00    -0.102 NA
ATOM     17  C   UNL d   1     -47.917  14.551  22.955  0.00  0.00     0.300 C 
ATOM     18  O   UNL d   1     -47.320  15.121  22.931  0.00  0.00    -0.264 OA
BRANCH  17  19
ATOM     19  C   UNL d   1     -48.706  14.791  22.986  0.00  0.00     0.098 A 
ATOM     20  C   UNL d   1     -49.005  15.292  22.404  0.00  0.00     0.203 A 
ATOM     21  C   UNL d   1     -49.785  15.533  22.429  0.00  0.00     0.084 A 
ATOM     22  O   UNL d   1     -48.516  15.552  21.793  0.00  0.00    -0.286 OA
ATOM     23  C   UNL d   1     -50.277  15.276  23.039  0.00  0.00     0.199 A 
ATOM     24  C   UNL d   1     -49.981  14.774  23.624  0.00  0.00     0.042 A 
ATOM     25  O   UNL d   1     -51.064  15.518  23.066  0.00  0.00    -0.286 OA
ATOM     26  C   UNL d   1     -49.189  14.532  23.595  0.00  0.00     0.011 A 
ENDBRANCH  17  19
ENDBRANCH   2  16
TORSDOF 3
ENDMDL
MODEL 6
REMARK VINA RESULT:      -5.5      2.579      6.097
REMARK  3 active torsions:
REMARK  status: ('A' for Active; 'I' for Inactive)
REMARK    1  A    between atoms: C_6  and  C_1 
REMARK    2  A    between atoms: C_4  and  C_8 
REMARK       I    between atoms: N_11  and  C_6 
REMARK       I    between atoms: C_8  and  N_12 
REMARK    3  A    between atoms: N_12  and  N_11 
ROOT
ATOM      1  C   UNL d   1     -44.229  13.005  21.511  0.00  0.00     0.302 C 
ATOM      2  N   UNL d   1     -44.669  13.282  22.150  0.00  0.00    -0.102 NA
ATOM      3  O   UNL d   1     -44.598  12.599  20.892  0.00  0.00    -0.263 OA
ENDROOT
BRANCH   1   4
ATOM      4  C   UNL d   1     -43.410  13.130  21.479  0.00  0.00     0.123 A 
ATOM      5  C   UNL d   1     -42.897  12.549  21.730  0.00  0.00     0.305 A 
ATOM      6  O   UNL d   1     -42.076  12.685  21.693  0.00  0.00    -0.273 OA
ATOM      7  O   UNL d   1     -43.186  11.835  22.016  0.00  0.00    -0.259 OA
ATOM      8  C   UNL d   1     -41.787  13.399  21.407  0.00  0.00     0.103 A 
ATOM      9  C   UNL d   1     -42.312  13.988  21.152  0.00  0.00     0.024 A 
ATOM     10  C   UNL d   1     -40.976  13.528  21.373  0.00  0.00     0.025 A 
ATOM     11  C   UNL d   1     -43.126  13.850  21.190  0.00  0.00     0.012 A 
ATOM     12  C   UNL d   1     -42.022  14.701  20.866  0.00  0.00     0.009 A 
ATOM     13  C   UNL d   1     -41.213  14.839  20.829  0.00  0.00     0.035 A 
ATOM     14  C   UNL d   1     -40.686  14.248  21.084  0.00  0.00     0.009 A 
ATOM     15 BR   UNL d   1     -40.924  15.553  20.542  0.00  0.00    -0.049 Br
ENDBRANCH   1   4
BRANCH   2  16
ATOM     16  N   UNL d   1     -45.483  13.149  22.167  0.00  0.00    -0.102 NA
ATOM     17  C   UNL d   1     -45.922  13.416  22.812  0.00  0.00     0.300 C 
ATOM     18  O   UNL d   1     -45.552  13.811  23.436  0.00  0.00    -0.264 OA
BRANCH  17  19
ATOM     19  C   UNL d   1     -46.736  13.287  22.838  0.00  0.00     0.098 A 
ATOM     20  C   UNL d   1     -47.038  12.662  23.282  0.00  0.00     0.203 A 
ATOM     21  C   UNL d   1     -47.844  12.530  23.311  0.00  0.00     0.084 A 
ATOM     22  O   UNL d   1     -46.527  12.167  23.698  0.00  0.00    -0.286 OA
ATOM     23  C   UNL d   1     -48.359  13.023  22.896  0.00  0.00     0.199 A 
ATOM     24  C   UNL d   1     -48.060  13.650  22.451  0.00  0.00     0.042 A 
ATOM     25  O   UNL d   1     -49.172  12.892  22.925  0.00  0.00    -0.286 OA
ATOM     26  C   UNL d   1     -47.241  13.781  22.423  0.00  0.00     0.011 A 
ENDBRANCH  17  19
ENDBRANCH   2  16
TORSDOF 3
ENDMDL
