MODEL 1
REMARK VINA RESULT:      -0.8      0.000      0.000
REMARK  7 active torsions:
REMARK  status: ('A' for Active; 'I' for Inactive)
REMARK    1  A    between atoms: C_3  and  S_1 
REMARK    2  A    between atoms: N_4  and  S_1 
REMARK    3  A    between atoms: C_2  and  C_11 
REMARK       I    between atoms: N_5  and  C_2 
REMARK    4  A    between atoms: C_18  and  N_4 
REMARK    5  A    between atoms: C_12  and  N_5 
REMARK    6  A    between atoms: C_22  and  C_18 
REMARK    7  A    between atoms: O_26  and  C_19 
ROOT
ATOM      1  C   UNL d   1      32.653  19.393 -22.805  0.00  0.00     0.058 A 
ATOM      2  C   UNL d   1      32.196  20.068 -22.974  0.00  0.00     0.005 A 
ATOM      3  C   UNL d   1      33.175  19.400 -22.167  0.00  0.00     0.005 A 
ATOM      4  C   UNL d   1      32.783  20.747 -21.871  0.00  0.00     0.020 A 
ATOM      5  C   UNL d   1      32.262  20.739 -22.510  0.00  0.00     0.002 A 
ATOM      6  C   UNL d   1      33.240  20.083 -21.696  0.00  0.00     0.002 A 
ENDROOT
BRANCH   4   7
ATOM      7  C   UNL d   1      32.853  21.425 -21.397  0.00  0.00     0.112 C 
BRANCH   7   8
ATOM      8  N   UNL d   1      32.323  21.547 -20.766  0.00  0.00    -0.157 NA
BRANCH   8   9
ATOM      9  S   UNL d   1      32.554  22.000 -20.107  0.00  0.00     0.285 S 
ATOM     10  O   UNL d   1      33.211  22.293 -20.528  0.00  0.00    -0.198 OA
ATOM     11  O   UNL d   1      31.894  21.710 -19.675  0.00  0.00    -0.198 OA
BRANCH   9  12
ATOM     12  C   UNL d   1      32.781  22.454 -19.440  0.00  0.00     0.107 A 
ATOM     13  C   UNL d   1      32.826  22.104 -18.694  0.00  0.00     0.037 A 
ATOM     14  C   UNL d   1      33.049  22.547 -18.039  0.00  0.00     0.095 A 
ATOM     15  C   UNL d   1      33.228  23.344 -18.123  0.00  0.00     0.024 A 
ATOM     16  C   UNL d   1      33.183  23.702 -18.872  0.00  0.00     0.003 A 
ATOM     17  C   UNL d   1      32.961  23.258 -19.527  0.00  0.00     0.013 A 
BRANCH  14  18
ATOM     18  O   UNL d   1      33.096  22.197 -17.285  0.00  0.00    -0.328 OA
ATOM     19  C   UNL d   1      33.134  22.675 -16.620  0.00  0.00     0.181 C 
ENDBRANCH  14  18
ENDBRANCH   9  12
ENDBRANCH   8   9
ENDBRANCH   7   8
ENDBRANCH   4   7
BRANCH   1  20
ATOM     20  C   UNL d   1      32.593  18.713 -23.268  0.00  0.00     0.279 C 
ATOM     21  N   UNL d   1      31.908  18.259 -23.245  0.00  0.00    -0.208 NA
ATOM     22  O   UNL d   1      33.219  18.485 -23.757  0.00  0.00    -0.265 OA
BRANCH  21  23
ATOM     23  C   UNL d   1      31.848  17.574 -23.713  0.00  0.00     0.086 A 
ATOM     24  C   UNL d   1      32.133  16.852 -23.412  0.00  0.00     0.032 A 
ATOM     25  C   UNL d   1      32.071  16.170 -23.882  0.00  0.00     0.070 A 
ATOM     26 CL   UNL d   1      32.352  15.454 -23.586  0.00  0.00    -0.081 Cl
ATOM     27  C   UNL d   1      31.734  16.214 -24.633  0.00  0.00     0.068 A 
ATOM     28  C   UNL d   1      31.454  16.939 -24.921  0.00  0.00     0.014 A 
ATOM     29 CL   UNL d   1      31.677  15.529 -25.095  0.00  0.00    -0.082 Cl
ATOM     30  C   UNL d   1      31.515  17.616 -24.456  0.00  0.00     0.020 A 
ENDBRANCH  21  23
ENDBRANCH   1  20
TORSDOF 7
ENDMDL
MODEL 2
REMARK VINA RESULT:      -0.4      3.119      6.833
REMARK  7 active torsions:
REMARK  status: ('A' for Active; 'I' for Inactive)
REMARK    1  A    between atoms: C_3  and  S_1 
REMARK    2  A    between atoms: N_4  and  S_1 
REMARK    3  A    between atoms: C_2  and  C_11 
REMARK       I    between atoms: N_5  and  C_2 
REMARK    4  A    between atoms: C_18  and  N_4 
REMARK    5  A    between atoms: C_12  and  N_5 
REMARK    6  A    between atoms: C_22  and  C_18 
REMARK    7  A    between atoms: O_26  and  C_19 
ROOT
ATOM      1  C   UNL d   1      33.017  20.005 -22.836  0.00  0.00     0.058 A 
ATOM      2  C   UNL d   1      32.923  19.302 -22.400  0.00  0.00     0.005 A 
ATOM      3  C   UNL d   1      33.048  19.976 -23.659  0.00  0.00     0.005 A 
ATOM      4  C   UNL d   1      32.891  18.551 -23.608  0.00  0.00     0.020 A 
ATOM      5  C   UNL d   1      32.861  18.581 -22.785  0.00  0.00     0.002 A 
ATOM      6  C   UNL d   1      32.984  19.243 -24.048  0.00  0.00     0.002 A 
ENDROOT
BRANCH   4   7
ATOM      7  C   UNL d   1      32.828  17.824 -24.003  0.00  0.00     0.112 C 
BRANCH   7   8
ATOM      8  N   UNL d   1      32.382  17.768 -24.703  0.00  0.00    -0.157 NA
BRANCH   8   9
ATOM      9  S   UNL d   1      31.728  17.256 -24.744  0.00  0.00     0.285 S 
ATOM     10  O   UNL d   1      31.264  17.863 -25.079  0.00  0.00    -0.198 OA
ATOM     11  O   UNL d   1      32.187  16.639 -24.407  0.00  0.00    -0.198 OA
BRANCH   9  12
ATOM     12  C   UNL d   1      31.071  16.736 -24.783  0.00  0.00     0.107 A 
ATOM     13  C   UNL d   1      30.323  16.992 -24.547  0.00  0.00     0.037 A 
ATOM     14  C   UNL d   1      29.679  16.483 -24.584  0.00  0.00     0.095 A 
ATOM     15  C   UNL d   1      29.776  15.715 -24.858  0.00  0.00     0.024 A 
ATOM     16  C   UNL d   1      30.527  15.453 -25.097  0.00  0.00     0.003 A 
ATOM     17  C   UNL d   1      31.172  15.961 -25.059  0.00  0.00     0.013 A 
BRANCH  14  18
ATOM     18  O   UNL d   1      28.922  16.738 -24.347  0.00  0.00    -0.328 OA
ATOM     19  C   UNL d   1      28.491  16.283 -23.818  0.00  0.00     0.181 C 
ENDBRANCH  14  18
ENDBRANCH   9  12
ENDBRANCH   8   9
ENDBRANCH   7   8
ENDBRANCH   4   7
BRANCH   1  20
ATOM     20  C   UNL d   1      33.081  20.733 -22.456  0.00  0.00     0.279 C 
ATOM     21  N   UNL d   1      32.985  20.782 -21.641  0.00  0.00    -0.208 NA
ATOM     22  O   UNL d   1      33.241  21.418 -22.891  0.00  0.00    -0.265 OA
BRANCH  21  23
ATOM     23  C   UNL d   1      33.049  21.519 -21.258  0.00  0.00     0.086 A 
ATOM     24  C   UNL d   1      33.090  21.541 -20.428  0.00  0.00     0.032 A 
ATOM     25  C   UNL d   1      33.154  22.279 -20.050  0.00  0.00     0.070 A 
ATOM     26 CL   UNL d   1      33.194  22.304 -19.227  0.00  0.00    -0.081 Cl
ATOM     27  C   UNL d   1      33.177  22.971 -20.497  0.00  0.00     0.068 A 
ATOM     28  C   UNL d   1      33.136  22.935 -21.324  0.00  0.00     0.014 A 
ATOM     29 CL   UNL d   1      33.241  23.702 -20.112  0.00  0.00    -0.082 Cl
ATOM     30  C   UNL d   1      33.072  22.204 -21.698  0.00  0.00     0.020 A 
ENDBRANCH  21  23
ENDBRANCH   1  20
TORSDOF 7
ENDMDL
MODEL 3
REMARK VINA RESULT:       1.8      1.092      1.546
REMARK  7 active torsions:
REMARK  status: ('A' for Active; 'I' for Inactive)
REMARK    1  A    between atoms: C_3  and  S_1 
REMARK    2  A    between atoms: N_4  and  S_1 
REMARK    3  A    between atoms: C_2  and  C_11 
REMARK       I    between atoms: N_5  and  C_2 
REMARK    4  A    between atoms: C_18  and  N_4 
REMARK    5  A    between atoms: C_12  and  N_5 
REMARK    6  A    between atoms: C_22  and  C_18 
REMARK    7  A    between atoms: O_26  and  C_19 
ROOT
ATOM      1  C   UNL d   1      32.636  20.264 -21.955  0.00  0.00     0.058 A 
ATOM      2  C   UNL d   1      32.136  20.927 -22.012  0.00  0.00     0.005 A 
ATOM      3  C   UNL d   1      33.178  20.210 -21.336  0.00  0.00     0.005 A 
ATOM      4  C   UNL d   1      32.722  21.475 -20.838  0.00  0.00     0.020 A 
ATOM      5  C   UNL d   1      32.180  21.527 -21.457  0.00  0.00     0.002 A 
ATOM      6  C   UNL d   1      33.221  20.821 -20.773  0.00  0.00     0.002 A 
ENDROOT
BRANCH   4   7
ATOM      7  C   UNL d   1      32.771  22.080 -20.272  0.00  0.00     0.112 C 
BRANCH   7   8
ATOM      8  N   UNL d   1      33.122  21.931 -19.532  0.00  0.00    -0.157 NA
BRANCH   8   9
ATOM      9  S   UNL d   1      32.864  22.341 -18.855  0.00  0.00     0.285 S 
ATOM     10  O   UNL d   1      32.950  21.651 -18.395  0.00  0.00    -0.198 OA
ATOM     11  O   UNL d   1      32.776  23.041 -19.310  0.00  0.00    -0.198 OA
BRANCH   9  12
ATOM     12  C   UNL d   1      32.605  22.758 -18.176  0.00  0.00     0.107 A 
ATOM     13  C   UNL d   1      32.976  22.642 -17.449  0.00  0.00     0.037 A 
ATOM     14  C   UNL d   1      32.723  23.050 -16.782  0.00  0.00     0.095 A 
ATOM     15  C   UNL d   1      32.096  23.578 -16.837  0.00  0.00     0.024 A 
ATOM     16  C   UNL d   1      31.719  23.699 -17.567  0.00  0.00     0.003 A 
ATOM     17  C   UNL d   1      31.972  23.291 -18.233  0.00  0.00     0.013 A 
BRANCH  14  18
ATOM     18  O   UNL d   1      33.095  22.935 -16.046  0.00  0.00    -0.328 OA
ATOM     19  C   UNL d   1      33.060  22.199 -15.686  0.00  0.00     0.181 C 
ENDBRANCH  14  18
ENDBRANCH   9  12
ENDBRANCH   8   9
ENDBRANCH   7   8
ENDBRANCH   4   7
BRANCH   1  20
ATOM     20  C   UNL d   1      32.598  19.656 -22.510  0.00  0.00     0.279 C 
ATOM     21  N   UNL d   1      32.478  18.880 -22.263  0.00  0.00    -0.208 NA
ATOM     22  O   UNL d   1      32.679  19.820 -23.316  0.00  0.00    -0.265 OA
BRANCH  21  23
ATOM     23  C   UNL d   1      32.440  18.267 -22.824  0.00  0.00     0.086 A 
ATOM     24  C   UNL d   1      31.790  18.233 -23.343  0.00  0.00     0.032 A 
ATOM     25  C   UNL d   1      31.756  17.618 -23.902  0.00  0.00     0.070 A 
ATOM     26 CL   UNL d   1      31.112  17.582 -24.416  0.00  0.00    -0.081 Cl
ATOM     27  C   UNL d   1      32.358  17.057 -23.936  0.00  0.00     0.068 A 
ATOM     28  C   UNL d   1      33.000  17.103 -23.414  0.00  0.00     0.014 A 
ATOM     29 CL   UNL d   1      32.316  16.448 -24.497  0.00  0.00    -0.082 Cl
ATOM     30  C   UNL d   1      33.035  17.711 -22.860  0.00  0.00     0.020 A 
ENDBRANCH  21  23
ENDBRANCH   1  20
TORSDOF 7
ENDMDL
