MODEL 1
REMARK VINA RESULT:       0.7      0.000      0.000
REMARK  4 active torsions:
REMARK  status: ('A' for Active; 'I' for Inactive)
REMARK    1  A    between atoms: C_10  and  C_3 
REMARK    2  A    between atoms: C_11  and  N_5 
REMARK    3  A    between atoms: O_17  and  C_10 
REMARK    4  A    between atoms: C_21  and  O_17 
ROOT
ATOM      1  C   UNL d   1     -41.387-121.378 -51.752  0.00  0.00     0.086 A 
ATOM      2  C   UNL d   1     -41.519-121.875 -51.111  0.00  0.00     0.038 A 
ATOM      3  C   UNL d   1     -41.651-122.680 -51.232  0.00  0.00     0.165 A 
ATOM      4  C   UNL d   1     -41.386-121.685 -52.521  0.00  0.00     0.282 A 
ATOM      5  N   UNL d   1     -41.517-122.487 -52.644  0.00  0.00    -0.194 N 
ATOM      6  N   UNL d   1     -41.650-122.987 -52.001  0.00  0.00    -0.157 NA
ATOM      7  C   UNL d   1     -41.274-120.614 -51.457  0.00  0.00     0.137 A 
ATOM      8  C   UNL d   1     -41.487-121.416 -50.425  0.00  0.00     0.039 A 
ATOM      9  S   UNL d   1     -41.338-120.644 -50.639  0.00  0.00    -0.066 SA
ATOM     10  O   UNL d   1     -41.253-121.184 -53.172  0.00  0.00    -0.265 OA
ATOM     11  N   UNL d   1     -41.123-119.922 -51.894  0.00  0.00    -0.141 N 
ENDROOT
BRANCH   5  12
ATOM     12  C   UNL d   1     -41.516-122.792 -53.408  0.00  0.00     0.086 A 
ATOM     13  C   UNL d   1     -41.886-122.376 -54.018  0.00  0.00     0.019 A 
ATOM     14  C   UNL d   1     -41.885-122.685 -54.789  0.00  0.00     0.002 A 
ATOM     15  C   UNL d   1     -41.514-123.405 -54.945  0.00  0.00     0.000 A 
ATOM     16  C   UNL d   1     -41.147-123.817 -54.336  0.00  0.00     0.002 A 
ATOM     17  C   UNL d   1     -41.513-123.710 -55.709  0.00  0.00     0.000 C 
ATOM     18  C   UNL d   1     -41.147-123.509 -53.565  0.00  0.00     0.019 A 
ENDBRANCH   5  12
BRANCH   3  19
ATOM     19  C   UNL d   1     -41.784-123.181 -50.581  0.00  0.00     0.320 C 
ATOM     20  O   UNL d   1     -41.146-123.519 -50.191  0.00  0.00    -0.257 OA
BRANCH  19  21
ATOM     21  O   UNL d   1     -42.557-123.338 -50.328  0.00  0.00    -0.270 OA
BRANCH  21  22
ATOM     22  C   UNL d   1     -42.684-123.748 -49.628  0.00  0.00     0.126 C 
ATOM     23  C   UNL d   1     -43.453-123.817 -49.320  0.00  0.00     0.029 C 
ENDBRANCH  21  22
ENDBRANCH  19  21
ENDBRANCH   3  19
TORSDOF 4
ENDMDL
