MODEL 1
REMARK VINA RESULT:      51.5      0.000      0.000
REMARK  5 active torsions:
REMARK  status: ('A' for Active; 'I' for Inactive)
REMARK    1  A    between atoms: N_2  and  C_1 
REMARK    2  A    between atoms: N_11  and  C_6 
REMARK    3  A    between atoms: C_13  and  N_11 
REMARK    4  A    between atoms: O_20  and  C_14 
REMARK    5  A    between atoms: C_23  and  O_20 
ROOT
ATOM      1  C   UNL d   1     -51.375  25.132  33.496  0.00  0.00     0.752 A 
ATOM      2  N   UNL d   1     -51.357  25.944  33.659  0.00  0.00    -0.040 NA
ATOM      3  C   UNL d   1     -50.637  26.340  33.708  0.00  0.00     0.182 A 
ATOM      4  N   UNL d   1     -50.665  24.721  33.381  0.00  0.00    -0.059 NA
ATOM      5  C   UNL d   1     -49.928  25.929  33.593  0.00  0.00     0.059 A 
ATOM      6  C   UNL d   1     -49.941  25.117  33.429  0.00  0.00     0.103 A 
ATOM      7  C   UNL d   1     -49.232  24.707  33.315  0.00  0.00     0.021 C 
ENDROOT
BRANCH   3   8
ATOM      8  N   UNL d   1     -50.619  27.147  33.870  0.00  0.00    -0.226 NA
BRANCH   8   9
ATOM      9  C   UNL d   1     -49.913  27.514  34.109  0.00  0.00     0.083 A 
ATOM     10  C   UNL d   1     -49.752  27.588  34.921  0.00  0.00     0.021 A 
ATOM     11  C   UNL d   1     -49.043  27.956  35.155  0.00  0.00     0.026 A 
ATOM     12  C   UNL d   1     -48.512  28.240  34.592  0.00  0.00     0.100 A 
ATOM     13  C   UNL d   1     -48.684  28.159  33.785  0.00  0.00     0.026 A 
ATOM     14  C   UNL d   1     -49.385  27.796  33.542  0.00  0.00     0.021 A 
BRANCH  12  15
ATOM     15  O   UNL d   1     -47.809  28.604  34.832  0.00  0.00    -0.305 OA
BRANCH  15  16
ATOM     16  C   UNL d   1     -47.805  29.063  35.515  0.00  0.00     0.123 C 
ATOM     17  C   UNL d   1     -47.361  29.757  35.531  0.00  0.00     0.029 C 
ENDBRANCH  15  16
ENDBRANCH  12  15
ENDBRANCH   8   9
ENDBRANCH   3   8
BRANCH   1  18
ATOM     18  N   UNL d   1     -52.019  24.765  33.450  0.00  0.00    -0.058 N 
ATOM     19  N   UNL d   1     -53.314  24.779  33.312  0.00  0.00    -0.151 NA
ATOM     20  C   UNL d   1     -53.321  24.019  33.357  0.00  0.00     0.103 A 
ATOM     21  C   UNL d   1     -53.970  23.647  33.311  0.00  0.00     0.022 C 
ATOM     22  C   UNL d   1     -52.676  23.655  33.448  0.00  0.00     0.041 A 
ATOM     23  C   UNL d   1     -52.027  24.014  33.495  0.00  0.00     0.102 A 
ATOM     24  C   UNL d   1     -51.377  23.638  33.587  0.00  0.00     0.021 C 
ENDBRANCH   1  18
TORSDOF 5
ENDMDL
MODEL 2
REMARK VINA RESULT:      52.2      1.050      1.624
REMARK  5 active torsions:
REMARK  status: ('A' for Active; 'I' for Inactive)
REMARK    1  A    between atoms: N_2  and  C_1 
REMARK    2  A    between atoms: N_11  and  C_6 
REMARK    3  A    between atoms: C_13  and  N_11 
REMARK    4  A    between atoms: O_20  and  C_14 
REMARK    5  A    between atoms: C_23  and  O_20 
ROOT
ATOM      1  C   UNL d   1     -51.042  25.930  33.503  0.00  0.00     0.752 A 
ATOM      2  N   UNL d   1     -50.240  26.037  33.679  0.00  0.00    -0.040 NA
ATOM      3  C   UNL d   1     -49.925  26.795  33.730  0.00  0.00     0.182 A 
ATOM      4  N   UNL d   1     -51.525  26.590  33.379  0.00  0.00    -0.059 NA
ATOM      5  C   UNL d   1     -50.408  27.455  33.606  0.00  0.00     0.059 A 
ATOM      6  C   UNL d   1     -51.211  27.353  33.430  0.00  0.00     0.103 A 
ATOM      7  C   UNL d   1     -51.694  28.014  33.306  0.00  0.00     0.021 C 
ENDROOT
BRANCH   3   8
ATOM      8  N   UNL d   1     -49.126  26.901  33.905  0.00  0.00    -0.226 NA
BRANCH   8   9
ATOM      9  C   UNL d   1     -48.875  27.559  34.344  0.00  0.00     0.083 A 
ATOM     10  C   UNL d   1     -48.676  27.456  35.145  0.00  0.00     0.021 A 
ATOM     11  C   UNL d   1     -48.425  28.119  35.581  0.00  0.00     0.026 A 
ATOM     12  C   UNL d   1     -48.375  28.861  35.226  0.00  0.00     0.100 A 
ATOM     13  C   UNL d   1     -48.576  28.950  34.427  0.00  0.00     0.026 A 
ATOM     14  C   UNL d   1     -48.827  28.299  33.985  0.00  0.00     0.021 A 
BRANCH  12  15
ATOM     15  O   UNL d   1     -48.124  29.515  35.666  0.00  0.00    -0.305 OA
BRANCH  15  16
ATOM     16  C   UNL d   1     -47.364  29.810  35.555  0.00  0.00     0.123 C 
ATOM     17  C   UNL d   1     -47.065  30.366  36.084  0.00  0.00     0.029 C 
ENDBRANCH  15  16
ENDBRANCH  12  15
ENDBRANCH   8   9
ENDBRANCH   3   8
BRANCH   1  18
ATOM     18  N   UNL d   1     -51.336  25.250  33.454  0.00  0.00    -0.058 N 
ATOM     19  N   UNL d   1     -51.181  23.958  33.409  0.00  0.00    -0.151 NA
ATOM     20  C   UNL d   1     -51.935  23.874  33.355  0.00  0.00     0.103 A 
ATOM     21  C   UNL d   1     -52.234  23.188  33.306  0.00  0.00     0.022 C 
ATOM     22  C   UNL d   1     -52.368  24.483  33.353  0.00  0.00     0.041 A 
ATOM     23  C   UNL d   1     -52.082  25.167  33.401  0.00  0.00     0.102 A 
ATOM     24  C   UNL d   1     -52.527  25.778  33.397  0.00  0.00     0.021 C 
ENDBRANCH   1  18
TORSDOF 5
ENDMDL
