MODEL 1
REMARK VINA RESULT:      44.3      0.000      0.000
REMARK  2 active torsions:
REMARK  status: ('A' for Active; 'I' for Inactive)
REMARK    1  A    between atoms: C_6  and  C_1 
REMARK    2  A    between atoms: N_8  and  C_6 
ROOT
ATOM      1  C   UNL d   1     -51.045  26.307  33.306  0.00  0.00     0.090 C 
ENDROOT
BRANCH   1   2
ATOM      2  C   UNL d   1     -50.666  26.582  33.987  0.00  0.00     0.133 A 
ATOM      3  C   UNL d   1     -49.843  26.536  34.037  0.00  0.00     0.289 A 
ATOM      4  N   UNL d   1     -49.456  26.808  34.714  0.00  0.00    -0.151 NA
ATOM      5  O   UNL d   1     -49.400  26.220  33.414  0.00  0.00    -0.265 OA
ATOM      6  C   UNL d   1     -49.899  27.124  35.337  0.00  0.00     0.374 A 
ATOM      7  N   UNL d   1     -50.721  27.170  35.287  0.00  0.00    -0.151 NA
ATOM      8  O   UNL d   1     -49.512  27.396  36.014  0.00  0.00    -0.242 OA
ATOM      9  C   UNL d   1     -51.106  26.893  34.599  0.00  0.00     0.289 A 
ATOM     10  O   UNL d   1     -51.921  26.936  34.546  0.00  0.00    -0.265 OA
ENDBRANCH   1   2
BRANCH   1  11
ATOM     11  N   UNL d   1     -51.658  25.760  33.367  0.00  0.00    -0.304 N 
ATOM     12  C   UNL d   1     -51.579  24.934  33.365  0.00  0.00     0.064 A 
ATOM     13  C   UNL d   1     -52.332  24.612  33.437  0.00  0.00     0.018 A 
ATOM     14  C   UNL d   1     -50.921  24.447  33.306  0.00  0.00     0.018 A 
ATOM     15  C   UNL d   1     -52.429  23.789  33.452  0.00  0.00     0.002 A 
ATOM     16  C   UNL d   1     -52.877  25.223  33.484  0.00  0.00     0.021 A 
ATOM     17  C   UNL d   1     -51.767  23.302  33.393  0.00  0.00     0.000 A 
ATOM     18  C   UNL d   1     -51.014  23.632  33.320  0.00  0.00     0.002 A 
ATOM     19  C   UNL d   1     -52.468  25.938  33.441  0.00  0.00     0.080 A 
ENDBRANCH   1  11
TORSDOF 2
ENDMDL
MODEL 2
REMARK VINA RESULT:      46.9      5.276      7.243
REMARK  2 active torsions:
REMARK  status: ('A' for Active; 'I' for Inactive)
REMARK    1  A    between atoms: C_6  and  C_1 
REMARK    2  A    between atoms: N_8  and  C_6 
ROOT
ATOM      1  C   UNL d   1     -47.973  31.379  35.349  0.00  0.00     0.090 C 
ENDROOT
BRANCH   1   2
ATOM      2  C   UNL d   1     -47.822  30.568  35.400  0.00  0.00     0.133 A 
ATOM      3  C   UNL d   1     -47.284  30.292  35.961  0.00  0.00     0.289 A 
ATOM      4  N   UNL d   1     -47.128  29.483  36.019  0.00  0.00    -0.151 NA
ATOM      5  O   UNL d   1     -46.896  30.818  36.469  0.00  0.00    -0.265 OA
ATOM      6  C   UNL d   1     -47.514  28.956  35.512  0.00  0.00     0.374 A 
ATOM      7  N   UNL d   1     -48.053  29.232  34.951  0.00  0.00    -0.151 NA
ATOM      8  O   UNL d   1     -47.358  28.147  35.569  0.00  0.00    -0.242 OA
ATOM      9  C   UNL d   1     -48.206  30.052  34.898  0.00  0.00     0.289 A 
ATOM     10  O   UNL d   1     -48.739  30.330  34.343  0.00  0.00    -0.265 OA
ENDBRANCH   1   2
BRANCH   1  11
ATOM     11  N   UNL d   1     -47.568  31.840  34.799  0.00  0.00    -0.304 N 
ATOM     12  C   UNL d   1     -47.891  32.451  34.340  0.00  0.00     0.064 A 
ATOM     13  C   UNL d   1     -47.288  32.756  33.871  0.00  0.00     0.018 A 
ATOM     14  C   UNL d   1     -48.650  32.760  34.295  0.00  0.00     0.018 A 
ATOM     15  C   UNL d   1     -47.447  33.379  33.349  0.00  0.00     0.002 A 
ATOM     16  C   UNL d   1     -46.597  32.345  34.031  0.00  0.00     0.021 A 
ATOM     17  C   UNL d   1     -48.209  33.688  33.306  0.00  0.00     0.000 A 
ATOM     18  C   UNL d   1     -48.810  33.377  33.779  0.00  0.00     0.002 A 
ATOM     19  C   UNL d   1     -46.761  31.776  34.605  0.00  0.00     0.080 A 
ENDBRANCH   1  11
TORSDOF 2
ENDMDL
