MODEL 1
REMARK VINA RESULT:      75.0      0.000      0.000
REMARK  5 active torsions:
REMARK  status: ('A' for Active; 'I' for Inactive)
REMARK    1  A    between atoms: C_13  and  N_2 
REMARK    2  A    between atoms: C_10  and  N_4 
REMARK    3  A    between atoms: C_11  and  C_10 
REMARK       I    between atoms: N_15  and  C_11 
REMARK    4  A    between atoms: C_16  and  N_15 
REMARK    5  A    between atoms: O_21  and  C_19 
ROOT
ATOM      1  C   UNL d   1      14.080  14.166  -5.039  0.00  0.00     0.172 A 
ATOM      2  N   UNL d   1      14.331  15.222  -4.094  0.00  0.00    -0.226 N 
ATOM      3  C   UNL d   1      13.899  14.783  -3.515  0.00  0.00     0.342 A 
ATOM      4  N   UNL d   1      13.573  14.059  -3.708  0.00  0.00    -0.252 N 
ATOM      5  C   UNL d   1      13.660  13.750  -4.463  0.00  0.00     0.098 A 
ATOM      6  C   UNL d   1      14.415  14.905  -4.850  0.00  0.00     0.292 A 
ATOM      7  O   UNL d   1      14.081  13.735  -5.736  0.00  0.00    -0.301 OA
ATOM      8  C   UNL d   1      13.410  13.060  -4.829  0.00  0.00     0.041 A 
ATOM      9  C   UNL d   1      13.674  13.064  -5.604  0.00  0.00     0.102 A 
ATOM     10  O   UNL d   1      13.803  15.091  -2.737  0.00  0.00    -0.245 OA
ATOM     11  O   UNL d   1      14.841  15.329  -5.432  0.00  0.00    -0.264 OA
ATOM     12  C   UNL d   1      12.966  12.417  -4.542  0.00  0.00     0.004 A 
ATOM     13  C   UNL d   1      13.499  12.427  -6.106  0.00  0.00     0.025 A 
ATOM     14  C   UNL d   1      12.790  11.779  -5.044  0.00  0.00     0.000 A 
ATOM     15  C   UNL d   1      13.061  11.798  -5.815  0.00  0.00     0.002 A 
ENDROOT
BRANCH   4  16
ATOM     16  C   UNL d   1      13.141  13.621  -3.130  0.00  0.00     0.147 C 
BRANCH  16  17
ATOM     17  C   UNL d   1      13.548  13.327  -2.445  0.00  0.00     0.297 C 
ATOM     18  N   UNL d   1      13.313  12.628  -2.108  0.00  0.00    -0.207 NA
ATOM     19  O   UNL d   1      14.176  13.762  -2.135  0.00  0.00    -0.264 OA
BRANCH  18  20
ATOM     20  C   UNL d   1      13.704  12.348  -1.452  0.00  0.00     0.087 A 
ATOM     21  C   UNL d   1      14.537  12.309  -1.460  0.00  0.00     0.043 A 
ATOM     22  C   UNL d   1      14.941  12.026  -0.796  0.00  0.00     0.096 A 
ATOM     23  C   UNL d   1      14.511  11.780  -0.125  0.00  0.00     0.024 A 
ATOM     24  C   UNL d   1      13.684  11.820  -0.123  0.00  0.00     0.004 A 
ATOM     25  C   UNL d   1      13.286  12.102  -0.783  0.00  0.00     0.019 A 
BRANCH  22  26
ATOM     26  O   UNL d   1      15.776  11.983  -0.793  0.00  0.00    -0.328 OA
ATOM     27  C   UNL d   1      16.196  12.242  -0.134  0.00  0.00     0.181 C 
ENDBRANCH  22  26
ENDBRANCH  18  20
ENDBRANCH  16  17
ENDBRANCH   4  16
BRANCH   2  28
ATOM     28  C   UNL d   1      14.670  15.961  -3.912  0.00  0.00     0.071 A 
ATOM     29  C   UNL d   1      15.064  16.390  -4.495  0.00  0.00     0.018 A 
ATOM     30  C   UNL d   1      15.399  17.128  -4.304  0.00  0.00     0.002 A 
ATOM     31  C   UNL d   1      15.336  17.418  -3.551  0.00  0.00     0.000 A 
ATOM     32  C   UNL d   1      14.941  16.990  -2.967  0.00  0.00     0.002 A 
ATOM     33  C   UNL d   1      14.613  16.266  -3.154  0.00  0.00     0.018 A 
ENDBRANCH   2  28
TORSDOF 5
ENDMDL
MODEL 2
REMARK VINA RESULT:      77.9      1.612      4.927
REMARK  5 active torsions:
REMARK  status: ('A' for Active; 'I' for Inactive)
REMARK    1  A    between atoms: C_13  and  N_2 
REMARK    2  A    between atoms: C_10  and  N_4 
REMARK    3  A    between atoms: C_11  and  C_10 
REMARK       I    between atoms: N_15  and  C_11 
REMARK    4  A    between atoms: C_16  and  N_15 
REMARK    5  A    between atoms: O_21  and  C_19 
ROOT
ATOM      1  C   UNL d   1      15.508  15.505  -0.818  0.00  0.00     0.172 A 
ATOM      2  N   UNL d   1      14.957  14.186  -0.990  0.00  0.00    -0.226 N 
ATOM      3  C   UNL d   1      14.449  14.496  -1.590  0.00  0.00     0.342 A 
ATOM      4  N   UNL d   1      14.481  15.289  -1.787  0.00  0.00    -0.252 N 
ATOM      5  C   UNL d   1      15.005  15.792  -1.406  0.00  0.00     0.098 A 
ATOM      6  C   UNL d   1      15.481  14.698  -0.612  0.00  0.00     0.292 A 
ATOM      7  O   UNL d   1      15.969  16.120  -0.533  0.00  0.00    -0.301 OA
ATOM      8  C   UNL d   1      15.175  16.592  -1.468  0.00  0.00     0.041 A 
ATOM      9  C   UNL d   1      15.763  16.778  -0.930  0.00  0.00     0.102 A 
ATOM     10  O   UNL d   1      13.907  13.989  -1.988  0.00  0.00    -0.245 OA
ATOM     11  O   UNL d   1      15.989  14.403  -0.017  0.00  0.00    -0.264 OA
ATOM     12  C   UNL d   1      14.855  17.184  -1.959  0.00  0.00     0.004 A 
ATOM     13  C   UNL d   1      16.044  17.556  -0.873  0.00  0.00     0.025 A 
ATOM     14  C   UNL d   1      15.136  17.963  -1.903  0.00  0.00     0.000 A 
ATOM     15  C   UNL d   1      15.724  18.132  -1.361  0.00  0.00     0.002 A 
ENDROOT
BRANCH   4  16
ATOM     16  C   UNL d   1      13.973  15.598  -2.386  0.00  0.00     0.147 C 
BRANCH  16  17
ATOM     17  C   UNL d   1      13.969  15.234  -3.153  0.00  0.00     0.297 C 
ATOM     18  N   UNL d   1      13.451  14.630  -3.309  0.00  0.00    -0.207 NA
ATOM     19  O   UNL d   1      14.496  15.505  -3.727  0.00  0.00    -0.264 OA
BRANCH  18  20
ATOM     20  C   UNL d   1      13.449  14.283  -4.044  0.00  0.00     0.087 A 
ATOM     21  C   UNL d   1      13.315  13.463  -4.107  0.00  0.00     0.043 A 
ATOM     22  C   UNL d   1      13.311  13.103  -4.851  0.00  0.00     0.096 A 
ATOM     23  C   UNL d   1      13.441  13.564  -5.534  0.00  0.00     0.024 A 
ATOM     24  C   UNL d   1      13.573  14.379  -5.466  0.00  0.00     0.004 A 
ATOM     25  C   UNL d   1      13.576  14.733  -4.726  0.00  0.00     0.019 A 
BRANCH  22  26
ATOM     26  O   UNL d   1      13.178  12.280  -4.925  0.00  0.00    -0.328 OA
ATOM     27  C   UNL d   1      13.080  11.819  -4.249  0.00  0.00     0.181 C 
ENDBRANCH  22  26
ENDBRANCH  18  20
ENDBRANCH  16  17
ENDBRANCH   4  16
BRANCH   2  28
ATOM     28  C   UNL d   1      14.935  13.381  -0.779  0.00  0.00     0.071 A 
ATOM     29  C   UNL d   1      15.602  12.908  -0.886  0.00  0.00     0.018 A 
ATOM     30  C   UNL d   1      15.572  12.103  -0.672  0.00  0.00     0.002 A 
ATOM     31  C   UNL d   1      14.890  11.793  -0.363  0.00  0.00     0.000 A 
ATOM     32  C   UNL d   1      14.224  12.265  -0.256  0.00  0.00     0.002 A 
ATOM     33  C   UNL d   1      14.253  13.054  -0.466  0.00  0.00     0.018 A 
ENDBRANCH   2  28
TORSDOF 5
ENDMDL
