MODEL 1
REMARK VINA RESULT:      47.8      0.000      0.000
REMARK  4 active torsions:
REMARK  status: ('A' for Active; 'I' for Inactive)
REMARK    1  A    between atoms: N_2  and  S_1 
REMARK    2  A    between atoms: C_8  and  S_1 
REMARK    3  A    between atoms: C_4  and  C_3 
REMARK       I    between atoms: N_5  and  C_4 
REMARK    4  A    between atoms: C_6  and  N_5 
ROOT
ATOM      1  N   UNL d   1      43.262 -16.189  37.346  0.00  0.00    -0.226 N 
ATOM      2  C   UNL d   1      43.579 -15.650  36.804  0.00  0.00     0.133 A 
ATOM      3  C   UNL d   1      42.453 -16.248  37.209  0.00  0.00     0.092 A 
ATOM      4  C   UNL d   1      42.960 -15.375  36.331  0.00  0.00     0.025 A 
ATOM      5  C   UNL d   1      42.268 -15.746  36.585  0.00  0.00     0.021 A 
ENDROOT
BRANCH   1   6
ATOM      6  S   UNL d   1      43.743 -16.568  37.902  0.00  0.00     0.271 S 
ATOM      7  O   UNL d   1      44.061 -17.089  37.347  0.00  0.00    -0.200 OA
ATOM      8  O   UNL d   1      43.417 -16.042  38.449  0.00  0.00    -0.200 OA
BRANCH   6   9
ATOM      9  C   UNL d   1      44.200 -16.910  38.492  0.00  0.00     0.104 A 
ATOM     10  C   UNL d   1      43.916 -16.940  39.266  0.00  0.00     0.013 A 
ATOM     11  C   UNL d   1      44.372 -17.283  39.862  0.00  0.00     0.001 A 
ATOM     12  C   UNL d   1      45.117 -17.598  39.679  0.00  0.00     0.000 A 
ATOM     13  C   UNL d   1      45.398 -17.567  38.902  0.00  0.00     0.001 A 
ATOM     14  C   UNL d   1      45.573 -17.941  40.275  0.00  0.00     0.000 C 
ATOM     15  C   UNL d   1      44.939 -17.223  38.310  0.00  0.00     0.013 A 
ENDBRANCH   6   9
ENDBRANCH   1   6
BRANCH   2  16
ATOM     16  C   UNL d   1      44.375 -15.425  36.745  0.00  0.00     0.298 C 
ATOM     17  N   UNL d   1      44.599 -14.660  36.973  0.00  0.00    -0.181 NA
ATOM     18  O   UNL d   1      44.931 -15.960  36.463  0.00  0.00    -0.264 OA
BRANCH  17  19
ATOM     19  C   UNL d   1      45.392 -14.439  36.914  0.00  0.00     0.197 A 
ATOM     20  N   UNL d   1      45.918 -14.700  36.332  0.00  0.00    -0.219 NA
ATOM     21  C   UNL d   1      46.645 -14.344  36.480  0.00  0.00     0.108 A 
ATOM     22  C   UNL d   1      46.574 -13.867  37.145  0.00  0.00     0.059 A 
ATOM     23  S   UNL d   1      45.793 -13.926  37.416  0.00  0.00    -0.046 SA
ENDBRANCH  17  19
ENDBRANCH   2  16
TORSDOF 4
ENDMDL
MODEL 2
REMARK VINA RESULT:      49.2      1.056      2.675
REMARK  4 active torsions:
REMARK  status: ('A' for Active; 'I' for Inactive)
REMARK    1  A    between atoms: N_2  and  S_1 
REMARK    2  A    between atoms: C_8  and  S_1 
REMARK    3  A    between atoms: C_4  and  C_3 
REMARK       I    between atoms: N_5  and  C_4 
REMARK    4  A    between atoms: C_6  and  N_5 
ROOT
ATOM      1  N   UNL d   1      45.973 -15.321  37.376  0.00  0.00    -0.226 N 
ATOM      2  C   UNL d   1      45.442 -15.114  36.775  0.00  0.00     0.133 A 
ATOM      3  C   UNL d   1      46.639 -14.842  37.309  0.00  0.00     0.092 A 
ATOM      4  C   UNL d   1      45.784 -14.505  36.336  0.00  0.00     0.025 A 
ATOM      5  C   UNL d   1      46.521 -14.340  36.668  0.00  0.00     0.021 A 
ENDROOT
BRANCH   1   6
ATOM      6  S   UNL d   1      45.793 -15.920  37.917  0.00  0.00     0.271 S 
ATOM      7  O   UNL d   1      45.809 -16.512  37.343  0.00  0.00    -0.200 OA
ATOM      8  O   UNL d   1      45.780 -15.319  38.483  0.00  0.00    -0.200 OA
BRANCH   6   9
ATOM      9  C   UNL d   1      45.613 -16.477  38.493  0.00  0.00     0.104 A 
ATOM     10  C   UNL d   1      46.213 -16.778  38.974  0.00  0.00     0.013 A 
ATOM     11  C   UNL d   1      46.036 -17.338  39.553  0.00  0.00     0.001 A 
ATOM     12  C   UNL d   1      45.255 -17.597  39.650  0.00  0.00     0.000 A 
ATOM     13  C   UNL d   1      44.657 -17.293  39.167  0.00  0.00     0.001 A 
ATOM     14  C   UNL d   1      45.078 -18.157  40.230  0.00  0.00     0.000 C 
ATOM     15  C   UNL d   1      44.837 -16.733  38.588  0.00  0.00     0.013 A 
ENDBRANCH   6   9
ENDBRANCH   1   6
BRANCH   2  16
ATOM     16  C   UNL d   1      44.699 -15.457  36.638  0.00  0.00     0.298 C 
ATOM     17  N   UNL d   1      44.014 -15.024  36.813  0.00  0.00    -0.181 NA
ATOM     18  O   UNL d   1      44.650 -16.218  36.333  0.00  0.00    -0.264 OA
BRANCH  17  19
ATOM     19  C   UNL d   1      43.276 -15.368  36.675  0.00  0.00     0.197 A 
ATOM     20  N   UNL d   1      42.547 -15.007  36.824  0.00  0.00    -0.219 NA
ATOM     21  C   UNL d   1      41.960 -15.541  36.609  0.00  0.00     0.108 A 
ATOM     22  C   UNL d   1      42.317 -16.227  36.330  0.00  0.00     0.059 A 
ATOM     23  S   UNL d   1      43.138 -16.119  36.372  0.00  0.00    -0.046 SA
ENDBRANCH  17  19
ENDBRANCH   2  16
TORSDOF 4
ENDMDL
MODEL 3
REMARK VINA RESULT:      49.9      1.153      3.238
REMARK  4 active torsions:
REMARK  status: ('A' for Active; 'I' for Inactive)
REMARK    1  A    between atoms: N_2  and  S_1 
REMARK    2  A    between atoms: C_8  and  S_1 
REMARK    3  A    between atoms: C_4  and  C_3 
REMARK       I    between atoms: N_5  and  C_4 
REMARK    4  A    between atoms: C_6  and  N_5 
ROOT
ATOM      1  N   UNL d   1      43.572 -15.891  36.747  0.00  0.00    -0.226 N 
ATOM      2  C   UNL d   1      43.570 -16.611  37.154  0.00  0.00     0.133 A 
ATOM      3  C   UNL d   1      42.865 -15.827  36.330  0.00  0.00     0.092 A 
ATOM      4  C   UNL d   1      42.858 -16.993  36.987  0.00  0.00     0.025 A 
ATOM      5  C   UNL d   1      42.427 -16.507  36.479  0.00  0.00     0.021 A 
ENDROOT
BRANCH   1   6
ATOM      6  S   UNL d   1      44.214 -15.372  36.800  0.00  0.00     0.271 S 
ATOM      7  O   UNL d   1      44.700 -15.846  36.330  0.00  0.00    -0.200 OA
ATOM      8  O   UNL d   1      43.720 -14.906  37.268  0.00  0.00    -0.200 OA
BRANCH   6   9
ATOM      9  C   UNL d   1      44.821 -14.825  36.883  0.00  0.00     0.104 A 
ATOM     10  C   UNL d   1      44.677 -14.106  37.261  0.00  0.00     0.013 A 
ATOM     11  C   UNL d   1      45.284 -13.555  37.346  0.00  0.00     0.001 A 
ATOM     12  C   UNL d   1      46.039 -13.725  37.050  0.00  0.00     0.000 A 
ATOM     13  C   UNL d   1      46.181 -14.447  36.672  0.00  0.00     0.001 A 
ATOM     14  C   UNL d   1      46.647 -13.173  37.136  0.00  0.00     0.000 C 
ATOM     15  C   UNL d   1      45.571 -14.996  36.589  0.00  0.00     0.013 A 
ENDBRANCH   6   9
ENDBRANCH   1   6
BRANCH   2  16
ATOM     16  C   UNL d   1      44.175 -16.899  37.644  0.00  0.00     0.298 C 
ATOM     17  N   UNL d   1      44.036 -16.976  38.457  0.00  0.00    -0.181 NA
ATOM     18  O   UNL d   1      44.901 -17.103  37.319  0.00  0.00    -0.264 OA
BRANCH  17  19
ATOM     19  C   UNL d   1      44.639 -17.263  38.943  0.00  0.00     0.197 A 
ATOM     20  N   UNL d   1      45.352 -16.874  39.098  0.00  0.00    -0.219 NA
ATOM     21  C   UNL d   1      45.788 -17.353  39.605  0.00  0.00     0.108 A 
ATOM     22  C   UNL d   1      45.354 -18.033  39.764  0.00  0.00     0.059 A 
ATOM     23  S   UNL d   1      44.637 -17.977  39.351  0.00  0.00    -0.046 SA
ENDBRANCH  17  19
ENDBRANCH   2  16
TORSDOF 4
ENDMDL
