MODEL 1
REMARK VINA RESULT:     201.1      0.000      0.000
REMARK  5 active torsions:
REMARK  status: ('A' for Active; 'I' for Inactive)
REMARK    1  A    between atoms: C_11  and  N_4 
REMARK    2  A    between atoms: C_12  and  N_10 
REMARK    3  A    between atoms: C_14  and  C_11 
REMARK    4  A    between atoms: O_26  and  C_13 
REMARK    5  A    between atoms: O_28  and  C_24 
ROOT
ATOM      1  C   UNL d   1     -58.530 -99.151 -43.248  0.00  0.00     0.191 A 
ATOM      2  C   UNL d   1     -57.812 -99.281 -42.860  0.00  0.00     0.173 A 
ATOM      3  C   UNL d   1     -57.497 -99.183 -44.318  0.00  0.00     0.722 A 
ATOM      4  N   UNL d   1     -58.491 -99.312 -41.615  0.00  0.00    -0.224 N 
ATOM      5  N   UNL d   1     -58.388 -99.093 -44.049  0.00  0.00    -0.042 NA
ATOM      6  N   UNL d   1     -57.239 -99.302 -43.427  0.00  0.00    -0.132 N 
ATOM      7  N   UNL d   1     -59.237 -99.099 -42.832  0.00  0.00    -0.240 N 
ATOM      8  C   UNL d   1     -59.209 -99.182 -42.003  0.00  0.00     0.343 A 
ATOM      9  C   UNL d   1     -57.802 -99.359 -42.056  0.00  0.00     0.288 A 
ATOM     10  N   UNL d   1     -56.912 -99.206 -44.878  0.00  0.00    -0.138 N 
ATOM     11  C   UNL d   1     -56.451 -99.418 -43.283  0.00  0.00     0.100 A 
ATOM     12  C   UNL d   1     -56.113 -99.327 -44.696  0.00  0.00     0.100 A 
ATOM     13  O   UNL d   1     -59.922 -99.130 -41.576  0.00  0.00    -0.245 OA
ATOM     14  O   UNL d   1     -57.084 -99.490 -41.668  0.00  0.00    -0.265 OA
ATOM     15  C   UNL d   1     -55.877 -99.436 -43.879  0.00  0.00     0.036 A 
ATOM     16  C   UNL d   1     -59.954 -98.969 -43.221  0.00  0.00     0.105 C 
ATOM     17  C   UNL d   1     -55.081 -99.558 -43.684  0.00  0.00     0.003 C 
ENDROOT
BRANCH  10  18
ATOM     18  C   UNL d   1     -57.150 -99.100 -45.664  0.00  0.00     0.104 A 
ATOM     19  C   UNL d   1     -56.590 -98.911 -46.240  0.00  0.00     0.113 A 
ATOM     20  C   UNL d   1     -56.785 -98.800 -47.017  0.00  0.00     0.050 A 
ATOM     21  C   UNL d   1     -57.581 -98.877 -47.257  0.00  0.00     0.096 A 
ATOM     22  C   UNL d   1     -58.159 -99.070 -46.677  0.00  0.00     0.026 A 
ATOM     23  C   UNL d   1     -57.934 -99.176 -45.897  0.00  0.00     0.022 A 
BRANCH  19  24
ATOM     24  O   UNL d   1     -55.800 -98.831 -46.018  0.00  0.00    -0.327 OA
ATOM     25  C   UNL d   1     -55.421 -99.459 -45.670  0.00  0.00     0.181 C 
ENDBRANCH  19  24
BRANCH  21  26
ATOM     26  O   UNL d   1     -57.812 -98.768 -48.054  0.00  0.00    -0.328 OA
ATOM     27  C   UNL d   1     -58.613 -98.765 -48.259  0.00  0.00     0.181 C 
ENDBRANCH  21  26
ENDBRANCH  10  18
BRANCH   4  28
ATOM     28  C   UNL d   1     -58.887 -99.330 -40.890  0.00  0.00     0.090 C 
BRANCH  28  29
ATOM     29  C   UNL d   1     -59.174-100.046 -40.594  0.00  0.00     0.045 A 
ATOM     30  C   UNL d   1     -59.463-100.076 -39.829  0.00  0.00     0.141 A 
ATOM     31  F   UNL d   1     -59.467 -99.400 -39.359  0.00  0.00    -0.204 F 
ATOM     32  C   UNL d   1     -59.749-100.788 -39.532  0.00  0.00     0.030 A 
ATOM     33  C   UNL d   1     -59.746-101.466 -39.999  0.00  0.00     0.002 A 
ATOM     34  C   UNL d   1     -59.452-101.426 -40.771  0.00  0.00     0.000 A 
ATOM     35  C   UNL d   1     -59.166-100.714 -41.068  0.00  0.00     0.004 A 
ENDBRANCH  28  29
ENDBRANCH   4  28
TORSDOF 5
ENDMDL
