MODEL 1
REMARK VINA RESULT:      25.9      0.000      0.000
REMARK  2 active torsions:
REMARK  status: ('A' for Active; 'I' for Inactive)
REMARK    1  A    between atoms: C_9  and  C_1 
REMARK    2  A    between atoms: O_13  and  C_11 
ROOT
ATOM      1  C   UNL d   1      24.175  13.005  -2.353  0.00  0.00     0.064 A 
ATOM      2  C   UNL d   1      23.976  12.473  -2.943  0.00  0.00     0.199 A 
ATOM      3  C   UNL d   1      24.158  12.613  -3.741  0.00  0.00     0.062 A 
ATOM      4  C   UNL d   1      24.580  13.721  -2.561  0.00  0.00     0.126 A 
ATOM      5  C   UNL d   1      24.552  13.310  -3.943  0.00  0.00     0.105 A 
ATOM      6  O   UNL d   1      24.767  13.873  -3.349  0.00  0.00    -0.305 OA
ATOM      7  C   UNL d   1      23.960  12.088  -4.305  0.00  0.00     0.007 A 
ATOM      8  C   UNL d   1      24.751  13.488  -4.711  0.00  0.00     0.049 A 
ATOM      9  O   UNL d   1      23.585  11.780  -2.742  0.00  0.00    -0.286 OA
ATOM     10  C   UNL d   1      24.546  12.947  -5.298  0.00  0.00     0.096 A 
ATOM     11  C   UNL d   1      24.142  12.231  -5.091  0.00  0.00     0.024 A 
ENDROOT
BRANCH   1  12
ATOM     12  C   UNL d   1      23.982  12.836  -1.588  0.00  0.00     0.005 A 
ATOM     13  C   UNL d   1      23.227  13.057  -1.285  0.00  0.00     0.000 A 
ATOM     14  C   UNL d   1      23.034  12.888  -0.520  0.00  0.00     0.000 A 
ATOM     15  C   UNL d   1      23.568  12.499  -0.024  0.00  0.00     0.000 A 
ATOM     16  C   UNL d   1      24.322  12.275  -0.314  0.00  0.00     0.000 A 
ATOM     17  C   UNL d   1      24.517  12.447  -1.091  0.00  0.00     0.000 A 
ENDBRANCH   1  12
BRANCH  10  18
ATOM     18  O   UNL d   1      24.758  13.138  -6.110  0.00  0.00    -0.328 OA
ATOM     19  C   UNL d   1      24.762  13.926  -6.337  0.00  0.00     0.181 C 
ENDBRANCH  10  18
TORSDOF 2
ENDMDL
MODEL 2
REMARK VINA RESULT:      28.5      9.580     10.820
REMARK  2 active torsions:
REMARK  status: ('A' for Active; 'I' for Inactive)
REMARK    1  A    between atoms: C_9  and  C_1 
REMARK    2  A    between atoms: O_13  and  C_11 
ROOT
ATOM      1  C   UNL d   1      13.745  13.104  -3.490  0.00  0.00     0.064 A 
ATOM      2  C   UNL d   1      13.894  12.573  -2.883  0.00  0.00     0.199 A 
ATOM      3  C   UNL d   1      14.220  12.814  -2.159  0.00  0.00     0.062 A 
ATOM      4  C   UNL d   1      13.928  13.924  -3.377  0.00  0.00     0.126 A 
ATOM      5  C   UNL d   1      14.398  13.613  -2.049  0.00  0.00     0.105 A 
ATOM      6  O   UNL d   1      14.252  14.178  -2.662  0.00  0.00    -0.305 OA
ATOM      7  C   UNL d   1      14.360  12.289  -1.577  0.00  0.00     0.007 A 
ATOM      8  C   UNL d   1      14.717  13.894  -1.356  0.00  0.00     0.049 A 
ATOM      9  O   UNL d   1      13.717  11.779  -2.993  0.00  0.00    -0.286 OA
ATOM     10  C   UNL d   1      14.864  13.353  -0.751  0.00  0.00     0.096 A 
ATOM     11  C   UNL d   1      14.681  12.533  -0.864  0.00  0.00     0.024 A 
ENDROOT
BRANCH   1  12
ATOM     12  C   UNL d   1      13.428  12.833  -4.181  0.00  0.00     0.005 A 
ATOM     13  C   UNL d   1      13.120  12.050  -4.226  0.00  0.00     0.000 A 
ATOM     14  C   UNL d   1      12.802  11.779  -4.917  0.00  0.00     0.000 A 
ATOM     15  C   UNL d   1      12.774  12.261  -5.587  0.00  0.00     0.000 A 
ATOM     16  C   UNL d   1      13.078  13.043  -5.554  0.00  0.00     0.000 A 
ATOM     17  C   UNL d   1      13.400  13.315  -4.852  0.00  0.00     0.000 A 
ENDBRANCH   1  12
BRANCH  10  18
ATOM     18  O   UNL d   1      15.202  13.653  -0.019  0.00  0.00    -0.328 OA
ATOM     19  C   UNL d   1      15.607  14.366  -0.039  0.00  0.00     0.181 C 
ENDBRANCH  10  18
TORSDOF 2
ENDMDL
