MODEL 1
REMARK VINA RESULT:      -5.7      0.000      0.000
REMARK  5 active torsions:
REMARK  status: ('A' for Active; 'I' for Inactive)
REMARK    1  A    between atoms: N_8  and  C_1 
REMARK    2  A    between atoms: C_3  and  S_13 
REMARK       I    between atoms: C_12  and  N_8 
REMARK    3  A    between atoms: C_16  and  C_9 
REMARK    4  A    between atoms: C_15  and  C_12 
REMARK    5  A    between atoms: S_13  and  C_15 
ROOT
ATOM      1  C   UNL d   1     -41.906-122.419 -51.468  0.00  0.00     0.100 C 
ENDROOT
BRANCH   1   2
ATOM      2  S   UNL d   1     -41.276-122.409 -52.004  0.00  0.00    -0.056 SA
BRANCH   2   3
ATOM      3  C   UNL d   1     -41.437-122.385 -52.807  0.00  0.00     0.141 A 
ATOM      4  N   UNL d   1     -41.906-121.831 -53.206  0.00  0.00    -0.232 NA
ATOM      5  C   UNL d   1     -41.918-122.017 -54.008  0.00  0.00     0.088 A 
ATOM      6  C   UNL d   1     -42.285-121.670 -54.666  0.00  0.00     0.020 A 
ATOM      7  C   UNL d   1     -41.448-122.700 -54.117  0.00  0.00     0.049 A 
ATOM      8  C   UNL d   1     -42.187-121.995 -55.417  0.00  0.00     0.002 A 
ATOM      9  C   UNL d   1     -41.725-122.666 -55.517  0.00  0.00     0.001 A 
ATOM     10  C   UNL d   1     -41.351-123.023 -54.861  0.00  0.00     0.008 A 
ATOM     11  S   UNL d   1     -41.154-122.923 -53.372  0.00  0.00    -0.060 SA
ENDBRANCH   2   3
ENDBRANCH   1   2
BRANCH   1  12
ATOM     12  C   UNL d   1     -41.757-122.570 -50.673  0.00  0.00     0.288 C 
ATOM     13  N   UNL d   1     -42.243-123.088 -50.253  0.00  0.00    -0.181 NA
ATOM     14  O   UNL d   1     -41.127-122.209 -50.291  0.00  0.00    -0.265 OA
BRANCH  13  15
ATOM     15  C   UNL d   1     -42.101-123.243 -49.461  0.00  0.00     0.219 A 
ATOM     16  S   UNL d   1     -42.579-123.027 -48.829  0.00  0.00    -0.026 SA
ATOM     17  C   UNL d   1     -42.226-123.295 -48.133  0.00  0.00     0.135 A 
ATOM     18  N   UNL d   1     -41.524-123.680 -48.341  0.00  0.00    -0.139 NA
ATOM     19  N   UNL d   1     -41.447-123.648 -49.160  0.00  0.00    -0.121 NA
BRANCH  17  20
ATOM     20  C   UNL d   1     -42.514-123.200 -47.367  0.00  0.00     0.028 C 
ATOM     21  C   UNL d   1     -42.107-123.548 -46.737  0.00  0.00     0.002 C 
ENDBRANCH  17  20
ENDBRANCH  13  15
ENDBRANCH   1  12
TORSDOF 5
ENDMDL
MODEL 2
REMARK VINA RESULT:      -5.5      1.122      5.567
REMARK  5 active torsions:
REMARK  status: ('A' for Active; 'I' for Inactive)
REMARK    1  A    between atoms: N_8  and  C_1 
REMARK    2  A    between atoms: C_3  and  S_13 
REMARK       I    between atoms: C_12  and  N_8 
REMARK    3  A    between atoms: C_16  and  C_9 
REMARK    4  A    between atoms: C_15  and  C_12 
REMARK    5  A    between atoms: S_13  and  C_15 
ROOT
ATOM      1  C   UNL d   1     -41.561-122.823 -51.248  0.00  0.00     0.100 C 
ENDROOT
BRANCH   1   2
ATOM      2  S   UNL d   1     -41.590-123.516 -50.798  0.00  0.00    -0.056 SA
BRANCH   2   3
ATOM      3  C   UNL d   1     -41.683-123.460 -49.986  0.00  0.00     0.141 A 
ATOM      4  N   UNL d   1     -42.340-123.164 -49.577  0.00  0.00    -0.232 NA
ATOM      5  C   UNL d   1     -42.196-123.211 -48.768  0.00  0.00     0.088 A 
ATOM      6  C   UNL d   1     -42.642-123.003 -48.100  0.00  0.00     0.020 A 
ATOM      7  C   UNL d   1     -41.435-123.541 -48.664  0.00  0.00     0.049 A 
ATOM      8  C   UNL d   1     -42.336-123.121 -47.343  0.00  0.00     0.002 A 
ATOM      9  C   UNL d   1     -41.589-123.445 -47.248  0.00  0.00     0.001 A 
ATOM     10  C   UNL d   1     -41.132-123.658 -47.915  0.00  0.00     0.008 A 
ATOM     11  S   UNL d   1     -41.123-123.692 -49.419  0.00  0.00    -0.060 SA
ENDBRANCH   2   3
ENDBRANCH   1   2
BRANCH   1  12
ATOM     12  C   UNL d   1     -41.554-122.874 -52.070  0.00  0.00     0.288 C 
ATOM     13  N   UNL d   1     -41.699-122.203 -52.526  0.00  0.00    -0.181 NA
ATOM     14  O   UNL d   1     -41.403-123.591 -52.441  0.00  0.00    -0.265 OA
BRANCH  13  15
ATOM     15  C   UNL d   1     -41.694-122.246 -53.344  0.00  0.00     0.219 A 
ATOM     16  S   UNL d   1     -42.250-121.920 -53.853  0.00  0.00    -0.026 SA
ATOM     17  C   UNL d   1     -42.028-122.097 -54.628  0.00  0.00     0.135 A 
ATOM     18  N   UNL d   1     -41.329-122.537 -54.593  0.00  0.00    -0.139 NA
ATOM     19  N   UNL d   1     -41.123-122.629 -53.802  0.00  0.00    -0.121 NA
BRANCH  17  20
ATOM     20  C   UNL d   1     -42.426-121.880 -55.316  0.00  0.00     0.028 C 
ATOM     21  C   UNL d   1     -42.032-121.925 -56.042  0.00  0.00     0.002 C 
ENDBRANCH  17  20
ENDBRANCH  13  15
ENDBRANCH   1  12
TORSDOF 5
ENDMDL
