MODEL 1
REMARK VINA RESULT:      90.5      0.000      0.000
REMARK  5 active torsions:
REMARK  status: ('A' for Active; 'I' for Inactive)
REMARK       I    between atoms: C_2  and  N_1 
REMARK    1  A    between atoms: C_10  and  C_2 
REMARK    2  A    between atoms: C_7  and  C_3 
REMARK       I    between atoms: C_5  and  N_8 
REMARK    3  A    between atoms: C_15  and  C_5 
REMARK    4  A    between atoms: N_8  and  C_7 
REMARK    5  A    between atoms: N_9  and  C_10 
ROOT
ATOM      1  N   UNL d   1     -52.640  24.965  35.851  0.00  0.00    -0.271 N 
ATOM      2  C   UNL d   1     -52.273  25.570  36.292  0.00  0.00     0.282 C 
ATOM      3  C   UNL d   1     -52.516  24.949  35.038  0.00  0.00     0.086 A 
ATOM      4  C   UNL d   1     -52.858  24.377  34.593  0.00  0.00     0.018 A 
ATOM      5  C   UNL d   1     -53.127  24.377  36.210  0.00  0.00     0.083 A 
ATOM      6  C   UNL d   1     -53.331  23.806  34.942  0.00  0.00     0.003 A 
ATOM      7  O   UNL d   1     -51.799  26.142  35.943  0.00  0.00    -0.265 OA
ATOM      8  C   UNL d   1     -53.468  23.801  35.740  0.00  0.00     0.019 A 
ATOM      9  C   UNL d   1     -52.736  24.358  33.773  0.00  0.00     0.002 A 
ATOM     10  C   UNL d   1     -53.687  23.210  34.474  0.00  0.00     0.000 A 
ATOM     11  C   UNL d   1     -53.081  23.776  33.306  0.00  0.00     0.000 A 
ATOM     12  C   UNL d   1     -53.568  23.188  33.665  0.00  0.00     0.000 A 
ENDROOT
BRANCH   3  13
ATOM     13  C   UNL d   1     -52.040  25.524  34.687  0.00  0.00     0.120 C 
BRANCH  13  14
ATOM     14  N   UNL d   1     -52.387  26.147  34.274  0.00  0.00    -0.205 NA
ATOM     15  C   UNL d   1     -51.930  26.590  33.725  0.00  0.00     0.279 C 
ATOM     16  O   UNL d   1     -52.262  27.213  33.306  0.00  0.00    -0.265 OA
BRANCH  15  17
ATOM     17  C   UNL d   1     -51.149  26.388  33.615  0.00  0.00     0.058 A 
ATOM     18  C   UNL d   1     -50.544  26.924  33.686  0.00  0.00     0.005 A 
ATOM     19  C   UNL d   1     -49.752  26.724  33.576  0.00  0.00     0.000 A 
ATOM     20  C   UNL d   1     -49.565  25.925  33.380  0.00  0.00     0.000 A 
ATOM     21  C   UNL d   1     -50.181  25.370  33.306  0.00  0.00     0.000 A 
ATOM     22  C   UNL d   1     -50.947  25.608  33.423  0.00  0.00     0.005 A 
ENDBRANCH  15  17
ENDBRANCH  13  14
ENDBRANCH   3  13
BRANCH   2  23
ATOM     23  C   UNL d   1     -52.380  25.614  37.127  0.00  0.00     0.142 C 
BRANCH  23  24
ATOM     24  N   UNL d   1     -51.841  26.056  37.568  0.00  0.00    -0.295 N 
ATOM     25  C   UNL d   1     -51.911  26.059  38.394  0.00  0.00     0.107 A 
ATOM     26  C   UNL d   1     -51.381  26.496  38.864  0.00  0.00     0.142 A 
ATOM     27  O   UNL d   1     -50.785  26.926  38.489  0.00  0.00    -0.300 OA
ATOM     28  C   UNL d   1     -50.702  26.932  37.654  0.00  0.00     0.142 A 
ATOM     29  C   UNL d   1     -51.239  26.490  37.197  0.00  0.00     0.107 A 
ENDBRANCH  23  24
ENDBRANCH   2  23
TORSDOF 5
ENDMDL
MODEL 2
REMARK VINA RESULT:      92.4      1.236      2.992
REMARK  5 active torsions:
REMARK  status: ('A' for Active; 'I' for Inactive)
REMARK       I    between atoms: C_2  and  N_1 
REMARK    1  A    between atoms: C_10  and  C_2 
REMARK    2  A    between atoms: C_7  and  C_3 
REMARK       I    between atoms: C_5  and  N_8 
REMARK    3  A    between atoms: C_15  and  C_5 
REMARK    4  A    between atoms: N_8  and  C_7 
REMARK    5  A    between atoms: N_9  and  C_10 
ROOT
ATOM      1  N   UNL d   1     -51.217  26.448  35.850  0.00  0.00    -0.271 N 
ATOM      2  C   UNL d   1     -51.833  26.133  36.314  0.00  0.00     0.282 C 
ATOM      3  C   UNL d   1     -51.176  26.227  35.059  0.00  0.00     0.086 A 
ATOM      4  C   UNL d   1     -50.592  26.516  34.593  0.00  0.00     0.018 A 
ATOM      5  C   UNL d   1     -50.642  26.979  36.165  0.00  0.00     0.083 A 
ATOM      6  C   UNL d   1     -50.033  27.032  34.898  0.00  0.00     0.003 A 
ATOM      7  O   UNL d   1     -52.393  25.617  36.008  0.00  0.00    -0.265 OA
ATOM      8  C   UNL d   1     -50.053  27.264  35.674  0.00  0.00     0.019 A 
ATOM      9  C   UNL d   1     -50.548  26.295  33.794  0.00  0.00     0.002 A 
ATOM     10  C   UNL d   1     -49.424  27.333  34.409  0.00  0.00     0.000 A 
ATOM     11  C   UNL d   1     -49.953  26.585  33.306  0.00  0.00     0.000 A 
ATOM     12  C   UNL d   1     -49.378  27.117  33.621  0.00  0.00     0.000 A 
ENDROOT
BRANCH   3  13
ATOM     13  C   UNL d   1     -51.739  25.707  34.752  0.00  0.00     0.120 C 
BRANCH  13  14
ATOM     14  N   UNL d   1     -52.375  26.002  34.318  0.00  0.00    -0.205 NA
ATOM     15  C   UNL d   1     -52.752  25.515  33.746  0.00  0.00     0.279 C 
ATOM     16  O   UNL d   1     -53.386  25.794  33.307  0.00  0.00    -0.265 OA
BRANCH  15  17
ATOM     17  C   UNL d   1     -52.475  24.757  33.636  0.00  0.00     0.058 A 
ATOM     18  C   UNL d   1     -51.708  24.598  33.426  0.00  0.00     0.005 A 
ATOM     19  C   UNL d   1     -51.423  23.833  33.313  0.00  0.00     0.000 A 
ATOM     20  C   UNL d   1     -51.956  23.188  33.421  0.00  0.00     0.000 A 
ATOM     21  C   UNL d   1     -52.744  23.345  33.637  0.00  0.00     0.000 A 
ATOM     22  C   UNL d   1     -52.984  24.112  33.738  0.00  0.00     0.005 A 
ENDBRANCH  15  17
ENDBRANCH  13  14
ENDBRANCH   3  13
BRANCH   2  23
ATOM     23  C   UNL d   1     -51.903  26.340  37.128  0.00  0.00     0.142 C 
BRANCH  23  24
ATOM     24  N   UNL d   1     -52.327  25.836  37.626  0.00  0.00    -0.295 N 
ATOM     25  C   UNL d   1     -51.909  25.372  38.170  0.00  0.00     0.107 A 
ATOM     26  C   UNL d   1     -52.311  24.854  38.685  0.00  0.00     0.142 A 
ATOM     27  O   UNL d   1     -53.134  24.815  38.639  0.00  0.00    -0.300 OA
ATOM     28  C   UNL d   1     -53.569  25.279  38.093  0.00  0.00     0.142 A 
ATOM     29  C   UNL d   1     -53.154  25.792  37.585  0.00  0.00     0.107 A 
ENDBRANCH  23  24
ENDBRANCH   2  23
TORSDOF 5
ENDMDL
