MODEL 1
REMARK VINA RESULT:      -8.3      0.000      0.000
REMARK  4 active torsions:
REMARK  status: ('A' for Active; 'I' for Inactive)
REMARK    1  A    between atoms: S_5  and  C_3 
REMARK    2  A    between atoms: C_13  and  S_5 
REMARK    3  A    between atoms: C_23  and  N_7 
REMARK    4  A    between atoms: C_29  and  C_23 
ROOT
ATOM      1  C   UNL d   1     -48.457  13.288  23.056  0.00  0.00     0.155 A 
ATOM      2  C   UNL d   1     -48.191  12.520  23.040  0.00  0.00     0.092 A 
ATOM      3  C   UNL d   1     -46.895  12.971  22.720  0.00  0.00     0.124 A 
ATOM      4  N   UNL d   1     -49.244  13.446  23.225  0.00  0.00    -0.210 NA
ATOM      5  N   UNL d   1     -49.490  12.063  23.361  0.00  0.00    -0.258 N 
ATOM      6  N   UNL d   1     -47.948  13.897  22.905  0.00  0.00    -0.273 N 
ATOM      7  C   UNL d   1     -49.754  12.841  23.376  0.00  0.00     0.152 A 
ATOM      8  C   UNL d   1     -47.164  13.748  22.736  0.00  0.00     0.181 A 
ATOM      9  C   UNL d   1     -48.707  11.903  23.193  0.00  0.00     0.269 A 
ATOM     10  C   UNL d   1     -47.412  12.358  22.873  0.00  0.00     0.022 A 
ATOM     11  C   UNL d   1     -50.541  12.999  23.545  0.00  0.00     0.035 A 
ATOM     12  C   UNL d   1     -50.016  11.452  23.516  0.00  0.00     0.084 A 
ATOM     13  N   UNL d   1     -46.647  14.374  22.583  0.00  0.00    -0.128 N 
ATOM     14  O   UNL d   1     -48.440  11.116  23.177  0.00  0.00    -0.266 OA
ATOM     15  C   UNL d   1     -50.796  11.613  23.683  0.00  0.00     0.019 A 
ATOM     16  C   UNL d   1     -51.060  12.392  23.698  0.00  0.00     0.005 A 
ATOM     17  C   UNL d   1     -50.808  13.786  23.560  0.00  0.00     0.003 C 
ENDROOT
BRANCH   3  18
ATOM     18  S   UNL d   1     -46.104  12.813  22.550  0.00  0.00     0.213 S 
ATOM     19  O   UNL d   1     -45.893  12.961  23.342  0.00  0.00    -0.217 OA
ATOM     20  O   UNL d   1     -46.302  12.664  21.764  0.00  0.00    -0.217 OA
BRANCH  18  21
ATOM     21  C   UNL d   1     -45.309  12.652  22.369  0.00  0.00     0.088 A 
ATOM     22  C   UNL d   1     -44.906  13.116  21.818  0.00  0.00     0.014 A 
ATOM     23  C   UNL d   1     -44.110  12.954  21.638  0.00  0.00     0.030 A 
ATOM     24  C   UNL d   1     -43.721  12.327  22.009  0.00  0.00     0.140 A 
ATOM     25  C   UNL d   1     -44.135  11.859  22.567  0.00  0.00     0.030 A 
ATOM     26  F   UNL d   1     -42.930  12.159  21.836  0.00  0.00    -0.204 F 
ATOM     27  C   UNL d   1     -44.927  12.022  22.745  0.00  0.00     0.014 A 
ENDBRANCH  18  21
ENDBRANCH   3  18
BRANCH   6  28
ATOM     28  C   UNL d   1     -48.221  14.686  22.922  0.00  0.00     0.083 C 
BRANCH  28  29
ATOM     29  C   UNL d   1     -48.153  15.159  22.239  0.00  0.00     0.019 C 
ATOM     30  C   UNL d   1     -48.486  15.921  22.220  0.00  0.00     0.002 C 
ENDBRANCH  28  29
ENDBRANCH   6  28
TORSDOF 4
ENDMDL
MODEL 2
REMARK VINA RESULT:      -8.0      1.029      2.278
REMARK  4 active torsions:
REMARK  status: ('A' for Active; 'I' for Inactive)
REMARK    1  A    between atoms: S_5  and  C_3 
REMARK    2  A    between atoms: C_13  and  S_5 
REMARK    3  A    between atoms: C_23  and  N_7 
REMARK    4  A    between atoms: C_29  and  C_23 
ROOT
ATOM      1  C   UNL d   1     -48.563  13.500  23.141  0.00  0.00     0.155 A 
ATOM      2  C   UNL d   1     -48.096  14.057  22.777  0.00  0.00     0.092 A 
ATOM      3  C   UNL d   1     -47.014  13.155  22.777  0.00  0.00     0.124 A 
ATOM      4  N   UNL d   1     -49.344  13.675  23.324  0.00  0.00    -0.210 NA
ATOM      5  N   UNL d   1     -49.180  14.965  22.774  0.00  0.00    -0.258 N 
ATOM      6  N   UNL d   1     -48.261  12.773  23.324  0.00  0.00    -0.273 N 
ATOM      7  C   UNL d   1     -49.649  14.398  23.143  0.00  0.00     0.152 A 
ATOM      8  C   UNL d   1     -47.486  12.591  23.145  0.00  0.00     0.181 A 
ATOM      9  C   UNL d   1     -48.403  14.792  22.592  0.00  0.00     0.269 A 
ATOM     10  C   UNL d   1     -47.323  13.887  22.594  0.00  0.00     0.022 A 
ATOM     11  C   UNL d   1     -50.429  14.573  23.326  0.00  0.00     0.035 A 
ATOM     12  C   UNL d   1     -49.498  15.699  22.594  0.00  0.00     0.084 A 
ATOM     13  N   UNL d   1     -47.182  11.847  23.334  0.00  0.00    -0.128 N 
ATOM     14  O   UNL d   1     -47.929  15.365  22.219  0.00  0.00    -0.266 OA
ATOM     15  C   UNL d   1     -50.272  15.869  22.776  0.00  0.00     0.019 A 
ATOM     16  C   UNL d   1     -50.741  15.303  23.145  0.00  0.00     0.005 A 
ATOM     17  C   UNL d   1     -50.902  14.001  23.698  0.00  0.00     0.003 C 
ENDROOT
BRANCH   3  18
ATOM     18  S   UNL d   1     -46.230  12.978  22.593  0.00  0.00     0.213 S 
ATOM     19  O   UNL d   1     -46.008  13.089  23.388  0.00  0.00    -0.217 OA
ATOM     20  O   UNL d   1     -46.439  12.866  21.804  0.00  0.00    -0.217 OA
BRANCH  18  21
ATOM     21  C   UNL d   1     -45.442  12.798  22.399  0.00  0.00     0.088 A 
ATOM     22  C   UNL d   1     -45.033  13.260  21.851  0.00  0.00     0.014 A 
ATOM     23  C   UNL d   1     -44.245  13.080  21.657  0.00  0.00     0.030 A 
ATOM     24  C   UNL d   1     -43.868  12.436  22.013  0.00  0.00     0.140 A 
ATOM     25  C   UNL d   1     -44.288  11.971  22.569  0.00  0.00     0.030 A 
ATOM     26  F   UNL d   1     -43.085  12.250  21.826  0.00  0.00    -0.204 F 
ATOM     27  C   UNL d   1     -45.072  12.152  22.760  0.00  0.00     0.014 A 
ENDBRANCH  18  21
ENDBRANCH   3  18
BRANCH   6  28
ATOM     28  C   UNL d   1     -48.741  12.201  23.698  0.00  0.00     0.083 C 
BRANCH  28  29
ATOM     29  C   UNL d   1     -48.843  11.454  23.343  0.00  0.00     0.019 C 
ATOM     30  C   UNL d   1     -49.352  10.891  23.684  0.00  0.00     0.002 C 
ENDBRANCH  28  29
ENDBRANCH   6  28
TORSDOF 4
ENDMDL
MODEL 3
REMARK VINA RESULT:      -6.4      1.254      2.732
REMARK  4 active torsions:
REMARK  status: ('A' for Active; 'I' for Inactive)
REMARK    1  A    between atoms: S_5  and  C_3 
REMARK    2  A    between atoms: C_13  and  S_5 
REMARK    3  A    between atoms: C_23  and  N_7 
REMARK    4  A    between atoms: C_29  and  C_23 
ROOT
ATOM      1  C   UNL d   1     -48.169  13.032  23.201  0.00  0.00     0.155 A 
ATOM      2  C   UNL d   1     -47.458  13.367  22.993  0.00  0.00     0.092 A 
ATOM      3  C   UNL d   1     -46.803  12.146  23.250  0.00  0.00     0.124 A 
ATOM      4  N   UNL d   1     -48.857  13.479  23.175  0.00  0.00    -0.210 NA
ATOM      5  N   UNL d   1     -48.112  14.594  22.734  0.00  0.00    -0.258 N 
ATOM      6  N   UNL d   1     -48.202  12.258  23.433  0.00  0.00    -0.273 N 
ATOM      7  C   UNL d   1     -48.828  14.250  22.945  0.00  0.00     0.152 A 
ATOM      8  C   UNL d   1     -47.522  11.807  23.460  0.00  0.00     0.181 A 
ATOM      9  C   UNL d   1     -47.426  14.150  22.758  0.00  0.00     0.269 A 
ATOM     10  C   UNL d   1     -46.775  12.928  23.017  0.00  0.00     0.022 A 
ATOM     11  C   UNL d   1     -49.516  14.698  22.919  0.00  0.00     0.035 A 
ATOM     12  C   UNL d   1     -48.092  15.380  22.500  0.00  0.00     0.084 A 
ATOM     13  N   UNL d   1     -47.560  11.017  23.698  0.00  0.00    -0.128 N 
ATOM     14  O   UNL d   1     -46.702  14.497  22.545  0.00  0.00    -0.266 OA
ATOM     15  C   UNL d   1     -48.776  15.820  22.476  0.00  0.00     0.019 A 
ATOM     16  C   UNL d   1     -49.492  15.477  22.687  0.00  0.00     0.005 A 
ATOM     17  C   UNL d   1     -50.240  14.350  23.133  0.00  0.00     0.003 C 
ENDROOT
BRANCH   3  18
ATOM     18  S   UNL d   1     -46.113  11.696  23.276  0.00  0.00     0.213 S 
ATOM     19  O   UNL d   1     -46.492  11.074  22.873  0.00  0.00    -0.217 OA
ATOM     20  O   UNL d   1     -45.729  12.306  23.675  0.00  0.00    -0.217 OA
BRANCH  18  21
ATOM     21  C   UNL d   1     -45.412  11.250  23.307  0.00  0.00     0.088 A 
ATOM     22  C   UNL d   1     -45.411  10.502  23.656  0.00  0.00     0.014 A 
ATOM     23  C   UNL d   1     -44.710  10.056  23.686  0.00  0.00     0.030 A 
ATOM     24  C   UNL d   1     -44.012  10.361  23.367  0.00  0.00     0.140 A 
ATOM     25  C   UNL d   1     -44.019  11.120  23.014  0.00  0.00     0.030 A 
ATOM     26  F   UNL d   1     -43.310   9.924  23.393  0.00  0.00    -0.204 F 
ATOM     27  C   UNL d   1     -44.718  11.562  22.984  0.00  0.00     0.014 A 
ENDBRANCH  18  21
ENDBRANCH   3  18
BRANCH   6  28
ATOM     28  C   UNL d   1     -48.932  11.914  23.646  0.00  0.00     0.083 C 
BRANCH  28  29
ATOM     29  C   UNL d   1     -49.230  11.274  23.203  0.00  0.00     0.019 C 
ATOM     30  C   UNL d   1     -49.985  10.965  23.366  0.00  0.00     0.002 C 
ENDBRANCH  28  29
ENDBRANCH   6  28
TORSDOF 4
ENDMDL
MODEL 4
REMARK VINA RESULT:      -6.2      1.315      1.607
REMARK  4 active torsions:
REMARK  status: ('A' for Active; 'I' for Inactive)
REMARK    1  A    between atoms: S_5  and  C_3 
REMARK    2  A    between atoms: C_13  and  S_5 
REMARK    3  A    between atoms: C_23  and  N_7 
REMARK    4  A    between atoms: C_29  and  C_23 
ROOT
ATOM      1  C   UNL d   1     -48.219  13.449  22.556  0.00  0.00     0.155 A 
ATOM      2  C   UNL d   1     -48.253  12.646  22.427  0.00  0.00     0.092 A 
ATOM      3  C   UNL d   1     -46.903  12.525  22.811  0.00  0.00     0.124 A 
ATOM      4  N   UNL d   1     -48.883  13.913  22.427  0.00  0.00    -0.210 NA
ATOM      5  N   UNL d   1     -49.608  12.765  22.042  0.00  0.00    -0.258 N 
ATOM      6  N   UNL d   1     -47.533  13.791  22.811  0.00  0.00    -0.273 N 
ATOM      7  C   UNL d   1     -49.570  13.575  22.174  0.00  0.00     0.152 A 
ATOM      8  C   UNL d   1     -46.869  13.336  22.941  0.00  0.00     0.181 A 
ATOM      9  C   UNL d   1     -48.948  12.301  22.169  0.00  0.00     0.269 A 
ATOM     10  C   UNL d   1     -47.598  12.183  22.553  0.00  0.00     0.022 A 
ATOM     11  C   UNL d   1     -50.234  14.040  22.045  0.00  0.00     0.035 A 
ATOM     12  C   UNL d   1     -50.311  12.428  21.783  0.00  0.00     0.084 A 
ATOM     13  N   UNL d   1     -46.169  13.690  23.201  0.00  0.00    -0.128 N 
ATOM     14  O   UNL d   1     -48.987  11.481  22.037  0.00  0.00    -0.266 OA
ATOM     15  C   UNL d   1     -50.967  12.892  21.657  0.00  0.00     0.019 A 
ATOM     16  C   UNL d   1     -50.928  13.703  21.789  0.00  0.00     0.005 A 
ATOM     17  C   UNL d   1     -50.194  14.859  22.178  0.00  0.00     0.003 C 
ENDROOT
BRANCH   3  18
ATOM     18  S   UNL d   1     -46.235  12.059  22.940  0.00  0.00     0.213 S 
ATOM     19  O   UNL d   1     -45.949  12.239  22.179  0.00  0.00    -0.217 OA
ATOM     20  O   UNL d   1     -46.509  11.874  23.695  0.00  0.00    -0.217 OA
BRANCH  18  21
ATOM     21  C   UNL d   1     -45.565  11.587  23.080  0.00  0.00     0.088 A 
ATOM     22  C   UNL d   1     -45.626  10.903  23.536  0.00  0.00     0.014 A 
ATOM     23  C   UNL d   1     -44.955  10.431  23.675  0.00  0.00     0.030 A 
ATOM     24  C   UNL d   1     -44.224  10.647  23.357  0.00  0.00     0.140 A 
ATOM     25  C   UNL d   1     -44.168  11.343  22.894  0.00  0.00     0.030 A 
ATOM     26  F   UNL d   1     -43.553  10.184  23.490  0.00  0.00    -0.204 F 
ATOM     27  C   UNL d   1     -44.837  11.811  22.757  0.00  0.00     0.014 A 
ENDBRANCH  18  21
ENDBRANCH   3  18
BRANCH   6  28
ATOM     28  C   UNL d   1     -47.499  14.615  22.943  0.00  0.00     0.083 C 
BRANCH  28  29
ATOM     29  C   UNL d   1     -46.991  15.085  22.478  0.00  0.00     0.019 C 
ATOM     30  C   UNL d   1     -47.124  15.903  22.407  0.00  0.00     0.002 C 
ENDBRANCH  28  29
ENDBRANCH   6  28
TORSDOF 4
ENDMDL
MODEL 5
REMARK VINA RESULT:      -5.3      2.302      5.005
REMARK  4 active torsions:
REMARK  status: ('A' for Active; 'I' for Inactive)
REMARK    1  A    between atoms: S_5  and  C_3 
REMARK    2  A    between atoms: C_13  and  S_5 
REMARK    3  A    between atoms: C_23  and  N_7 
REMARK    4  A    between atoms: C_29  and  C_23 
ROOT
ATOM      1  C   UNL d   1     -46.045  12.504  22.868  0.00  0.00     0.155 A 
ATOM      2  C   UNL d   1     -46.038  13.194  22.439  0.00  0.00     0.092 A 
ATOM      3  C   UNL d   1     -47.382  13.431  22.790  0.00  0.00     0.124 A 
ATOM      4  N   UNL d   1     -45.371  12.037  22.906  0.00  0.00    -0.210 NA
ATOM      5  N   UNL d   1     -44.689  12.960  22.084  0.00  0.00    -0.258 N 
ATOM      6  N   UNL d   1     -46.715  12.274  23.257  0.00  0.00    -0.273 N 
ATOM      7  C   UNL d   1     -44.701  12.263  22.519  0.00  0.00     0.152 A 
ATOM      8  C   UNL d   1     -47.389  12.733  23.224  0.00  0.00     0.181 A 
ATOM      9  C   UNL d   1     -45.359  13.426  22.045  0.00  0.00     0.269 A 
ATOM     10  C   UNL d   1     -46.703  13.659  22.398  0.00  0.00     0.022 A 
ATOM     11  C   UNL d   1     -44.027  11.796  22.557  0.00  0.00     0.035 A 
ATOM     12  C   UNL d   1     -44.003  13.183  21.693  0.00  0.00     0.084 A 
ATOM     13  N   UNL d   1     -48.071  12.494  23.624  0.00  0.00    -0.128 N 
ATOM     14  O   UNL d   1     -45.347  14.131  21.605  0.00  0.00    -0.266 OA
ATOM     15  C   UNL d   1     -43.337  12.718  21.733  0.00  0.00     0.019 A 
ATOM     16  C   UNL d   1     -43.349  12.020  22.168  0.00  0.00     0.005 A 
ATOM     17  C   UNL d   1     -44.040  11.091  22.997  0.00  0.00     0.003 C 
ENDROOT
BRANCH   3  18
ATOM     18  S   UNL d   1     -48.059  13.899  22.752  0.00  0.00     0.213 S 
ATOM     19  O   UNL d   1     -48.382  13.403  22.166  0.00  0.00    -0.217 OA
ATOM     20  O   UNL d   1     -47.750  14.396  23.332  0.00  0.00    -0.217 OA
BRANCH  18  21
ATOM     21  C   UNL d   1     -48.739  14.377  22.721  0.00  0.00     0.088 A 
ATOM     22  C   UNL d   1     -48.889  14.925  23.319  0.00  0.00     0.014 A 
ATOM     23  C   UNL d   1     -49.570  15.403  23.287  0.00  0.00     0.030 A 
ATOM     24  C   UNL d   1     -50.097  15.329  22.655  0.00  0.00     0.140 A 
ATOM     25  C   UNL d   1     -49.940  14.771  22.051  0.00  0.00     0.030 A 
ATOM     26  F   UNL d   1     -50.775  15.800  22.616  0.00  0.00    -0.204 F 
ATOM     27  C   UNL d   1     -49.262  14.297  22.085  0.00  0.00     0.014 A 
ENDBRANCH  18  21
ENDBRANCH   3  18
BRANCH   6  28
ATOM     28  C   UNL d   1     -46.722  11.565  23.698  0.00  0.00     0.083 C 
BRANCH  28  29
ATOM     29  C   UNL d   1     -47.349  11.025  23.598  0.00  0.00     0.019 C 
ATOM     30  C   UNL d   1     -47.223  10.209  23.696  0.00  0.00     0.002 C 
ENDBRANCH  28  29
ENDBRANCH   6  28
TORSDOF 4
ENDMDL
