MODEL 1
REMARK VINA RESULT:     131.7      0.000      0.000
REMARK  5 active torsions:
REMARK  status: ('A' for Active; 'I' for Inactive)
REMARK    1  A    between atoms: C_10  and  C_3 
REMARK    2  A    between atoms: N_9  and  C_4 
REMARK    3  A    between atoms: C_16  and  N_12 
REMARK    4  A    between atoms: O_21  and  C_15 
REMARK    5  A    between atoms: C_20  and  C_16 
ROOT
ATOM      1  N   UNL d   1      61.372  46.288  50.609  0.00  0.00    -0.196 N 
ATOM      2  C   UNL d   1      61.530  45.482  50.642  0.00  0.00     0.167 A 
ATOM      3  C   UNL d   1      61.935  45.134  50.070  0.00  0.00     0.057 A 
ATOM      4  C   UNL d   1      60.953  46.616  51.214  0.00  0.00     0.152 A 
ATOM      5  N   UNL d   1      62.044  46.357  49.412  0.00  0.00    -0.163 NA
ATOM      6  C   UNL d   1      62.197  45.574  49.445  0.00  0.00     0.104 A 
ATOM      7  N   UNL d   1      61.259  45.052  51.279  0.00  0.00    -0.227 NA
ATOM      8  C   UNL d   1      60.693  46.193  51.828  0.00  0.00     0.057 A 
ATOM      9  C   UNL d   1      60.849  45.399  51.861  0.00  0.00     0.086 A 
ATOM     10  C   UNL d   1      62.627  45.214  48.833  0.00  0.00     0.023 C 
ATOM     11  C   UNL d   1      60.574  44.952  52.510  0.00  0.00     0.021 C 
ENDROOT
BRANCH   4  12
ATOM     12  N   UNL d   1      60.792  47.439  51.179  0.00  0.00    -0.286 N 
ATOM     13  C   UNL d   1      60.028  47.471  50.872  0.00  0.00     0.101 A 
ATOM     14  C   UNL d   1      59.656  48.207  50.750  0.00  0.00     0.100 A 
ATOM     15  N   UNL d   1      60.046  48.919  50.933  0.00  0.00    -0.300 N 
ATOM     16  C   UNL d   1      60.821  48.888  51.245  0.00  0.00     0.100 A 
ATOM     17  C   UNL d   1      61.202  48.150  51.371  0.00  0.00     0.101 A 
BRANCH  15  18
ATOM     18  C   UNL d   1      59.661  49.655  50.805  0.00  0.00     0.080 C 
BRANCH  18  19
ATOM     19  C   UNL d   1      58.844  49.662  50.621  0.00  0.00     0.018 A 
ATOM     20  C   UNL d   1      58.280  49.635  51.233  0.00  0.00     0.002 A 
ATOM     21  C   UNL d   1      57.464  49.642  51.048  0.00  0.00     0.000 A 
ATOM     22  C   UNL d   1      57.229  49.675  50.256  0.00  0.00     0.000 A 
ATOM     23  C   UNL d   1      57.796  49.702  49.642  0.00  0.00     0.000 A 
ATOM     24  C   UNL d   1      58.602  49.695  49.833  0.00  0.00     0.002 A 
ENDBRANCH  18  19
ENDBRANCH  15  18
ENDBRANCH   4  12
BRANCH   3  25
ATOM     25  C   UNL d   1      62.089  44.345  50.103  0.00  0.00     0.027 A 
ATOM     26  C   UNL d   1      61.600  43.817  49.732  0.00  0.00     0.094 A 
ATOM     27  C   UNL d   1      61.754  43.032  49.765  0.00  0.00     0.024 A 
ATOM     28  C   UNL d   1      62.397  42.772  50.169  0.00  0.00     0.002 A 
ATOM     29  C   UNL d   1      62.876  43.297  50.534  0.00  0.00     0.000 A 
ATOM     30  C   UNL d   1      62.725  44.070  50.502  0.00  0.00     0.002 A 
BRANCH  26  31
ATOM     31  O   UNL d   1      60.935  44.098  49.314  0.00  0.00    -0.328 OA
ATOM     32  C   UNL d   1      60.493  43.571  48.834  0.00  0.00     0.181 C 
ENDBRANCH  26  31
ENDBRANCH   3  25
TORSDOF 5
ENDMDL
