MODEL 1
REMARK VINA RESULT:      -5.3      0.000      0.000
REMARK  2 active torsions:
REMARK  status: ('A' for Active; 'I' for Inactive)
REMARK    1  A    between atoms: C_6  and  C_1 
REMARK    2  A    between atoms: O_15  and  C_12 
ROOT
ATOM      1  C   UNL d   1      55.676   0.048  33.256  0.00  0.00     0.128 A 
ATOM      2  C   UNL d   1      55.647  -0.794  33.165  0.00  0.00     0.306 A 
ATOM      3  C   UNL d   1      56.150   0.483  32.753  0.00  0.00     0.013 A 
ATOM      4  O   UNL d   1      56.094  -1.137  32.578  0.00  0.00    -0.273 OA
ATOM      5  C   UNL d   1      56.585   0.132  32.180  0.00  0.00     0.025 A 
ATOM      6  C   UNL d   1      56.555  -0.709  32.089  0.00  0.00     0.103 A 
ATOM      7  O   UNL d   1      55.164  -1.248  33.676  0.00  0.00    -0.259 OA
ATOM      8  C   UNL d   1      57.063   0.568  31.671  0.00  0.00     0.026 A 
ATOM      9  C   UNL d   1      57.007  -1.053  31.496  0.00  0.00     0.027 A 
ATOM     10  C   UNL d   1      57.518   0.219  31.074  0.00  0.00     0.094 A 
ATOM     11  C   UNL d   1      57.488  -0.623  30.983  0.00  0.00     0.026 A 
ENDROOT
BRANCH   1  12
ATOM     12  C   UNL d   1      55.222   0.422  33.857  0.00  0.00     0.216 C 
ATOM     13  O   UNL d   1      54.448   0.651  33.703  0.00  0.00    -0.644 OA
ATOM     14  O   UNL d   1      55.560   0.559  34.607  0.00  0.00    -0.644 OA
ENDBRANCH   1  12
BRANCH  10  15
ATOM     15  O   UNL d   1      57.993   0.679  30.574  0.00  0.00    -0.328 OA
ATOM     16  C   UNL d   1      58.299   0.360  29.881  0.00  0.00     0.181 C 
ENDBRANCH  10  15
TORSDOF 2
ENDMDL
MODEL 2
REMARK VINA RESULT:      -4.8      1.006      1.672
REMARK  2 active torsions:
REMARK  status: ('A' for Active; 'I' for Inactive)
REMARK    1  A    between atoms: C_6  and  C_1 
REMARK    2  A    between atoms: O_15  and  C_12 
ROOT
ATOM      1  C   UNL d   1      56.483  -0.476  32.653  0.00  0.00     0.128 A 
ATOM      2  C   UNL d   1      56.947   0.117  33.040  0.00  0.00     0.306 A 
ATOM      3  C   UNL d   1      56.642  -0.654  31.872  0.00  0.00     0.013 A 
ATOM      4  O   UNL d   1      57.536   0.487  32.618  0.00  0.00    -0.273 OA
ATOM      5  C   UNL d   1      57.225  -0.282  31.468  0.00  0.00     0.025 A 
ATOM      6  C   UNL d   1      57.689   0.311  31.856  0.00  0.00     0.103 A 
ATOM      7  O   UNL d   1      56.791   0.307  33.841  0.00  0.00    -0.259 OA
ATOM      8  C   UNL d   1      57.388  -0.460  30.681  0.00  0.00     0.026 A 
ATOM      9  C   UNL d   1      58.282   0.682  31.428  0.00  0.00     0.027 A 
ATOM     10  C   UNL d   1      57.987  -0.083  30.252  0.00  0.00     0.094 A 
ATOM     11  C   UNL d   1      58.451   0.509  30.640  0.00  0.00     0.026 A 
ENDROOT
BRANCH   1  12
ATOM     12  C   UNL d   1      55.869  -0.869  33.071  0.00  0.00     0.216 C 
ATOM     13  O   UNL d   1      55.179  -0.467  33.263  0.00  0.00    -0.644 OA
ATOM     14  O   UNL d   1      55.964  -1.669  33.291  0.00  0.00    -0.644 OA
ENDBRANCH   1  12
BRANCH  10  15
ATOM     15  O   UNL d   1      58.133  -0.279  29.460  0.00  0.00    -0.328 OA
ATOM     16  C   UNL d   1      58.894  -0.460  29.209  0.00  0.00     0.181 C 
ENDBRANCH  10  15
TORSDOF 2
ENDMDL
MODEL 3
REMARK VINA RESULT:      -4.5      0.997      3.614
REMARK  2 active torsions:
REMARK  status: ('A' for Active; 'I' for Inactive)
REMARK    1  A    between atoms: C_6  and  C_1 
REMARK    2  A    between atoms: O_15  and  C_12 
ROOT
ATOM      1  C   UNL d   1      57.732   0.165  31.079  0.00  0.00     0.128 A 
ATOM      2  C   UNL d   1      58.341   0.514  31.553  0.00  0.00     0.306 A 
ATOM      3  C   UNL d   1      57.008   0.005  31.422  0.00  0.00     0.013 A 
ATOM      4  O   UNL d   1      58.181   0.677  32.334  0.00  0.00    -0.273 OA
ATOM      5  C   UNL d   1      56.864   0.170  32.192  0.00  0.00     0.025 A 
ATOM      6  C   UNL d   1      57.473   0.519  32.665  0.00  0.00     0.103 A 
ATOM      7  O   UNL d   1      59.086   0.682  31.210  0.00  0.00    -0.259 OA
ATOM      8  C   UNL d   1      56.136   0.010  32.540  0.00  0.00     0.026 A 
ATOM      9  C   UNL d   1      57.309   0.682  33.452  0.00  0.00     0.027 A 
ATOM     10  C   UNL d   1      55.973   0.175  33.334  0.00  0.00     0.094 A 
ATOM     11  C   UNL d   1      56.582   0.524  33.808  0.00  0.00     0.026 A 
ENDROOT
BRANCH   1  12
ATOM     12  C   UNL d   1      57.877  -0.010  30.270  0.00  0.00     0.216 C 
ATOM     13  O   UNL d   1      57.674   0.534  29.689  0.00  0.00    -0.644 OA
ATOM     14  O   UNL d   1      58.228  -0.738  30.060  0.00  0.00    -0.644 OA
ENDBRANCH   1  12
BRANCH  10  15
ATOM     15  O   UNL d   1      55.231   0.005  33.663  0.00  0.00    -0.328 OA
ATOM     16  C   UNL d   1      54.823   0.577  34.089  0.00  0.00     0.181 C 
ENDBRANCH  10  15
TORSDOF 2
ENDMDL
MODEL 4
REMARK VINA RESULT:      -3.4      1.566      4.347
REMARK  2 active torsions:
REMARK  status: ('A' for Active; 'I' for Inactive)
REMARK    1  A    between atoms: C_6  and  C_1 
REMARK    2  A    between atoms: O_15  and  C_12 
ROOT
ATOM      1  C   UNL d   1      58.611  -0.962  29.549  0.00  0.00     0.128 A 
ATOM      2  C   UNL d   1      58.685  -0.132  29.401  0.00  0.00     0.306 A 
ATOM      3  C   UNL d   1      58.148  -1.213  30.174  0.00  0.00     0.013 A 
ATOM      4  O   UNL d   1      58.289   0.387  29.888  0.00  0.00    -0.273 OA
ATOM      5  C   UNL d   1      57.765  -0.692  30.645  0.00  0.00     0.025 A 
ATOM      6  C   UNL d   1      57.838   0.139  30.497  0.00  0.00     0.103 A 
ATOM      7  O   UNL d   1      59.157   0.135  28.763  0.00  0.00    -0.259 OA
ATOM      8  C   UNL d   1      57.297  -0.941  31.275  0.00  0.00     0.026 A 
ATOM      9  C   UNL d   1      57.439   0.659  30.989  0.00  0.00     0.027 A 
ATOM     10  C   UNL d   1      56.896  -0.414  31.771  0.00  0.00     0.094 A 
ATOM     11  C   UNL d   1      56.969   0.417  31.622  0.00  0.00     0.026 A 
ENDROOT
BRANCH   1  12
ATOM     12  C   UNL d   1      59.011  -1.514  29.057  0.00  0.00     0.216 C 
ATOM     13  O   UNL d   1      58.598  -1.920  28.474  0.00  0.00    -0.644 OA
ATOM     14  O   UNL d   1      59.828  -1.648  29.163  0.00  0.00    -0.644 OA
ENDBRANCH   1  12
BRANCH  10  15
ATOM     15  O   UNL d   1      56.430  -0.688  32.400  0.00  0.00    -0.328 OA
ATOM     16  C   UNL d   1      56.550  -0.404  33.162  0.00  0.00     0.181 C 
ENDBRANCH  10  15
TORSDOF 2
ENDMDL
MODEL 5
REMARK VINA RESULT:      -2.7      3.376      4.917
REMARK  2 active torsions:
REMARK  status: ('A' for Active; 'I' for Inactive)
REMARK    1  A    between atoms: C_6  and  C_1 
REMARK    2  A    between atoms: O_15  and  C_12 
ROOT
ATOM      1  C   UNL d   1      58.719  -0.372  29.534  0.00  0.00     0.128 A 
ATOM      2  C   UNL d   1      59.534  -0.139  29.548  0.00  0.00     0.306 A 
ATOM      3  C   UNL d   1      58.531  -1.135  29.313  0.00  0.00     0.013 A 
ATOM      4  O   UNL d   1      60.099  -0.687  29.340  0.00  0.00    -0.273 OA
ATOM      5  C   UNL d   1      59.096  -1.664  29.111  0.00  0.00     0.025 A 
ATOM      6  C   UNL d   1      59.910  -1.432  29.125  0.00  0.00     0.103 A 
ATOM      7  O   UNL d   1      59.737   0.641  29.773  0.00  0.00    -0.259 OA
ATOM      8  C   UNL d   1      58.909  -2.434  28.888  0.00  0.00     0.026 A 
ATOM      9  C   UNL d   1      60.477  -1.986  28.916  0.00  0.00     0.027 A 
ATOM     10  C   UNL d   1      59.483  -2.991  28.677  0.00  0.00     0.094 A 
ATOM     11  C   UNL d   1      60.297  -2.759  28.691  0.00  0.00     0.026 A 
ENDROOT
BRANCH   1  12
ATOM     12  C   UNL d   1      58.121   0.180  29.745  0.00  0.00     0.216 C 
ATOM     13  O   UNL d   1      57.711   0.585  29.159  0.00  0.00    -0.644 OA
ATOM     14  O   UNL d   1      57.945   0.313  30.549  0.00  0.00    -0.644 OA
ENDBRANCH   1  12
BRANCH  10  15
ATOM     15  O   UNL d   1      59.270  -3.762  28.456  0.00  0.00    -0.328 OA
ATOM     16  C   UNL d   1      59.824  -4.369  28.475  0.00  0.00     0.181 C 
ENDBRANCH  10  15
TORSDOF 2
ENDMDL
