MODEL 1
REMARK VINA RESULT:      76.7      0.000      0.000
REMARK  3 active torsions:
REMARK  status: ('A' for Active; 'I' for Inactive)
REMARK    1  A    between atoms: N_5  and  C_1 
REMARK    2  A    between atoms: C_2  and  C_6 
REMARK       I    between atoms: C_11  and  N_5 
REMARK    3  A    between atoms: C_9  and  C_11 
ROOT
ATOM      1  C   UNL d   1     -51.343  26.465  35.612  0.00  0.00     0.053 A 
ATOM      2  S   UNL d   1     -50.604  26.374  35.249  0.00  0.00    -0.080 SA
ATOM      3  C   UNL d   1     -50.696  26.552  34.444  0.00  0.00     0.087 A 
ATOM      4  C   UNL d   1     -51.886  26.698  35.037  0.00  0.00     0.009 A 
ATOM      5  C   UNL d   1     -51.488  26.753  34.314  0.00  0.00     0.012 A 
ENDROOT
BRANCH   3   6
ATOM      6  C   UNL d   1     -50.097  26.533  33.874  0.00  0.00     0.287 C 
ATOM      7  N   UNL d   1     -50.093  25.934  33.308  0.00  0.00    -0.182 NA
ATOM      8  O   UNL d   1     -49.506  27.112  33.874  0.00  0.00    -0.265 OA
BRANCH   7   9
ATOM      9  C   UNL d   1     -50.686  25.353  33.309  0.00  0.00     0.197 A 
ATOM     10  N   UNL d   1     -50.563  24.537  33.309  0.00  0.00    -0.221 NA
ATOM     11  C   UNL d   1     -51.299  24.176  33.309  0.00  0.00     0.090 A 
ATOM     12  C   UNL d   1     -51.514  23.385  33.309  0.00  0.00     0.020 A 
ATOM     13  C   UNL d   1     -51.864  24.771  33.310  0.00  0.00     0.050 A 
ATOM     14  C   UNL d   1     -52.307  23.190  33.310  0.00  0.00     0.002 A 
ATOM     15  C   UNL d   1     -52.885  23.769  33.310  0.00  0.00     0.001 A 
ATOM     16  C   UNL d   1     -52.679  24.568  33.310  0.00  0.00     0.008 A 
ATOM     17  C   UNL d   1     -53.685  23.565  33.311  0.00  0.00     0.000 C 
ATOM     18  S   UNL d   1     -51.492  25.497  33.309  0.00  0.00    -0.047 SA
ENDBRANCH   7   9
ENDBRANCH   3   6
BRANCH   1  19
ATOM     19  C   UNL d   1     -51.507  26.343  36.413  0.00  0.00     0.117 A 
ATOM     20  N   UNL d   1     -52.052  25.801  36.714  0.00  0.00    -0.238 NA
ATOM     21  C   UNL d   1     -52.034  25.866  37.541  0.00  0.00     0.088 A 
ATOM     22  C   UNL d   1     -52.452  25.471  38.132  0.00  0.00     0.020 A 
ATOM     23  C   UNL d   1     -51.480  26.445  37.743  0.00  0.00     0.049 A 
ATOM     24  C   UNL d   1     -52.315  25.656  38.920  0.00  0.00     0.002 A 
ATOM     25  C   UNL d   1     -51.761  26.236  39.122  0.00  0.00     0.001 A 
ATOM     26  C   UNL d   1     -51.344  26.630  38.534  0.00  0.00     0.008 A 
ATOM     27  S   UNL d   1     -51.154  26.740  37.040  0.00  0.00    -0.066 SA
ENDBRANCH   1  19
TORSDOF 3
ENDMDL
