MODEL 1
REMARK VINA RESULT:      65.7      0.000      0.000
REMARK  7 active torsions:
REMARK  status: ('A' for Active; 'I' for Inactive)
REMARK    1  A    between atoms: N_2  and  S_1 
REMARK    2  A    between atoms: C_3  and  S_1 
REMARK    3  A    between atoms: C_4  and  C_7 
REMARK       I    between atoms: N_5  and  C_4 
REMARK    4  A    between atoms: C_15  and  N_5 
REMARK    5  A    between atoms: C_6  and  C_11 
REMARK    6  A    between atoms: O_20  and  C_6 
REMARK    7  A    between atoms: C_28  and  O_20 
ROOT
ATOM      1  C   UNL d   1     -50.502  25.164  33.572  0.00  0.00     0.104 A 
ATOM      2  C   UNL d   1     -49.533  26.142  33.968  0.00  0.00     0.059 A 
ATOM      3  C   UNL d   1     -50.300  25.897  33.894  0.00  0.00     0.018 A 
ATOM      4  C   UNL d   1     -49.867  24.643  33.307  0.00  0.00     0.013 A 
ATOM      5  C   UNL d   1     -48.899  25.622  33.702  0.00  0.00     0.005 A 
ATOM      6  C   UNL d   1     -49.087  24.902  33.386  0.00  0.00     0.001 A 
ENDROOT
BRANCH   2   7
ATOM      7  C   UNL d   1     -49.363  26.878  34.292  0.00  0.00     0.279 C 
ATOM      8  N   UNL d   1     -48.597  27.163  34.301  0.00  0.00    -0.208 NA
ATOM      9  O   UNL d   1     -49.940  27.386  34.632  0.00  0.00    -0.265 OA
BRANCH   8  10
ATOM     10  C   UNL d   1     -48.419  27.913  34.631  0.00  0.00     0.085 A 
ATOM     11  C   UNL d   1     -48.536  28.050  35.456  0.00  0.00     0.019 A 
ATOM     12  C   UNL d   1     -48.344  28.835  35.769  0.00  0.00     0.007 A 
ATOM     13  C   UNL d   1     -48.046  29.445  35.250  0.00  0.00     0.064 A 
ATOM     14  C   UNL d   1     -47.936  29.298  34.445  0.00  0.00     0.007 A 
ATOM     15  C   UNL d   1     -48.118  28.535  34.117  0.00  0.00     0.019 A 
BRANCH  13  16
ATOM     16  C   UNL d   1     -47.862  30.186  35.529  0.00  0.00     0.300 C 
ATOM     17  O   UNL d   1     -48.320  30.587  36.051  0.00  0.00    -0.259 OA
BRANCH  16  18
ATOM     18  O   UNL d   1     -47.195  30.611  35.316  0.00  0.00    -0.271 OA
BRANCH  18  19
ATOM     19  C   UNL d   1     -47.178  31.419  35.420  0.00  0.00     0.126 C 
ATOM     20  C   UNL d   1     -47.364  31.900  34.810  0.00  0.00     0.029 C 
ENDBRANCH  18  19
ENDBRANCH  16  18
ENDBRANCH  13  16
ENDBRANCH   8  10
ENDBRANCH   2   7
BRANCH   1  21
ATOM     21  S   UNL d   1     -51.292  24.930  33.505  0.00  0.00     0.272 S 
ATOM     22  O   UNL d   1     -51.546  25.729  33.441  0.00  0.00    -0.200 OA
ATOM     23  O   UNL d   1     -51.062  24.144  33.566  0.00  0.00    -0.200 OA
BRANCH  21  24
ATOM     24  N   UNL d   1     -52.071  24.687  33.438  0.00  0.00    -0.225 N 
ATOM     25  C   UNL d   1     -52.244  23.898  33.416  0.00  0.00     0.118 A 
ATOM     26  C   UNL d   1     -53.018  23.641  33.349  0.00  0.00     0.142 A 
ATOM     27  O   UNL d   1     -53.624  24.178  33.306  0.00  0.00    -0.300 OA
ATOM     28  C   UNL d   1     -53.453  24.995  33.329  0.00  0.00     0.142 A 
ATOM     29  C   UNL d   1     -52.674  25.247  33.395  0.00  0.00     0.118 A 
ENDBRANCH  21  24
ENDBRANCH   1  21
TORSDOF 7
ENDMDL
MODEL 2
REMARK VINA RESULT:      68.5      0.911      1.210
REMARK  7 active torsions:
REMARK  status: ('A' for Active; 'I' for Inactive)
REMARK    1  A    between atoms: N_2  and  S_1 
REMARK    2  A    between atoms: C_3  and  S_1 
REMARK    3  A    between atoms: C_4  and  C_7 
REMARK       I    between atoms: N_5  and  C_4 
REMARK    4  A    between atoms: C_15  and  N_5 
REMARK    5  A    between atoms: C_6  and  C_11 
REMARK    6  A    between atoms: O_20  and  C_6 
REMARK    7  A    between atoms: C_28  and  O_20 
ROOT
ATOM      1  C   UNL d   1     -50.055  26.113  33.556  0.00  0.00     0.104 A 
ATOM      2  C   UNL d   1     -48.989  27.023  33.853  0.00  0.00     0.059 A 
ATOM      3  C   UNL d   1     -49.777  26.844  33.820  0.00  0.00     0.018 A 
ATOM      4  C   UNL d   1     -49.479  25.521  33.306  0.00  0.00     0.013 A 
ATOM      5  C   UNL d   1     -48.414  26.431  33.603  0.00  0.00     0.005 A 
ATOM      6  C   UNL d   1     -48.677  25.712  33.343  0.00  0.00     0.001 A 
ENDROOT
BRANCH   2   7
ATOM      7  C   UNL d   1     -48.743  27.760  34.120  0.00  0.00     0.279 C 
ATOM      8  N   UNL d   1     -48.237  27.824  34.760  0.00  0.00    -0.208 NA
ATOM      9  O   UNL d   1     -48.979  28.488  33.774  0.00  0.00    -0.265 OA
BRANCH   8  10
ATOM     10  C   UNL d   1     -47.983  28.573  35.036  0.00  0.00     0.085 A 
ATOM     11  C   UNL d   1     -47.402  29.008  34.605  0.00  0.00     0.019 A 
ATOM     12  C   UNL d   1     -47.159  29.781  34.914  0.00  0.00     0.007 A 
ATOM     13  C   UNL d   1     -47.503  30.083  35.635  0.00  0.00     0.064 A 
ATOM     14  C   UNL d   1     -48.071  29.649  36.047  0.00  0.00     0.007 A 
ATOM     15  C   UNL d   1     -48.324  28.889  35.762  0.00  0.00     0.019 A 
BRANCH  13  16
ATOM     16  C   UNL d   1     -47.285  30.806  35.937  0.00  0.00     0.300 C 
ATOM     17  O   UNL d   1     -46.709  30.898  36.487  0.00  0.00    -0.259 OA
BRANCH  16  18
ATOM     18  O   UNL d   1     -47.622  31.522  35.723  0.00  0.00    -0.271 OA
BRANCH  18  19
ATOM     19  C   UNL d   1     -47.200  32.049  35.267  0.00  0.00     0.126 C 
ATOM     20  C   UNL d   1     -47.544  32.380  34.627  0.00  0.00     0.029 C 
ENDBRANCH  18  19
ENDBRANCH  16  18
ENDBRANCH  13  16
ENDBRANCH   8  10
ENDBRANCH   2   7
BRANCH   1  21
ATOM     21  S   UNL d   1     -50.864  25.948  33.530  0.00  0.00     0.272 S 
ATOM     22  O   UNL d   1     -51.045  26.747  33.343  0.00  0.00    -0.200 OA
ATOM     23  O   UNL d   1     -50.708  25.163  33.713  0.00  0.00    -0.200 OA
BRANCH  21  24
ATOM     24  N   UNL d   1     -51.664  25.773  33.507  0.00  0.00    -0.225 N 
ATOM     25  C   UNL d   1     -51.914  25.018  33.651  0.00  0.00     0.118 A 
ATOM     26  C   UNL d   1     -52.710  24.829  33.631  0.00  0.00     0.142 A 
ATOM     27  O   UNL d   1     -53.261  25.400  33.465  0.00  0.00    -0.300 OA
ATOM     28  C   UNL d   1     -53.010  26.183  33.315  0.00  0.00     0.142 A 
ATOM     29  C   UNL d   1     -52.210  26.366  33.337  0.00  0.00     0.118 A 
ENDBRANCH  21  24
ENDBRANCH   1  21
TORSDOF 7
ENDMDL
