MODEL 1
REMARK VINA RESULT:      34.1      0.000      0.000
REMARK  4 active torsions:
REMARK  status: ('A' for Active; 'I' for Inactive)
REMARK    1  A    between atoms: N_2  and  S_1 
REMARK    2  A    between atoms: C_3  and  S_1 
REMARK    3  A    between atoms: C_4  and  N_2 
REMARK    4  A    between atoms: O_14  and  C_7 
ROOT
ATOM      1  S   UNL d   1     -51.590  26.147  33.646  0.00  0.00     0.285 S 
ATOM      2  O   UNL d   1     -51.077  25.589  33.976  0.00  0.00    -0.198 OA
ATOM      3  O   UNL d   1     -52.115  26.715  33.308  0.00  0.00    -0.198 OA
ENDROOT
BRANCH   1   4
ATOM      4  N   UNL d   1     -52.121  25.547  33.453  0.00  0.00    -0.156 NA
BRANCH   4   5
ATOM      5  C   UNL d   1     -51.865  24.767  33.408  0.00  0.00     0.116 A 
ATOM      6  C   UNL d   1     -52.405  24.144  33.418  0.00  0.00     0.112 A 
ATOM      7  C   UNL d   1     -52.149  23.364  33.373  0.00  0.00     0.026 A 
ATOM      8  C   UNL d   1     -51.348  23.189  33.317  0.00  0.00     0.002 A 
ATOM      9  C   UNL d   1     -50.802  23.809  33.306  0.00  0.00     0.002 A 
ATOM     10  C   UNL d   1     -51.058  24.589  33.351  0.00  0.00     0.022 A 
BRANCH   6  11
ATOM     11  O   UNL d   1     -53.234  24.330  33.477  0.00  0.00    -0.327 OA
ATOM     12  C   UNL d   1     -53.774  23.773  33.749  0.00  0.00     0.181 C 
ENDBRANCH   6  11
ENDBRANCH   4   5
ENDBRANCH   1   4
BRANCH   1  13
ATOM     13  C   UNL d   1     -51.049  26.763  33.842  0.00  0.00     0.105 A 
ATOM     14  C   UNL d   1     -50.963  27.411  33.328  0.00  0.00     0.014 A 
ATOM     15  C   UNL d   1     -50.430  28.011  33.529  0.00  0.00     0.012 A 
ATOM     16  C   UNL d   1     -49.982  27.968  34.239  0.00  0.00     0.058 A 
ATOM     17  C   UNL d   1     -50.076  27.324  34.736  0.00  0.00     0.012 A 
ATOM     18 CL   UNL d   1     -49.480  28.501  34.460  0.00  0.00    -0.082 Cl
ATOM     19  C   UNL d   1     -50.601  26.719  34.552  0.00  0.00     0.014 A 
ENDBRANCH   1  13
TORSDOF 4
ENDMDL
