MODEL 1
REMARK VINA RESULT:      -9.9      0.000      0.000
REMARK  2 active torsions:
REMARK  status: ('A' for Active; 'I' for Inactive)
REMARK    1  A    between atoms: C_6  and  N_1 
REMARK    2  A    between atoms: C_7  and  C_6 
ROOT
ATOM      1  N   UNL d   1      53.571  32.304  53.608  0.00  0.00    -0.287 N 
ATOM      2  N   UNL d   1      52.630  33.257  53.731  0.00  0.00    -0.224 NA
ATOM      3  C   UNL d   1      52.821  32.562  53.363  0.00  0.00     0.183 A 
ATOM      4  C   UNL d   1      53.860  32.862  54.153  0.00  0.00     0.083 A 
ATOM      5  C   UNL d   1      53.262  33.468  54.232  0.00  0.00     0.099 A 
ATOM      6  C   UNL d   1      54.541  32.938  54.587  0.00  0.00     0.019 A 
ATOM      7  C   UNL d   1      53.406  34.086  54.736  0.00  0.00     0.021 A 
ATOM      8  C   UNL d   1      54.669  33.543  55.074  0.00  0.00     0.002 A 
ATOM      9  C   UNL d   1      54.071  34.148  55.153  0.00  0.00     0.002 A 
ENDROOT
BRANCH   1  10
ATOM     10  C   UNL d   1      53.856  31.607  53.290  0.00  0.00     0.082 C 
BRANCH  10  11
ATOM     11  C   UNL d   1      53.480  30.902  53.361  0.00  0.00     0.018 A 
ATOM     12  C   UNL d   1      53.629  30.377  53.960  0.00  0.00     0.002 A 
ATOM     13  C   UNL d   1      53.251  29.663  54.035  0.00  0.00     0.000 A 
ATOM     14  C   UNL d   1      53.419  29.141  54.657  0.00  0.00     0.000 C 
ATOM     15  C   UNL d   1      52.685  29.460  53.471  0.00  0.00     0.000 A 
ATOM     16  C   UNL d   1      52.516  29.978  52.851  0.00  0.00     0.000 A 
ATOM     17  C   UNL d   1      52.913  30.699  52.796  0.00  0.00     0.002 A 
ENDBRANCH  10  11
ENDBRANCH   1  10
TORSDOF 2
ENDMDL
MODEL 2
REMARK VINA RESULT:      -9.6      0.644      3.595
REMARK  2 active torsions:
REMARK  status: ('A' for Active; 'I' for Inactive)
REMARK    1  A    between atoms: C_6  and  N_1 
REMARK    2  A    between atoms: C_7  and  C_6 
ROOT
ATOM      1  N   UNL d   1      53.511  32.028  53.260  0.00  0.00    -0.287 N 
ATOM      2  N   UNL d   1      52.323  31.706  52.718  0.00  0.00    -0.224 NA
ATOM      3  C   UNL d   1      52.842  32.312  52.860  0.00  0.00     0.183 A 
ATOM      4  C   UNL d   1      53.406  31.210  53.372  0.00  0.00     0.083 A 
ATOM      5  C   UNL d   1      52.651  31.005  53.028  0.00  0.00     0.099 A 
ATOM      6  C   UNL d   1      53.843  30.620  53.715  0.00  0.00     0.019 A 
ATOM      7  C   UNL d   1      52.411  30.232  53.062  0.00  0.00     0.021 A 
ATOM      8  C   UNL d   1      53.599  29.871  53.742  0.00  0.00     0.002 A 
ATOM      9  C   UNL d   1      52.844  29.667  53.398  0.00  0.00     0.002 A 
ENDROOT
BRANCH   1  10
ATOM     10  C   UNL d   1      54.096  32.566  53.450  0.00  0.00     0.082 C 
BRANCH  10  11
ATOM     11  C   UNL d   1      54.011  33.136  54.008  0.00  0.00     0.018 A 
ATOM     12  C   UNL d   1      53.581  33.812  53.890  0.00  0.00     0.002 A 
ATOM     13  C   UNL d   1      53.491  34.391  54.452  0.00  0.00     0.000 A 
ATOM     14  C   UNL d   1      53.047  35.076  54.309  0.00  0.00     0.000 C 
ATOM     15  C   UNL d   1      53.858  34.284  55.183  0.00  0.00     0.000 A 
ATOM     16  C   UNL d   1      54.301  33.603  55.327  0.00  0.00     0.000 A 
ATOM     17  C   UNL d   1      54.377  33.029  54.740  0.00  0.00     0.002 A 
ENDBRANCH  10  11
ENDBRANCH   1  10
TORSDOF 2
ENDMDL
MODEL 3
REMARK VINA RESULT:      -8.8      1.936      3.447
REMARK  2 active torsions:
REMARK  status: ('A' for Active; 'I' for Inactive)
REMARK    1  A    between atoms: C_6  and  N_1 
REMARK    2  A    between atoms: C_7  and  C_6 
ROOT
ATOM      1  N   UNL d   1      52.977  33.647  53.339  0.00  0.00    -0.287 N 
ATOM      2  N   UNL d   1      53.241  32.333  53.446  0.00  0.00    -0.224 NA
ATOM      3  C   UNL d   1      52.869  32.897  53.000  0.00  0.00     0.183 A 
ATOM      4  C   UNL d   1      53.436  33.546  54.026  0.00  0.00     0.083 A 
ATOM      5  C   UNL d   1      53.604  32.711  54.094  0.00  0.00     0.099 A 
ATOM      6  C   UNL d   1      53.730  34.043  54.595  0.00  0.00     0.019 A 
ATOM      7  C   UNL d   1      54.048  32.459  54.723  0.00  0.00     0.021 A 
ATOM      8  C   UNL d   1      54.161  33.787  55.202  0.00  0.00     0.002 A 
ATOM      9  C   UNL d   1      54.329  32.951  55.270  0.00  0.00     0.002 A 
ENDROOT
BRANCH   1  10
ATOM     10  C   UNL d   1      52.638  34.287  52.961  0.00  0.00     0.082 C 
BRANCH  10  11
ATOM     11  C   UNL d   1      51.874  34.304  52.718  0.00  0.00     0.018 A 
ATOM     12  C   UNL d   1      51.256  34.502  53.203  0.00  0.00     0.002 A 
ATOM     13  C   UNL d   1      50.482  34.520  52.962  0.00  0.00     0.000 A 
ATOM     14  C   UNL d   1      49.866  34.726  53.476  0.00  0.00     0.000 C 
ATOM     15  C   UNL d   1      50.315  34.326  52.177  0.00  0.00     0.000 A 
ATOM     16  C   UNL d   1      50.927  34.121  51.663  0.00  0.00     0.000 A 
ATOM     17  C   UNL d   1      51.706  34.110  51.933  0.00  0.00     0.002 A 
ENDBRANCH  10  11
ENDBRANCH   1  10
TORSDOF 2
ENDMDL
MODEL 4
REMARK VINA RESULT:      -8.4      1.690      3.196
REMARK  2 active torsions:
REMARK  status: ('A' for Active; 'I' for Inactive)
REMARK    1  A    between atoms: C_6  and  N_1 
REMARK    2  A    between atoms: C_7  and  C_6 
ROOT
ATOM      1  N   UNL d   1      52.677  32.931  53.181  0.00  0.00    -0.287 N 
ATOM      2  N   UNL d   1      51.476  32.327  53.138  0.00  0.00    -0.224 NA
ATOM      3  C   UNL d   1      52.270  32.210  53.246  0.00  0.00     0.183 A 
ATOM      4  C   UNL d   1      52.113  33.523  53.026  0.00  0.00     0.083 A 
ATOM      5  C   UNL d   1      51.350  33.139  52.999  0.00  0.00     0.099 A 
ATOM      6  C   UNL d   1      52.143  34.323  52.906  0.00  0.00     0.019 A 
ATOM      7  C   UNL d   1      50.696  33.595  52.854  0.00  0.00     0.021 A 
ATOM      8  C   UNL d   1      51.501  34.757  52.766  0.00  0.00     0.002 A 
ATOM      9  C   UNL d   1      50.738  34.373  52.739  0.00  0.00     0.002 A 
ENDROOT
BRANCH   1  10
ATOM     10  C   UNL d   1      53.489  32.918  53.275  0.00  0.00     0.082 C 
BRANCH  10  11
ATOM     11  C   UNL d   1      53.853  32.938  53.990  0.00  0.00     0.018 A 
ATOM     12  C   UNL d   1      54.355  33.532  54.218  0.00  0.00     0.002 A 
ATOM     13  C   UNL d   1      54.725  33.555  54.939  0.00  0.00     0.000 A 
ATOM     14  C   UNL d   1      55.234  34.173  55.151  0.00  0.00     0.000 C 
ATOM     15  C   UNL d   1      54.582  32.940  55.470  0.00  0.00     0.000 A 
ATOM     16  C   UNL d   1      54.075  32.323  55.261  0.00  0.00     0.000 A 
ATOM     17  C   UNL d   1      53.711  32.322  54.521  0.00  0.00     0.002 A 
ENDBRANCH  10  11
ENDBRANCH   1  10
TORSDOF 2
ENDMDL
MODEL 5
REMARK VINA RESULT:      -8.4      1.645      2.621
REMARK  2 active torsions:
REMARK  status: ('A' for Active; 'I' for Inactive)
REMARK    1  A    between atoms: C_6  and  N_1 
REMARK    2  A    between atoms: C_7  and  C_6 
ROOT
ATOM      1  N   UNL d   1      52.469  33.429  53.128  0.00  0.00    -0.287 N 
ATOM      2  N   UNL d   1      51.882  34.132  54.112  0.00  0.00    -0.224 NA
ATOM      3  C   UNL d   1      52.521  33.675  53.920  0.00  0.00     0.183 A 
ATOM      4  C   UNL d   1      51.767  33.746  52.814  0.00  0.00     0.083 A 
ATOM      5  C   UNL d   1      51.394  34.194  53.439  0.00  0.00     0.099 A 
ATOM      6  C   UNL d   1      51.400  33.717  52.092  0.00  0.00     0.019 A 
ATOM      7  C   UNL d   1      50.692  34.565  53.278  0.00  0.00     0.021 A 
ATOM      8  C   UNL d   1      50.718  34.082  51.947  0.00  0.00     0.002 A 
ATOM      9  C   UNL d   1      50.344  34.530  52.572  0.00  0.00     0.002 A 
ENDROOT
BRANCH   1  10
ATOM     10  C   UNL d   1      53.072  32.959  52.837  0.00  0.00     0.082 C 
BRANCH  10  11
ATOM     11  C   UNL d   1      53.250  32.234  53.131  0.00  0.00     0.018 A 
ATOM     12  C   UNL d   1      52.868  31.557  52.906  0.00  0.00     0.002 A 
ATOM     13  C   UNL d   1      53.045  30.822  53.200  0.00  0.00     0.000 A 
ATOM     14  C   UNL d   1      52.640  30.141  52.955  0.00  0.00     0.000 C 
ATOM     15  C   UNL d   1      53.648  30.761  53.760  0.00  0.00     0.000 A 
ATOM     16  C   UNL d   1      54.053  31.438  54.005  0.00  0.00     0.000 A 
ATOM     17  C   UNL d   1      53.853  32.174  53.691  0.00  0.00     0.002 A 
ENDBRANCH  10  11
ENDBRANCH   1  10
TORSDOF 2
ENDMDL
