MODEL 1
REMARK VINA RESULT:      62.6      0.000      0.000
REMARK  3 active torsions:
REMARK  status: ('A' for Active; 'I' for Inactive)
REMARK    1  A    between atoms: C_6  and  C_1 
REMARK       I    between atoms: N_10  and  C_6 
REMARK    2  A    between atoms: C_23  and  N_10 
REMARK    3  A    between atoms: C_22  and  C_23 
ROOT
ATOM      1  C   UNL d   1      58.870  49.647  50.450  0.00  0.00     0.266 C 
ATOM      2  N   UNL d   1      59.342  49.584  51.117  0.00  0.00    -0.210 NA
ATOM      3  O   UNL d   1      59.348  49.682  49.789  0.00  0.00    -0.269 OA
ENDROOT
BRANCH   1   4
ATOM      4  C   UNL d   1      58.066  49.661  50.580  0.00  0.00     0.150 A 
ATOM      5  C   UNL d   1      56.708  49.682  51.063  0.00  0.00     0.028 A 
ATOM      6  C   UNL d   1      57.263  49.676  50.615  0.00  0.00     0.078 A 
ATOM      7  C   UNL d   1      56.272  49.683  51.768  0.00  0.00     0.002 C 
ATOM      8  C   UNL d   1      56.036  49.700  50.583  0.00  0.00     0.002 C 
ATOM      9  C   UNL d   1      56.586  49.694  50.141  0.00  0.00     0.012 C 
ATOM     10  C   UNL d   1      57.873  49.660  51.096  0.00  0.00    -0.023 A 
ATOM     11  C   UNL d   1      57.125  49.687  49.813  0.00  0.00     0.211 A 
ATOM     12  C   UNL d   1      58.580  49.646  51.107  0.00  0.00    -0.015 A 
ATOM     13  C   UNL d   1      57.923  49.672  49.811  0.00  0.00     0.219 A 
ATOM     14  O   UNL d   1      56.450  49.704  49.330  0.00  0.00    -0.288 OA
ATOM     15  O   UNL d   1      57.794  49.682  49.006  0.00  0.00    -0.287 OA
ENDBRANCH   1   4
BRANCH   2  16
ATOM     16  C   UNL d   1      60.165  49.566  51.042  0.00  0.00     0.102 C 
BRANCH  16  17
ATOM     17  C   UNL d   1      60.826  49.083  50.973  0.00  0.00     0.021 A 
ATOM     18  C   UNL d   1      60.868  48.530  50.356  0.00  0.00     0.028 A 
ATOM     19  C   UNL d   1      61.538  48.038  50.283  0.00  0.00     0.119 A 
ATOM     20  O   UNL d   1      61.735  47.453  49.745  0.00  0.00    -0.300 OA
ATOM     21  C   UNL d   1      62.160  48.105  50.831  0.00  0.00     0.119 A 
ATOM     22  C   UNL d   1      62.472  47.151  49.947  0.00  0.00     0.304 A 
ATOM     23  O   UNL d   1      62.737  47.554  50.620  0.00  0.00    -0.300 OA
ATOM     24  C   UNL d   1      62.108  48.659  51.443  0.00  0.00     0.026 A 
ATOM     25  C   UNL d   1      61.445  49.146  51.516  0.00  0.00     0.004 A 
ENDBRANCH  16  17
ENDBRANCH   2  16
TORSDOF 3
ENDMDL
