MODEL 1
REMARK VINA RESULT:      -6.9      0.000      0.000
REMARK  6 active torsions:
REMARK  status: ('A' for Active; 'I' for Inactive)
REMARK    1  A    between atoms: N_9  and  C_1 
REMARK    2  A    between atoms: C_4  and  S_13 
REMARK    3  A    between atoms: C_14  and  C_8 
REMARK       I    between atoms: C_12  and  N_9 
REMARK    4  A    between atoms: C_17  and  C_10 
REMARK    5  A    between atoms: C_16  and  C_12 
REMARK    6  A    between atoms: S_13  and  C_16 
ROOT
ATOM      1  S   UNL d   1     -47.356  11.813  23.558  0.00  0.00    -0.043 SA
ENDROOT
BRANCH   1   2
ATOM      2  C   UNL d   1     -48.174  11.922  23.462  0.00  0.00     0.195 A 
ATOM      3  N   UNL d   1     -48.543  12.570  23.118  0.00  0.00    -0.220 NA
ATOM      4  C   UNL d   1     -49.347  12.442  23.143  0.00  0.00     0.103 A 
ATOM      5  C   UNL d   1     -49.482  11.719  23.500  0.00  0.00     0.120 A 
ATOM      6  N   UNL d   1     -48.757  11.402  23.695  0.00  0.00    -0.218 NA
BRANCH   4   7
ATOM      7  C   UNL d   1     -49.895  12.979  22.845  0.00  0.00     0.019 A 
ATOM      8  C   UNL d   1     -50.243  12.850  22.105  0.00  0.00     0.002 A 
ATOM      9  C   UNL d   1     -50.791  13.398  21.819  0.00  0.00     0.000 A 
ATOM     10  C   UNL d   1     -50.986  14.061  22.267  0.00  0.00     0.000 A 
ATOM     11  C   UNL d   1     -50.643  14.184  22.993  0.00  0.00     0.000 A 
ATOM     12  C   UNL d   1     -50.088  13.634  23.287  0.00  0.00     0.002 A 
ENDBRANCH   4   7
ENDBRANCH   1   2
BRANCH   1  13
ATOM     13  C   UNL d   1     -46.837  12.423  23.351  0.00  0.00     0.101 C 
BRANCH  13  14
ATOM     14  C   UNL d   1     -46.058  12.253  23.139  0.00  0.00     0.288 C 
ATOM     15  N   UNL d   1     -45.684  12.672  22.532  0.00  0.00    -0.181 NA
ATOM     16  O   UNL d   1     -45.643  11.653  23.542  0.00  0.00    -0.265 OA
BRANCH  15  17
ATOM     17  C   UNL d   1     -44.901  12.499  22.320  0.00  0.00     0.219 A 
ATOM     18  S   UNL d   1     -44.537  12.916  21.708  0.00  0.00    -0.026 SA
ATOM     19  C   UNL d   1     -43.765  12.625  21.624  0.00  0.00     0.135 A 
ATOM     20  N   UNL d   1     -43.656  12.029  22.185  0.00  0.00    -0.139 NA
ATOM     21  N   UNL d   1     -44.355  11.949  22.616  0.00  0.00    -0.121 NA
BRANCH  19  22
ATOM     22  C   UNL d   1     -43.203  12.881  21.081  0.00  0.00     0.028 C 
ATOM     23  C   UNL d   1     -42.508  13.236  21.352  0.00  0.00     0.002 C 
ENDBRANCH  19  22
ENDBRANCH  15  17
ENDBRANCH  13  14
ENDBRANCH   1  13
TORSDOF 6
ENDMDL
MODEL 2
REMARK VINA RESULT:      -6.6      1.641      1.994
REMARK  6 active torsions:
REMARK  status: ('A' for Active; 'I' for Inactive)
REMARK    1  A    between atoms: N_9  and  C_1 
REMARK    2  A    between atoms: C_4  and  S_13 
REMARK    3  A    between atoms: C_14  and  C_8 
REMARK       I    between atoms: C_12  and  N_9 
REMARK    4  A    between atoms: C_17  and  C_10 
REMARK    5  A    between atoms: C_16  and  C_12 
REMARK    6  A    between atoms: S_13  and  C_16 
ROOT
ATOM      1  S   UNL d   1     -47.579  12.766  22.775  0.00  0.00    -0.043 SA
ENDROOT
BRANCH   1   2
ATOM      2  C   UNL d   1     -48.358  12.997  22.946  0.00  0.00     0.195 A 
ATOM      3  N   UNL d   1     -48.661  13.760  22.901  0.00  0.00    -0.220 NA
ATOM      4  C   UNL d   1     -49.446  13.729  23.116  0.00  0.00     0.103 A 
ATOM      5  C   UNL d   1     -49.635  12.954  23.294  0.00  0.00     0.120 A 
ATOM      6  N   UNL d   1     -48.962  12.507  23.188  0.00  0.00    -0.218 NA
BRANCH   4   7
ATOM      7  C   UNL d   1     -49.931  14.395  23.136  0.00  0.00     0.019 A 
ATOM      8  C   UNL d   1     -49.789  14.994  23.689  0.00  0.00     0.002 A 
ATOM      9  C   UNL d   1     -50.284  15.656  23.698  0.00  0.00     0.000 A 
ATOM     10  C   UNL d   1     -50.908  15.714  23.162  0.00  0.00     0.000 A 
ATOM     11  C   UNL d   1     -51.043  15.123  22.622  0.00  0.00     0.000 A 
ATOM     12  C   UNL d   1     -50.547  14.452  22.608  0.00  0.00     0.002 A 
ENDBRANCH   4   7
ENDBRANCH   1   2
BRANCH   1  13
ATOM     13  C   UNL d   1     -47.014  12.762  23.378  0.00  0.00     0.101 C 
BRANCH  13  14
ATOM     14  C   UNL d   1     -46.255  12.467  23.238  0.00  0.00     0.288 C 
ATOM     15  N   UNL d   1     -46.050  11.702  23.471  0.00  0.00    -0.181 NA
ATOM     16  O   UNL d   1     -45.692  12.948  22.855  0.00  0.00    -0.265 OA
BRANCH  15  17
ATOM     17  C   UNL d   1     -45.287  11.408  23.328  0.00  0.00     0.219 A 
ATOM     18  S   UNL d   1     -45.083  10.650  23.582  0.00  0.00    -0.026 SA
ATOM     19  C   UNL d   1     -44.294  10.511  23.364  0.00  0.00     0.135 A 
ATOM     20  N   UNL d   1     -44.017  11.185  22.976  0.00  0.00    -0.139 NA
ATOM     21  N   UNL d   1     -44.627  11.740  22.952  0.00  0.00    -0.121 NA
BRANCH  19  22
ATOM     22  C   UNL d   1     -43.862   9.827  23.506  0.00  0.00     0.028 C 
ATOM     23  C   UNL d   1     -43.060   9.885  23.698  0.00  0.00     0.002 C 
ENDBRANCH  19  22
ENDBRANCH  15  17
ENDBRANCH  13  14
ENDBRANCH   1  13
TORSDOF 6
ENDMDL
MODEL 3
REMARK VINA RESULT:      -6.5      0.959      1.373
REMARK  6 active torsions:
REMARK  status: ('A' for Active; 'I' for Inactive)
REMARK    1  A    between atoms: N_9  and  C_1 
REMARK    2  A    between atoms: C_4  and  S_13 
REMARK    3  A    between atoms: C_14  and  C_8 
REMARK       I    between atoms: C_12  and  N_9 
REMARK    4  A    between atoms: C_17  and  C_10 
REMARK    5  A    between atoms: C_16  and  C_12 
REMARK    6  A    between atoms: S_13  and  C_16 
ROOT
ATOM      1  S   UNL d   1     -46.665  13.029  23.107  0.00  0.00    -0.043 SA
ENDROOT
BRANCH   1   2
ATOM      2  C   UNL d   1     -47.463  13.262  23.102  0.00  0.00     0.195 A 
ATOM      3  N   UNL d   1     -48.116  12.763  23.092  0.00  0.00    -0.220 NA
ATOM      4  C   UNL d   1     -48.784  13.229  23.090  0.00  0.00     0.103 A 
ATOM      5  C   UNL d   1     -48.553  14.013  23.099  0.00  0.00     0.120 A 
ATOM      6  N   UNL d   1     -47.738  14.028  23.106  0.00  0.00    -0.218 NA
BRANCH   4   7
ATOM      7  C   UNL d   1     -49.547  12.917  23.081  0.00  0.00     0.019 A 
ATOM      8  C   UNL d   1     -50.074  13.129  22.479  0.00  0.00     0.002 A 
ATOM      9  C   UNL d   1     -50.836  12.808  22.483  0.00  0.00     0.000 A 
ATOM     10  C   UNL d   1     -51.062  12.286  23.078  0.00  0.00     0.000 A 
ATOM     11  C   UNL d   1     -50.541  12.080  23.666  0.00  0.00     0.000 A 
ATOM     12  C   UNL d   1     -49.771  12.401  23.668  0.00  0.00     0.002 A 
ENDBRANCH   4   7
ENDBRANCH   1   2
BRANCH   1  13
ATOM     13  C   UNL d   1     -46.251  12.977  22.394  0.00  0.00     0.101 C 
BRANCH  13  14
ATOM     14  C   UNL d   1     -45.458  12.748  22.387  0.00  0.00     0.288 C 
ATOM     15  N   UNL d   1     -44.950  13.001  21.786  0.00  0.00    -0.181 NA
ATOM     16  O   UNL d   1     -45.167  12.257  22.995  0.00  0.00    -0.265 OA
BRANCH  15  17
ATOM     17  C   UNL d   1     -44.152  12.769  21.783  0.00  0.00     0.219 A 
ATOM     18  S   UNL d   1     -43.579  13.270  21.465  0.00  0.00    -0.026 SA
ATOM     19  C   UNL d   1     -42.843  12.894  21.539  0.00  0.00     0.135 A 
ATOM     20  N   UNL d   1     -42.967  12.163  21.902  0.00  0.00    -0.139 NA
ATOM     21  N   UNL d   1     -43.774  12.083  22.054  0.00  0.00    -0.121 NA
BRANCH  19  22
ATOM     22  C   UNL d   1     -42.116  13.191  21.295  0.00  0.00     0.028 C 
ATOM     23  C   UNL d   1     -42.038  13.497  20.531  0.00  0.00     0.002 C 
ENDBRANCH  19  22
ENDBRANCH  15  17
ENDBRANCH  13  14
ENDBRANCH   1  13
TORSDOF 6
ENDMDL
MODEL 4
REMARK VINA RESULT:      -6.3      2.153      5.569
REMARK  6 active torsions:
REMARK  status: ('A' for Active; 'I' for Inactive)
REMARK    1  A    between atoms: N_9  and  C_1 
REMARK    2  A    between atoms: C_4  and  S_13 
REMARK    3  A    between atoms: C_14  and  C_8 
REMARK       I    between atoms: C_12  and  N_9 
REMARK    4  A    between atoms: C_17  and  C_10 
REMARK    5  A    between atoms: C_16  and  C_12 
REMARK    6  A    between atoms: S_13  and  C_16 
ROOT
ATOM      1  S   UNL d   1     -46.686  12.938  23.308  0.00  0.00    -0.043 SA
ENDROOT
BRANCH   1   2
ATOM      2  C   UNL d   1     -46.376  12.176  23.421  0.00  0.00     0.195 A 
ATOM      3  N   UNL d   1     -45.592  11.949  23.321  0.00  0.00    -0.220 NA
ATOM      4  C   UNL d   1     -45.539  11.154  23.492  0.00  0.00     0.103 A 
ATOM      5  C   UNL d   1     -46.283  10.884  23.698  0.00  0.00     0.120 A 
ATOM      6  N   UNL d   1     -46.795  11.517  23.653  0.00  0.00    -0.218 NA
BRANCH   4   7
ATOM      7  C   UNL d   1     -44.831  10.734  23.451  0.00  0.00     0.019 A 
ATOM      8  C   UNL d   1     -44.804   9.944  23.698  0.00  0.00     0.002 A 
ATOM      9  C   UNL d   1     -44.087   9.536  23.651  0.00  0.00     0.000 A 
ATOM     10  C   UNL d   1     -43.413   9.912  23.362  0.00  0.00     0.000 A 
ATOM     11  C   UNL d   1     -43.445  10.687  23.121  0.00  0.00     0.000 A 
ATOM     12  C   UNL d   1     -44.166  11.105  23.166  0.00  0.00     0.002 A 
ENDBRANCH   4   7
ENDBRANCH   1   2
BRANCH   1  13
ATOM     13  C   UNL d   1     -47.137  13.098  22.634  0.00  0.00     0.101 C 
BRANCH  13  14
ATOM     14  C   UNL d   1     -47.632  13.758  22.610  0.00  0.00     0.288 C 
ATOM     15  N   UNL d   1     -48.454  13.671  22.612  0.00  0.00    -0.181 NA
ATOM     16  O   UNL d   1     -47.298  14.521  22.584  0.00  0.00    -0.265 OA
BRANCH  15  17
ATOM     17  C   UNL d   1     -48.949  14.337  22.588  0.00  0.00     0.219 A 
ATOM     18  S   UNL d   1     -49.744  14.267  22.797  0.00  0.00    -0.026 SA
ATOM     19  C   UNL d   1     -50.095  15.015  22.720  0.00  0.00     0.135 A 
ATOM     20  N   UNL d   1     -49.513  15.542  22.465  0.00  0.00    -0.139 NA
ATOM     21  N   UNL d   1     -48.805  15.127  22.382  0.00  0.00    -0.121 NA
BRANCH  19  22
ATOM     22  C   UNL d   1     -50.881  15.203  22.871  0.00  0.00     0.028 C 
ATOM     23  C   UNL d   1     -51.062  15.734  23.478  0.00  0.00     0.002 C 
ENDBRANCH  19  22
ENDBRANCH  15  17
ENDBRANCH  13  14
ENDBRANCH   1  13
TORSDOF 6
ENDMDL
MODEL 5
REMARK VINA RESULT:      -5.9      2.667      7.429
REMARK  6 active torsions:
REMARK  status: ('A' for Active; 'I' for Inactive)
REMARK    1  A    between atoms: N_9  and  C_1 
REMARK    2  A    between atoms: C_4  and  S_13 
REMARK    3  A    between atoms: C_14  and  C_8 
REMARK       I    between atoms: C_12  and  N_9 
REMARK    4  A    between atoms: C_17  and  C_10 
REMARK    5  A    between atoms: C_16  and  C_12 
REMARK    6  A    between atoms: S_13  and  C_16 
ROOT
ATOM      1  S   UNL d   1     -42.097  13.314  21.192  0.00  0.00    -0.043 SA
ENDROOT
BRANCH   1   2
ATOM      2  C   UNL d   1     -41.587  13.791  20.743  0.00  0.00     0.195 A 
ATOM      3  N   UNL d   1     -41.314  13.633  19.983  0.00  0.00    -0.220 NA
ATOM      4  C   UNL d   1     -40.829  14.249  19.760  0.00  0.00     0.103 A 
ATOM      5  C   UNL d   1     -40.798  14.789  20.373  0.00  0.00     0.120 A 
ATOM      6  N   UNL d   1     -41.266  14.503  20.976  0.00  0.00    -0.218 NA
BRANCH   4   7
ATOM      7  C   UNL d   1     -40.454  14.279  19.027  0.00  0.00     0.019 A 
ATOM      8  C   UNL d   1     -40.836  14.627  18.381  0.00  0.00     0.002 A 
ATOM      9  C   UNL d   1     -40.447  14.651  17.651  0.00  0.00     0.000 A 
ATOM     10  C   UNL d   1     -39.691  14.332  17.575  0.00  0.00     0.000 A 
ATOM     11  C   UNL d   1     -39.320  13.991  18.212  0.00  0.00     0.000 A 
ATOM     12  C   UNL d   1     -39.708  13.965  18.951  0.00  0.00     0.002 A 
ENDBRANCH   4   7
ENDBRANCH   1   2
BRANCH   1  13
ATOM     13  C   UNL d   1     -42.896  13.265  20.987  0.00  0.00     0.101 C 
BRANCH  13  14
ATOM     14  C   UNL d   1     -43.438  12.916  21.502  0.00  0.00     0.288 C 
ATOM     15  N   UNL d   1     -44.183  13.254  21.625  0.00  0.00    -0.181 NA
ATOM     16  O   UNL d   1     -43.232  12.214  21.902  0.00  0.00    -0.265 OA
BRANCH  15  17
ATOM     17  C   UNL d   1     -44.726  12.900  22.144  0.00  0.00     0.219 A 
ATOM     18  S   UNL d   1     -45.459  13.254  22.277  0.00  0.00    -0.026 SA
ATOM     19  C   UNL d   1     -45.877  12.780  22.814  0.00  0.00     0.135 A 
ATOM     20  N   UNL d   1     -45.399  12.136  23.009  0.00  0.00    -0.139 NA
ATOM     21  N   UNL d   1     -44.688  12.207  22.597  0.00  0.00    -0.121 NA
BRANCH  19  22
ATOM     22  C   UNL d   1     -46.633  12.922  23.104  0.00  0.00     0.028 C 
ATOM     23  C   UNL d   1     -47.033  12.321  23.507  0.00  0.00     0.002 C 
ENDBRANCH  19  22
ENDBRANCH  15  17
ENDBRANCH  13  14
ENDBRANCH   1  13
TORSDOF 6
ENDMDL
MODEL 6
REMARK VINA RESULT:      -5.6      2.030      6.947
REMARK  6 active torsions:
REMARK  status: ('A' for Active; 'I' for Inactive)
REMARK    1  A    between atoms: N_9  and  C_1 
REMARK    2  A    between atoms: C_4  and  S_13 
REMARK    3  A    between atoms: C_14  and  C_8 
REMARK       I    between atoms: C_12  and  N_9 
REMARK    4  A    between atoms: C_17  and  C_10 
REMARK    5  A    between atoms: C_16  and  C_12 
REMARK    6  A    between atoms: S_13  and  C_16 
ROOT
ATOM      1  S   UNL d   1     -43.009  12.877  21.459  0.00  0.00    -0.043 SA
ENDROOT
BRANCH   1   2
ATOM      2  C   UNL d   1     -42.405  13.297  21.073  0.00  0.00     0.195 A 
ATOM      3  N   UNL d   1     -41.850  13.790  21.428  0.00  0.00    -0.220 NA
ATOM      4  C   UNL d   1     -41.368  14.084  20.842  0.00  0.00     0.103 A 
ATOM      5  C   UNL d   1     -41.616  13.779  20.125  0.00  0.00     0.120 A 
ATOM      6  N   UNL d   1     -42.255  13.295  20.273  0.00  0.00    -0.218 NA
BRANCH   4   7
ATOM      7  C   UNL d   1     -40.744  14.601  20.993  0.00  0.00     0.019 A 
ATOM      8  C   UNL d   1     -40.884  15.415  21.043  0.00  0.00     0.002 A 
ATOM      9  C   UNL d   1     -40.249  15.922  21.196  0.00  0.00     0.000 A 
ATOM     10  C   UNL d   1     -39.490  15.616  21.295  0.00  0.00     0.000 A 
ATOM     11  C   UNL d   1     -39.358  14.817  21.244  0.00  0.00     0.000 A 
ATOM     12  C   UNL d   1     -39.995  14.300  21.091  0.00  0.00     0.002 A 
ENDBRANCH   4   7
ENDBRANCH   1   2
BRANCH   1  13
ATOM     13  C   UNL d   1     -43.782  13.168  21.444  0.00  0.00     0.101 C 
BRANCH  13  14
ATOM     14  C   UNL d   1     -44.356  12.856  21.949  0.00  0.00     0.288 C 
ATOM     15  N   UNL d   1     -45.028  13.293  22.148  0.00  0.00    -0.181 NA
ATOM     16  O   UNL d   1     -44.254  12.089  22.261  0.00  0.00    -0.265 OA
BRANCH  15  17
ATOM     17  C   UNL d   1     -45.603  12.976  22.656  0.00  0.00     0.219 A 
ATOM     18  S   UNL d   1     -46.385  13.231  22.603  0.00  0.00    -0.026 SA
ATOM     19  C   UNL d   1     -46.827  12.821  23.173  0.00  0.00     0.135 A 
ATOM     20  N   UNL d   1     -46.313  12.314  23.574  0.00  0.00    -0.139 NA
ATOM     21  N   UNL d   1     -45.557  12.408  23.257  0.00  0.00    -0.121 NA
BRANCH  19  22
ATOM     22  C   UNL d   1     -47.632  12.900  23.317  0.00  0.00     0.028 C 
ATOM     23  C   UNL d   1     -48.090  12.225  23.451  0.00  0.00     0.002 C 
ENDBRANCH  19  22
ENDBRANCH  15  17
ENDBRANCH  13  14
ENDBRANCH   1  13
TORSDOF 6
ENDMDL
MODEL 7
REMARK VINA RESULT:      -5.0      2.770      4.567
REMARK  6 active torsions:
REMARK  status: ('A' for Active; 'I' for Inactive)
REMARK    1  A    between atoms: N_9  and  C_1 
REMARK    2  A    between atoms: C_4  and  S_13 
REMARK    3  A    between atoms: C_14  and  C_8 
REMARK       I    between atoms: C_12  and  N_9 
REMARK    4  A    between atoms: C_17  and  C_10 
REMARK    5  A    between atoms: C_16  and  C_12 
REMARK    6  A    between atoms: S_13  and  C_16 
ROOT
ATOM      1  S   UNL d   1     -43.356  12.951  21.170  0.00  0.00    -0.043 SA
ENDROOT
BRANCH   1   2
ATOM      2  C   UNL d   1     -44.000  12.811  21.676  0.00  0.00     0.195 A 
ATOM      3  N   UNL d   1     -44.682  13.266  21.733  0.00  0.00    -0.220 NA
ATOM      4  C   UNL d   1     -45.162  12.924  22.297  0.00  0.00     0.103 A 
ATOM      5  C   UNL d   1     -44.785  12.261  22.589  0.00  0.00     0.120 A 
ATOM      6  N   UNL d   1     -44.069  12.195  22.204  0.00  0.00    -0.218 NA
BRANCH   4   7
ATOM      7  C   UNL d   1     -45.898  13.232  22.504  0.00  0.00     0.019 A 
ATOM      8  C   UNL d   1     -45.979  14.040  22.661  0.00  0.00     0.002 A 
ATOM      9  C   UNL d   1     -46.723  14.335  22.867  0.00  0.00     0.000 A 
ATOM     10  C   UNL d   1     -47.371  13.827  22.915  0.00  0.00     0.000 A 
ATOM     11  C   UNL d   1     -47.286  13.035  22.760  0.00  0.00     0.000 A 
ATOM     12  C   UNL d   1     -46.537  12.732  22.551  0.00  0.00     0.002 A 
ENDBRANCH   4   7
ENDBRANCH   1   2
BRANCH   1  13
ATOM     13  C   UNL d   1     -42.666  13.290  21.474  0.00  0.00     0.101 C 
BRANCH  13  14
ATOM     14  C   UNL d   1     -42.064  13.539  20.966  0.00  0.00     0.288 C 
ATOM     15  N   UNL d   1     -41.509  14.100  21.211  0.00  0.00    -0.181 NA
ATOM     16  O   UNL d   1     -42.018  13.220  20.198  0.00  0.00    -0.265 OA
BRANCH  15  17
ATOM     17  C   UNL d   1     -40.905  14.347  20.698  0.00  0.00     0.219 A 
ATOM     18  S   UNL d   1     -40.158  14.526  20.997  0.00  0.00    -0.026 SA
ATOM     19  C   UNL d   1     -39.676  14.755  20.361  0.00  0.00     0.135 A 
ATOM     20  N   UNL d   1     -40.131  14.716  19.673  0.00  0.00    -0.139 NA
ATOM     21  N   UNL d   1     -40.889  14.465  19.878  0.00  0.00    -0.121 NA
BRANCH  19  22
ATOM     22  C   UNL d   1     -38.887  14.982  20.403  0.00  0.00     0.028 C 
ATOM     23  C   UNL d   1     -38.670  15.744  20.169  0.00  0.00     0.002 C 
ENDBRANCH  19  22
ENDBRANCH  15  17
ENDBRANCH  13  14
ENDBRANCH   1  13
TORSDOF 6
ENDMDL
