MODEL 1
REMARK VINA RESULT:      -9.0      0.000      0.000
REMARK  2 active torsions:
REMARK  status: ('A' for Active; 'I' for Inactive)
REMARK    1  A    between atoms: N_10  and  C_1 
REMARK       I    between atoms: C_12  and  N_10 
REMARK    2  A    between atoms: C_17  and  C_12 
ROOT
ATOM      1  C   UNL d   1      51.938  33.628  52.687  0.00  0.00     0.197 A 
ATOM      2  C   UNL d   1      52.938  33.270  53.482  0.00  0.00     0.057 A 
ATOM      3  C   UNL d   1      53.539  33.220  54.011  0.00  0.00     0.056 A 
ATOM      4  N   UNL d   1      52.059  32.846  52.551  0.00  0.00    -0.221 NA
ATOM      5  S   UNL d   1      52.467  33.929  53.261  0.00  0.00    -0.046 SA
ATOM      6  N   UNL d   1      54.501  32.616  54.694  0.00  0.00    -0.238 NA
ATOM      7  S   UNL d   1      53.892  33.763  54.501  0.00  0.00    -0.066 SA
ATOM      8  C   UNL d   1      52.691  32.615  53.052  0.00  0.00     0.090 A 
ATOM      9  C   UNL d   1      53.929  32.500  54.140  0.00  0.00     0.088 A 
ATOM     10  C   UNL d   1      54.517  33.366  54.944  0.00  0.00     0.111 A 
ATOM     11  C   UNL d   1      53.068  31.890  53.167  0.00  0.00     0.021 A 
ATOM     12  C   UNL d   1      53.701  31.829  53.723  0.00  0.00     0.021 A 
ATOM     13  C   UNL d   1      55.033  33.698  55.516  0.00  0.00     0.028 C 
ENDROOT
BRANCH   1  14
ATOM     14  N   UNL d   1      51.345  34.107  52.298  0.00  0.00    -0.183 NA
ATOM     15  C   UNL d   1      50.587  34.117  52.608  0.00  0.00     0.281 C 
ATOM     16  O   UNL d   1      50.457  33.638  53.305  0.00  0.00    -0.265 OA
BRANCH  15  17
ATOM     17  C   UNL d   1      50.040  34.558  52.250  0.00  0.00     0.063 C 
ATOM     18  C   UNL d   1      49.297  34.880  52.758  0.00  0.00     0.005 C 
ENDBRANCH  15  17
ENDBRANCH   1  14
TORSDOF 2
ENDMDL
MODEL 2
REMARK VINA RESULT:      -8.9      1.716      3.261
REMARK  2 active torsions:
REMARK  status: ('A' for Active; 'I' for Inactive)
REMARK    1  A    between atoms: N_10  and  C_1 
REMARK       I    between atoms: C_12  and  N_10 
REMARK    2  A    between atoms: C_17  and  C_12 
ROOT
ATOM      1  C   UNL d   1      53.191  31.993  53.178  0.00  0.00     0.197 A 
ATOM      2  C   UNL d   1      52.876  33.260  53.413  0.00  0.00     0.057 A 
ATOM      3  C   UNL d   1      52.812  34.016  53.673  0.00  0.00     0.056 A 
ATOM      4  N   UNL d   1      52.593  32.168  52.674  0.00  0.00    -0.221 NA
ATOM      5  S   UNL d   1      53.397  32.648  53.656  0.00  0.00    -0.046 SA
ATOM      6  N   UNL d   1      52.311  35.243  53.711  0.00  0.00    -0.238 NA
ATOM      7  S   UNL d   1      53.208  34.443  54.238  0.00  0.00    -0.066 SA
ATOM      8  C   UNL d   1      52.389  32.969  52.818  0.00  0.00     0.090 A 
ATOM      9  C   UNL d   1      52.248  34.528  53.345  0.00  0.00     0.088 A 
ATOM     10  C   UNL d   1      52.880  35.240  54.259  0.00  0.00     0.111 A 
ATOM     11  C   UNL d   1      51.823  33.464  52.481  0.00  0.00     0.021 A 
ATOM     12  C   UNL d   1      51.748  34.262  52.748  0.00  0.00     0.021 A 
ATOM     13  C   UNL d   1      53.109  35.878  54.753  0.00  0.00     0.028 C 
ENDROOT
BRANCH   1  14
ATOM     14  N   UNL d   1      53.581  31.233  53.231  0.00  0.00    -0.183 NA
ATOM     15  C   UNL d   1      53.128  30.573  53.402  0.00  0.00     0.281 C 
ATOM     16  O   UNL d   1      52.291  30.707  53.514  0.00  0.00    -0.265 OA
BRANCH  15  17
ATOM     17  C   UNL d   1      53.487  29.873  53.451  0.00  0.00     0.063 C 
ATOM     18  C   UNL d   1      53.189  29.242  54.106  0.00  0.00     0.005 C 
ENDBRANCH  15  17
ENDBRANCH   1  14
TORSDOF 2
ENDMDL
MODEL 3
REMARK VINA RESULT:      -8.5      2.187      3.213
REMARK  2 active torsions:
REMARK  status: ('A' for Active; 'I' for Inactive)
REMARK    1  A    between atoms: N_10  and  C_1 
REMARK       I    between atoms: C_12  and  N_10 
REMARK    2  A    between atoms: C_17  and  C_12 
ROOT
ATOM      1  C   UNL d   1      53.516  31.959  53.448  0.00  0.00     0.197 A 
ATOM      2  C   UNL d   1      53.559  33.159  54.011  0.00  0.00     0.057 A 
ATOM      3  C   UNL d   1      53.434  33.908  54.269  0.00  0.00     0.056 A 
ATOM      4  N   UNL d   1      54.194  31.977  53.876  0.00  0.00    -0.221 NA
ATOM      5  S   UNL d   1      53.092  32.678  53.507  0.00  0.00    -0.046 SA
ATOM      6  N   UNL d   1      53.713  35.018  54.938  0.00  0.00    -0.238 NA
ATOM      7  S   UNL d   1      52.840  34.446  54.142  0.00  0.00    -0.066 SA
ATOM      8  C   UNL d   1      54.227  32.735  54.235  0.00  0.00     0.090 A 
ATOM      9  C   UNL d   1      53.981  34.278  54.772  0.00  0.00     0.088 A 
ATOM     10  C   UNL d   1      53.024  35.167  54.579  0.00  0.00     0.111 A 
ATOM     11  C   UNL d   1      54.780  33.087  54.734  0.00  0.00     0.021 A 
ATOM     12  C   UNL d   1      54.657  33.875  55.011  0.00  0.00     0.021 A 
ATOM     13  C   UNL d   1      52.576  35.874  54.618  0.00  0.00     0.028 C 
ENDROOT
BRANCH   1  14
ATOM     14  N   UNL d   1      53.247  31.292  52.984  0.00  0.00    -0.183 NA
ATOM     15  C   UNL d   1      53.134  30.574  53.360  0.00  0.00     0.281 C 
ATOM     16  O   UNL d   1      53.297  30.558  54.200  0.00  0.00    -0.265 OA
BRANCH  15  17
ATOM     17  C   UNL d   1      52.887  29.960  52.933  0.00  0.00     0.063 C 
ATOM     18  C   UNL d   1      52.575  29.175  53.383  0.00  0.00     0.005 C 
ENDBRANCH  15  17
ENDBRANCH   1  14
TORSDOF 2
ENDMDL
MODEL 4
REMARK VINA RESULT:      -8.4      1.091      1.809
REMARK  2 active torsions:
REMARK  status: ('A' for Active; 'I' for Inactive)
REMARK    1  A    between atoms: N_10  and  C_1 
REMARK       I    between atoms: C_12  and  N_10 
REMARK    2  A    between atoms: C_17  and  C_12 
ROOT
ATOM      1  C   UNL d   1      51.985  33.647  52.730  0.00  0.00     0.197 A 
ATOM      2  C   UNL d   1      52.703  32.616  53.156  0.00  0.00     0.057 A 
ATOM      3  C   UNL d   1      53.021  31.899  53.324  0.00  0.00     0.056 A 
ATOM      4  N   UNL d   1      52.576  33.958  53.174  0.00  0.00    -0.221 NA
ATOM      5  S   UNL d   1      52.029  32.812  52.695  0.00  0.00    -0.046 SA
ATOM      6  N   UNL d   1      53.890  31.061  53.871  0.00  0.00    -0.238 NA
ATOM      7  S   UNL d   1      52.818  31.141  53.119  0.00  0.00    -0.066 SA
ATOM      8  C   UNL d   1      53.034  33.310  53.445  0.00  0.00     0.090 A 
ATOM      9  C   UNL d   1      53.699  31.840  53.798  0.00  0.00     0.088 A 
ATOM     10  C   UNL d   1      53.385  30.599  53.477  0.00  0.00     0.111 A 
ATOM     11  C   UNL d   1      53.708  33.270  53.919  0.00  0.00     0.021 A 
ATOM     12  C   UNL d   1      54.050  32.519  54.101  0.00  0.00     0.021 A 
ATOM     13  C   UNL d   1      53.402  29.762  53.422  0.00  0.00     0.028 C 
ENDROOT
BRANCH   1  14
ATOM     14  N   UNL d   1      51.376  34.101  52.336  0.00  0.00    -0.183 NA
ATOM     15  C   UNL d   1      50.657  34.204  52.715  0.00  0.00     0.281 C 
ATOM     16  O   UNL d   1      50.581  33.839  53.485  0.00  0.00    -0.265 OA
BRANCH  15  17
ATOM     17  C   UNL d   1      50.097  34.622  52.352  0.00  0.00     0.063 C 
ATOM     18  C   UNL d   1      49.351  34.938  52.860  0.00  0.00     0.005 C 
ENDBRANCH  15  17
ENDBRANCH   1  14
TORSDOF 2
ENDMDL
MODEL 5
REMARK VINA RESULT:      -7.8      2.079      3.076
REMARK  2 active torsions:
REMARK  status: ('A' for Active; 'I' for Inactive)
REMARK    1  A    between atoms: N_10  and  C_1 
REMARK       I    between atoms: C_12  and  N_10 
REMARK    2  A    between atoms: C_17  and  C_12 
ROOT
ATOM      1  C   UNL d   1      53.592  32.635  53.729  0.00  0.00     0.197 A 
ATOM      2  C   UNL d   1      53.368  31.328  53.747  0.00  0.00     0.057 A 
ATOM      3  C   UNL d   1      53.310  30.546  53.914  0.00  0.00     0.056 A 
ATOM      4  N   UNL d   1      53.224  32.465  53.036  0.00  0.00    -0.221 NA
ATOM      5  S   UNL d   1      53.700  31.953  54.199  0.00  0.00    -0.046 SA
ATOM      6  N   UNL d   1      52.974  29.284  53.688  0.00  0.00    -0.238 NA
ATOM      7  S   UNL d   1      53.540  30.096  54.549  0.00  0.00    -0.066 SA
ATOM      8  C   UNL d   1      53.080  31.639  53.043  0.00  0.00     0.090 A 
ATOM      9  C   UNL d   1      52.954  30.025  53.375  0.00  0.00     0.088 A 
ATOM     10  C   UNL d   1      53.320  29.276  54.398  0.00  0.00     0.111 A 
ATOM     11  C   UNL d   1      52.723  31.136  52.496  0.00  0.00     0.021 A 
ATOM     12  C   UNL d   1      52.658  30.310  52.663  0.00  0.00     0.021 A 
ATOM     13  C   UNL d   1      53.443  28.610  54.894  0.00  0.00     0.028 C 
ENDROOT
BRANCH   1  14
ATOM     14  N   UNL d   1      53.849  33.416  53.968  0.00  0.00    -0.183 NA
ATOM     15  C   UNL d   1      53.281  33.966  54.179  0.00  0.00     0.281 C 
ATOM     16  O   UNL d   1      52.467  33.704  54.140  0.00  0.00    -0.265 OA
BRANCH  15  17
ATOM     17  C   UNL d   1      53.516  34.685  54.400  0.00  0.00     0.063 C 
ATOM     18  C   UNL d   1      52.889  35.407  54.379  0.00  0.00     0.005 C 
ENDBRANCH  15  17
ENDBRANCH   1  14
TORSDOF 2
ENDMDL
MODEL 6
REMARK VINA RESULT:      -6.2      1.314      3.754
REMARK  2 active torsions:
REMARK  status: ('A' for Active; 'I' for Inactive)
REMARK    1  A    between atoms: N_10  and  C_1 
REMARK       I    between atoms: C_12  and  N_10 
REMARK    2  A    between atoms: C_17  and  C_12 
ROOT
ATOM      1  C   UNL d   1      53.597  33.237  53.668  0.00  0.00     0.197 A 
ATOM      2  C   UNL d   1      52.322  33.365  53.330  0.00  0.00     0.057 A 
ATOM      3  C   UNL d   1      51.580  33.612  53.148  0.00  0.00     0.056 A 
ATOM      4  N   UNL d   1      53.330  32.493  53.533  0.00  0.00    -0.221 NA
ATOM      5  S   UNL d   1      52.998  33.809  53.552  0.00  0.00    -0.046 SA
ATOM      6  N   UNL d   1      50.312  33.468  52.790  0.00  0.00    -0.238 NA
ATOM      7  S   UNL d   1      51.233  34.345  53.114  0.00  0.00    -0.066 SA
ATOM      8  C   UNL d   1      52.522  32.568  53.319  0.00  0.00     0.090 A 
ATOM      9  C   UNL d   1      50.992  33.065  52.942  0.00  0.00     0.088 A 
ATOM     10  C   UNL d   1      50.409  34.247  52.881  0.00  0.00     0.111 A 
ATOM     11  C   UNL d   1      51.950  32.010  53.116  0.00  0.00     0.021 A 
ATOM     12  C   UNL d   1      51.167  32.261  52.923  0.00  0.00     0.021 A 
ATOM     13  C   UNL d   1      49.830  34.844  52.772  0.00  0.00     0.028 C 
ENDROOT
BRANCH   1  14
ATOM     14  N   UNL d   1      54.397  33.435  53.902  0.00  0.00    -0.183 NA
ATOM     15  C   UNL d   1      54.597  33.380  54.694  0.00  0.00     0.281 C 
ATOM     16  O   UNL d   1      53.976  33.123  55.224  0.00  0.00    -0.265 OA
BRANCH  15  17
ATOM     17  C   UNL d   1      55.332  33.562  54.910  0.00  0.00     0.063 C 
ATOM     18  C   UNL d   1      55.474  34.016  55.740  0.00  0.00     0.005 C 
ENDBRANCH  15  17
ENDBRANCH   1  14
TORSDOF 2
ENDMDL
