MODEL 1
REMARK VINA RESULT:      17.3      0.000      0.000
REMARK  5 active torsions:
REMARK  status: ('A' for Active; 'I' for Inactive)
REMARK    1  A    between atoms: C_7  and  C_1 
REMARK    2  A    between atoms: O_13  and  C_7 
REMARK    3  A    between atoms: C_15  and  C_9 
REMARK    4  A    between atoms: C_11  and  C_15 
REMARK    5  A    between atoms: C_18  and  O_13 
ROOT
ATOM      1  C   UNL d   1      13.777  12.536  -2.753  0.00  0.00     0.127 A 
ATOM      2  C   UNL d   1      14.066  13.287  -2.724  0.00  0.00     0.305 A 
ATOM      3  O   UNL d   1      14.459  13.575  -2.034  0.00  0.00    -0.273 OA
ATOM      4  C   UNL d   1      13.858  12.013  -2.095  0.00  0.00     0.013 A 
ATOM      5  C   UNL d   1      14.550  13.077  -1.374  0.00  0.00     0.103 A 
ATOM      6  C   UNL d   1      14.244  12.280  -1.405  0.00  0.00     0.023 A 
ATOM      7  O   UNL d   1      13.972  13.793  -3.399  0.00  0.00    -0.259 OA
ATOM      8  C   UNL d   1      14.930  13.342  -0.695  0.00  0.00     0.023 A 
ATOM      9  C   UNL d   1      14.329  11.779  -0.756  0.00  0.00     0.002 A 
ATOM     10  C   UNL d   1      14.723  12.067  -0.065  0.00  0.00     0.000 A 
ATOM     11  C   UNL d   1      15.011  12.818  -0.036  0.00  0.00     0.002 A 
ENDROOT
BRANCH   1  12
ATOM     12  C   UNL d   1      13.409  12.325  -3.452  0.00  0.00     0.305 C 
ATOM     13  O   UNL d   1      12.770  11.780  -3.443  0.00  0.00    -0.259 OA
BRANCH  12  14
ATOM     14  O   UNL d   1      13.639  12.627  -4.196  0.00  0.00    -0.271 OA
BRANCH  14  15
ATOM     15  C   UNL d   1      13.340  12.282  -4.905  0.00  0.00     0.126 C 
ATOM     16  C   UNL d   1      13.675  12.500  -5.624  0.00  0.00     0.029 C 
ENDBRANCH  14  15
ENDBRANCH  12  14
ENDBRANCH   1  12
BRANCH   8  17
ATOM     17  C   UNL d   1      15.224  14.107  -0.664  0.00  0.00     0.002 C 
BRANCH  17  18
ATOM     18  C   UNL d   1      15.030  14.606  -0.021  0.00  0.00     0.000 C 
ATOM     19  C   UNL d   1      15.269  15.392  -0.022  0.00  0.00     0.000 C 
ENDBRANCH  17  18
ENDBRANCH   8  17
TORSDOF 5
ENDMDL
MODEL 2
REMARK VINA RESULT:      19.0      9.273      9.849
REMARK  5 active torsions:
REMARK  status: ('A' for Active; 'I' for Inactive)
REMARK    1  A    between atoms: C_7  and  C_1 
REMARK    2  A    between atoms: O_13  and  C_7 
REMARK    3  A    between atoms: C_15  and  C_9 
REMARK    4  A    between atoms: C_11  and  C_15 
REMARK    5  A    between atoms: C_18  and  O_13 
ROOT
ATOM      1  C   UNL d   1      24.276  12.590  -3.005  0.00  0.00     0.127 A 
ATOM      2  C   UNL d   1      23.769  13.185  -2.814  0.00  0.00     0.305 A 
ATOM      3  O   UNL d   1      23.567  13.343  -2.009  0.00  0.00    -0.273 OA
ATOM      4  C   UNL d   1      24.623  12.105  -2.406  0.00  0.00     0.013 A 
ATOM      5  C   UNL d   1      23.897  12.878  -1.403  0.00  0.00     0.103 A 
ATOM      6  C   UNL d   1      24.435  12.247  -1.606  0.00  0.00     0.023 A 
ATOM      7  O   UNL d   1      23.434  13.657  -3.434  0.00  0.00    -0.259 OA
ATOM      8  C   UNL d   1      23.711  13.019  -0.615  0.00  0.00     0.023 A 
ATOM      9  C   UNL d   1      24.767  11.780  -1.012  0.00  0.00     0.002 A 
ATOM     10  C   UNL d   1      24.565  11.939  -0.206  0.00  0.00     0.000 A 
ATOM     11  C   UNL d   1      24.058  12.534  -0.015  0.00  0.00     0.002 A 
ENDROOT
BRANCH   1  12
ATOM     12  C   UNL d   1      24.426  12.493  -3.802  0.00  0.00     0.305 C 
ATOM     13  O   UNL d   1      24.768  11.780  -4.083  0.00  0.00    -0.259 OA
BRANCH  12  14
ATOM     14  O   UNL d   1      24.254  13.081  -4.371  0.00  0.00    -0.271 OA
BRANCH  14  15
ATOM     15  C   UNL d   1      24.542  13.004  -5.160  0.00  0.00     0.126 C 
ATOM     16  C   UNL d   1      24.754  13.684  -5.572  0.00  0.00     0.029 C 
ENDBRANCH  14  15
ENDBRANCH  12  14
ENDBRANCH   1  12
BRANCH   8  17
ATOM     17  C   UNL d   1      23.194  13.626  -0.420  0.00  0.00     0.002 C 
BRANCH  17  18
ATOM     18  C   UNL d   1      22.371  13.529  -0.541  0.00  0.00     0.000 C 
ATOM     19  C   UNL d   1      21.837  13.864  -0.014  0.00  0.00     0.000 C 
ENDBRANCH  17  18
ENDBRANCH   8  17
TORSDOF 5
ENDMDL
