MODEL 1
REMARK VINA RESULT:      -4.8      0.000      0.000
REMARK  5 active torsions:
REMARK  status: ('A' for Active; 'I' for Inactive)
REMARK    1  A    between atoms: N_10  and  C_2 
REMARK    2  A    between atoms: C_13  and  C_3 
REMARK    3  A    between atoms: C_5  and  S_14 
REMARK       I    between atoms: C_12  and  N_10 
REMARK    4  A    between atoms: C_18  and  C_12 
REMARK    5  A    between atoms: S_14  and  C_18 
ROOT
ATOM      1  N   UNL d   1      58.332   0.274  31.278  0.00  0.00    -0.051 NA
ATOM      2  C   UNL d   1      58.607   0.555  30.553  0.00  0.00     0.760 A 
ATOM      3  C   UNL d   1      57.513   0.227  31.242  0.00  0.00     0.147 A 
ATOM      4  N   UNL d   1      57.968   0.682  30.068  0.00  0.00    -0.019 NA
ATOM      5  S   UNL d   1      57.280   0.480  30.488  0.00  0.00     0.052 SA
ENDROOT
BRANCH   2   6
ATOM      6  N   UNL d   1      59.399   0.682  30.360  0.00  0.00    -0.018 NA
ATOM      7  C   UNL d   1      59.792   0.168  29.849  0.00  0.00     0.302 C 
ATOM      8  O   UNL d   1      60.578   0.293  29.657  0.00  0.00    -0.264 OA
BRANCH   7   9
ATOM      9  C   UNL d   1      59.386  -0.483  29.526  0.00  0.00     0.100 C 
BRANCH   9  10
ATOM     10  S   UNL d   1      59.751  -0.951  28.960  0.00  0.00    -0.054 SA
BRANCH  10  11
ATOM     11  C   UNL d   1      59.488  -1.716  28.824  0.00  0.00     0.164 A 
ATOM     12  S   UNL d   1      59.907  -2.403  28.985  0.00  0.00    -0.039 SA
ATOM     13  C   UNL d   1      59.436  -3.046  28.763  0.00  0.00     0.134 A 
ATOM     14  C   UNL d   1      59.651  -3.844  28.833  0.00  0.00     0.030 C 
ATOM     15  N   UNL d   1      58.731  -2.753  28.466  0.00  0.00    -0.140 NA
ATOM     16  N   UNL d   1      58.762  -1.926  28.504  0.00  0.00    -0.134 NA
ENDBRANCH  10  11
ENDBRANCH   9  10
ENDBRANCH   7   9
ENDBRANCH   2   6
BRANCH   3  17
ATOM     17  C   UNL d   1      56.978  -0.022  31.825  0.00  0.00     0.026 A 
ATOM     18  C   UNL d   1      56.699   0.517  32.380  0.00  0.00     0.002 A 
ATOM     19  C   UNL d   1      56.169   0.275  32.960  0.00  0.00     0.000 A 
ATOM     20  C   UNL d   1      55.916  -0.510  32.985  0.00  0.00     0.000 A 
ATOM     21  C   UNL d   1      56.200  -1.059  32.420  0.00  0.00     0.000 A 
ATOM     22  C   UNL d   1      55.385  -0.756  33.565  0.00  0.00     0.000 C 
ATOM     23  C   UNL d   1      56.732  -0.809  31.840  0.00  0.00     0.002 A 
ENDBRANCH   3  17
TORSDOF 5
ENDMDL
MODEL 2
REMARK VINA RESULT:      -3.5      1.079      1.277
REMARK  5 active torsions:
REMARK  status: ('A' for Active; 'I' for Inactive)
REMARK    1  A    between atoms: N_10  and  C_2 
REMARK    2  A    between atoms: C_13  and  C_3 
REMARK    3  A    between atoms: C_5  and  S_14 
REMARK       I    between atoms: C_12  and  N_10 
REMARK    4  A    between atoms: C_18  and  C_12 
REMARK    5  A    between atoms: S_14  and  C_18 
ROOT
ATOM      1  N   UNL d   1      57.018   0.563  31.006  0.00  0.00    -0.051 NA
ATOM      2  C   UNL d   1      57.712   0.565  30.560  0.00  0.00     0.760 A 
ATOM      3  C   UNL d   1      57.219   0.445  31.794  0.00  0.00     0.147 A 
ATOM      4  N   UNL d   1      58.340   0.450  31.062  0.00  0.00    -0.019 NA
ATOM      5  S   UNL d   1      58.044   0.373  31.834  0.00  0.00     0.052 SA
ENDROOT
BRANCH   2   6
ATOM      6  N   UNL d   1      57.753   0.667  29.743  0.00  0.00    -0.018 NA
ATOM      7  C   UNL d   1      58.117   0.100  29.269  0.00  0.00     0.302 C 
ATOM      8  O   UNL d   1      58.159   0.200  28.457  0.00  0.00    -0.264 OA
BRANCH   7   9
ATOM      9  C   UNL d   1      58.446  -0.580  29.618  0.00  0.00     0.100 C 
BRANCH   9  10
ATOM     10  S   UNL d   1      59.011  -1.015  29.213  0.00  0.00    -0.054 SA
BRANCH  10  11
ATOM     11  C   UNL d   1      58.998  -1.835  29.236  0.00  0.00     0.164 A 
ATOM     12  S   UNL d   1      59.590  -2.333  28.964  0.00  0.00    -0.039 SA
ATOM     13  C   UNL d   1      59.348  -3.113  29.096  0.00  0.00     0.134 A 
ATOM     14  C   UNL d   1      59.786  -3.789  28.901  0.00  0.00     0.030 C 
ATOM     15  N   UNL d   1      58.609  -3.091  29.449  0.00  0.00    -0.140 NA
ATOM     16  N   UNL d   1      58.390  -2.297  29.537  0.00  0.00    -0.134 NA
ENDBRANCH  10  11
ENDBRANCH   9  10
ENDBRANCH   7   9
ENDBRANCH   2   6
BRANCH   3  17
ATOM     17  C   UNL d   1      56.724   0.399  32.458  0.00  0.00     0.026 A 
ATOM     18  C   UNL d   1      55.908   0.362  32.358  0.00  0.00     0.002 A 
ATOM     19  C   UNL d   1      55.414   0.317  33.012  0.00  0.00     0.000 A 
ATOM     20  C   UNL d   1      55.736   0.307  33.772  0.00  0.00     0.000 A 
ATOM     21  C   UNL d   1      56.567   0.344  33.874  0.00  0.00     0.000 A 
ATOM     22  C   UNL d   1      55.244   0.261  34.431  0.00  0.00     0.000 C 
ATOM     23  C   UNL d   1      57.058   0.390  33.212  0.00  0.00     0.002 A 
ENDBRANCH   3  17
TORSDOF 5
ENDMDL
