MODEL 1
REMARK VINA RESULT:      37.4      0.000      0.000
REMARK  10 active torsions:
REMARK  status: ('A' for Active; 'I' for Inactive)
REMARK    1  A    between atoms: C_18  and  N_1 
REMARK    2  A    between atoms: S_7  and  C_2 
REMARK       I    between atoms: C_6  and  N_14 
REMARK    3  A    between atoms: C_9  and  C_6 
REMARK    4  A    between atoms: C_15  and  S_7 
REMARK    5  A    between atoms: C_8  and  C_15 
REMARK       I    between atoms: N_10  and  C_8 
REMARK    6  A    between atoms: C_19  and  N_10 
REMARK    7  A    between atoms: N_14  and  C_25 
REMARK    8  A    between atoms: C_25  and  C_18 
REMARK    9  A    between atoms: C_23  and  C_19 
REMARK   10  A    between atoms: O_27  and  C_20 
ROOT
ATOM      1  N   UNL d   1      46.329 -18.218  41.670  0.00  0.00    -0.302 N 
ATOM      2  C   UNL d   1      46.139 -18.003  42.985  0.00  0.00     0.049 A 
ATOM      3  C   UNL d   1      46.155 -17.635  42.241  0.00  0.00     0.087 A 
ATOM      4  C   UNL d   1      46.301 -18.812  42.875  0.00  0.00     0.024 A 
ATOM      5  C   UNL d   1      46.418 -18.943  42.064  0.00  0.00     0.065 A 
ATOM      6  C   UNL d   1      46.358 -19.446  43.406  0.00  0.00     0.002 A 
ATOM      7  C   UNL d   1      46.591 -19.701  41.784  0.00  0.00     0.018 A 
ATOM      8  C   UNL d   1      46.530 -20.199  43.127  0.00  0.00     0.000 A 
ATOM      9  C   UNL d   1      46.647 -20.330  42.316  0.00  0.00     0.002 A 
ENDROOT
BRANCH   1  10
ATOM     10  C   UNL d   1      46.398 -18.094  40.857  0.00  0.00     0.101 C 
BRANCH  10  11
ATOM     11  C   UNL d   1      45.725 -17.957  40.403  0.00  0.00     0.121 C 
BRANCH  11  12
ATOM     12  N   UNL d   1      45.766 -17.459  39.747  0.00  0.00    -0.205 NA
ATOM     13  C   UNL d   1      45.098 -17.335  39.277  0.00  0.00     0.279 C 
ATOM     14  O   UNL d   1      44.387 -17.713  39.467  0.00  0.00    -0.265 OA
BRANCH  13  15
ATOM     15  C   UNL d   1      45.139 -16.838  38.621  0.00  0.00     0.058 A 
ATOM     16  C   UNL d   1      45.879 -16.541  38.365  0.00  0.00     0.007 A 
ATOM     17  C   UNL d   1      45.918 -16.045  37.709  0.00  0.00     0.024 A 
ATOM     18  C   UNL d   1      45.218 -15.848  37.313  0.00  0.00     0.094 A 
ATOM     19  C   UNL d   1      44.491 -16.138  37.563  0.00  0.00     0.024 A 
ATOM     20  C   UNL d   1      44.455 -16.633  38.217  0.00  0.00     0.007 A 
BRANCH  18  21
ATOM     21  O   UNL d   1      45.246 -15.343  36.645  0.00  0.00    -0.328 OA
ATOM     22  C   UNL d   1      45.020 -14.550  36.695  0.00  0.00     0.181 C 
ENDBRANCH  18  21
ENDBRANCH  13  15
ENDBRANCH  11  12
ENDBRANCH  10  11
ENDBRANCH   1  10
BRANCH   2  23
ATOM     23  S   UNL d   1      45.988 -17.636  43.709  0.00  0.00    -0.080 SA
BRANCH  23  24
ATOM     24  C   UNL d   1      46.276 -16.870  43.845  0.00  0.00     0.098 C 
BRANCH  24  25
ATOM     25  C   UNL d   1      45.870 -16.365  44.355  0.00  0.00     0.286 C 
ATOM     26  N   UNL d   1      46.095 -15.575  44.424  0.00  0.00    -0.204 NA
ATOM     27  O   UNL d   1      45.236 -16.649  44.799  0.00  0.00    -0.265 OA
BRANCH  26  28
ATOM     28  C   UNL d   1      45.687 -15.069  44.936  0.00  0.00     0.127 C 
BRANCH  28  29
ATOM     29  C   UNL d   1      45.610 -14.282  44.755  0.00  0.00     0.119 A 
ATOM     30  O   UNL d   1      46.200 -13.769  44.509  0.00  0.00    -0.304 OA
ATOM     31  C   UNL d   1      45.874 -13.020  44.387  0.00  0.00     0.123 A 
ATOM     32  C   UNL d   1      45.068 -13.066  44.558  0.00  0.00     0.029 A 
ATOM     33  C   UNL d   1      44.908 -13.835  44.782  0.00  0.00     0.028 A 
ENDBRANCH  28  29
ENDBRANCH  26  28
ENDBRANCH  24  25
ENDBRANCH  23  24
ENDBRANCH   2  23
TORSDOF 10
ENDMDL
