MODEL 1
REMARK VINA RESULT:      -8.6      0.000      0.000
REMARK  5 active torsions:
REMARK  status: ('A' for Active; 'I' for Inactive)
REMARK    1  A    between atoms: N_2  and  C_1 
REMARK    2  A    between atoms: N_3  and  C_1 
REMARK       I    between atoms: C_4  and  N_3 
REMARK    3  A    between atoms: C_11  and  C_4 
REMARK    4  A    between atoms: O_7  and  C_11 
REMARK    5  A    between atoms: C_8  and  O_7 
ROOT
ATOM      1  N   UNL d   1      51.681  33.382  53.462  0.00  0.00    -0.178 NA
ATOM      2  C   UNL d   1      50.920  33.428  53.131  0.00  0.00     0.304 C 
ATOM      3  O   UNL d   1      50.377  32.824  53.259  0.00  0.00    -0.263 OA
ENDROOT
BRANCH   2   4
ATOM      4  C   UNL d   1      50.707  34.081  52.671  0.00  0.00     0.158 C 
ATOM      5  C   UNL d   1      51.019  34.167  51.917  0.00  0.00     0.032 C 
BRANCH   4   6
ATOM      6  O   UNL d   1      50.183  34.643  52.968  0.00  0.00    -0.301 OA
BRANCH   6   7
ATOM      7  C   UNL d   1      49.503  34.840  52.555  0.00  0.00     0.111 A 
ATOM      8  C   UNL d   1      48.928  35.333  52.887  0.00  0.00     0.081 A 
ATOM      9  C   UNL d   1      48.247  35.526  52.466  0.00  0.00     0.025 A 
ATOM     10 CL   UNL d   1      49.037  35.634  53.648  0.00  0.00    -0.080 Cl
ATOM     11  C   UNL d   1      48.135  35.229  51.711  0.00  0.00     0.059 A 
ATOM     12  C   UNL d   1      48.710  34.733  51.370  0.00  0.00     0.013 A 
ATOM     13 CL   UNL d   1      47.441  35.424  51.276  0.00  0.00    -0.082 Cl
ATOM     14  C   UNL d   1      49.389  34.540  51.791  0.00  0.00     0.026 A 
ENDBRANCH   6   7
ENDBRANCH   4   6
ENDBRANCH   2   4
BRANCH   1  15
ATOM     15  C   UNL d   1      52.224  33.986  53.334  0.00  0.00     0.209 C 
ATOM     16  S   UNL d   1      52.257  34.362  52.596  0.00  0.00    -0.038 SA
BRANCH  15  17
ATOM     17  N   UNL d   1      52.739  34.222  53.935  0.00  0.00    -0.282 N 
ATOM     18  C   UNL d   1      53.393  33.815  54.205  0.00  0.00     0.066 A 
ATOM     19  C   UNL d   1      53.742  34.255  54.807  0.00  0.00     0.018 A 
ATOM     20  C   UNL d   1      53.718  33.089  53.974  0.00  0.00     0.018 A 
ATOM     21  C   UNL d   1      54.420  33.972  55.184  0.00  0.00     0.002 A 
ATOM     22  C   UNL d   1      53.305  34.934  54.911  0.00  0.00     0.021 A 
ATOM     23  C   UNL d   1      54.754  33.244  54.959  0.00  0.00     0.000 A 
ATOM     24  C   UNL d   1      54.404  32.804  54.356  0.00  0.00     0.002 A 
ATOM     25  C   UNL d   1      52.680  34.922  54.373  0.00  0.00     0.082 A 
ENDBRANCH  15  17
ENDBRANCH   1  15
TORSDOF 5
ENDMDL
MODEL 2
REMARK VINA RESULT:      -7.8      1.897      4.979
REMARK  5 active torsions:
REMARK  status: ('A' for Active; 'I' for Inactive)
REMARK    1  A    between atoms: N_2  and  C_1 
REMARK    2  A    between atoms: N_3  and  C_1 
REMARK       I    between atoms: C_4  and  N_3 
REMARK    3  A    between atoms: C_11  and  C_4 
REMARK    4  A    between atoms: O_7  and  C_11 
REMARK    5  A    between atoms: C_8  and  O_7 
ROOT
ATOM      1  N   UNL d   1      50.989  34.430  52.134  0.00  0.00    -0.178 NA
ATOM      2  C   UNL d   1      51.769  34.258  52.366  0.00  0.00     0.304 C 
ATOM      3  O   UNL d   1      52.400  34.481  51.890  0.00  0.00    -0.263 OA
ENDROOT
BRANCH   2   4
ATOM      4  C   UNL d   1      51.912  33.860  53.077  0.00  0.00     0.158 C 
ATOM      5  C   UNL d   1      51.791  33.049  53.121  0.00  0.00     0.032 C 
BRANCH   4   6
ATOM      6  O   UNL d   1      52.174  34.276  53.738  0.00  0.00    -0.301 OA
BRANCH   6   7
ATOM      7  C   UNL d   1      52.854  34.046  54.133  0.00  0.00     0.111 A 
ATOM      8  C   UNL d   1      53.236  34.557  54.658  0.00  0.00     0.081 A 
ATOM      9  C   UNL d   1      53.921  34.318  55.052  0.00  0.00     0.025 A 
ATOM     10 CL   UNL d   1      52.931  35.312  54.791  0.00  0.00    -0.080 Cl
ATOM     11  C   UNL d   1      54.227  33.570  54.923  0.00  0.00     0.059 A 
ATOM     12  C   UNL d   1      53.847  33.051  54.395  0.00  0.00     0.013 A 
ATOM     13 CL   UNL d   1      54.925  33.323  55.322  0.00  0.00    -0.082 Cl
ATOM     14  C   UNL d   1      53.165  33.289  54.003  0.00  0.00     0.026 A 
ENDBRANCH   6   7
ENDBRANCH   4   6
ENDBRANCH   2   4
BRANCH   1  15
ATOM     15  C   UNL d   1      50.358  34.207  52.610  0.00  0.00     0.209 C 
ATOM     16  S   UNL d   1      50.384  33.486  53.019  0.00  0.00    -0.038 SA
BRANCH  15  17
ATOM     17  N   UNL d   1      49.695  34.694  52.686  0.00  0.00    -0.282 N 
ATOM     18  C   UNL d   1      49.112  34.814  52.129  0.00  0.00     0.066 A 
ATOM     19  C   UNL d   1      48.561  35.342  52.439  0.00  0.00     0.018 A 
ATOM     20  C   UNL d   1      49.011  34.503  51.367  0.00  0.00     0.018 A 
ATOM     21  C   UNL d   1      47.905  35.565  51.990  0.00  0.00     0.002 A 
ATOM     22  C   UNL d   1      48.804  35.550  53.188  0.00  0.00     0.021 A 
ATOM     23  C   UNL d   1      47.796  35.258  51.225  0.00  0.00     0.000 A 
ATOM     24  C   UNL d   1      48.347  34.730  50.914  0.00  0.00     0.002 A 
ATOM     25  C   UNL d   1      49.508  35.152  53.350  0.00  0.00     0.082 A 
ENDBRANCH  15  17
ENDBRANCH   1  15
TORSDOF 5
ENDMDL
MODEL 3
REMARK VINA RESULT:      -7.0      2.996      4.479
REMARK  5 active torsions:
REMARK  status: ('A' for Active; 'I' for Inactive)
REMARK    1  A    between atoms: N_2  and  C_1 
REMARK    2  A    between atoms: N_3  and  C_1 
REMARK       I    between atoms: C_4  and  N_3 
REMARK    3  A    between atoms: C_11  and  C_4 
REMARK    4  A    between atoms: O_7  and  C_11 
REMARK    5  A    between atoms: C_8  and  O_7 
ROOT
ATOM      1  N   UNL d   1      54.418  31.852  53.558  0.00  0.00    -0.178 NA
ATOM      2  C   UNL d   1      54.542  32.669  53.647  0.00  0.00     0.304 C 
ATOM      3  O   UNL d   1      55.150  33.042  53.238  0.00  0.00    -0.263 OA
ENDROOT
BRANCH   2   4
ATOM      4  C   UNL d   1      54.054  33.111  54.148  0.00  0.00     0.158 C 
ATOM      5  C   UNL d   1      54.209  33.129  54.954  0.00  0.00     0.032 C 
BRANCH   4   6
ATOM      6  O   UNL d   1      53.416  33.531  53.840  0.00  0.00    -0.301 OA
BRANCH   6   7
ATOM      7  C   UNL d   1      53.254  34.292  54.097  0.00  0.00     0.111 A 
ATOM      8  C   UNL d   1      52.738  34.783  53.678  0.00  0.00     0.081 A 
ATOM      9  C   UNL d   1      52.580  35.548  53.943  0.00  0.00     0.025 A 
ATOM     10 CL   UNL d   1      52.379  34.508  52.988  0.00  0.00    -0.080 Cl
ATOM     11  C   UNL d   1      52.934  35.825  54.626  0.00  0.00     0.059 A 
ATOM     12  C   UNL d   1      53.454  35.335  55.053  0.00  0.00     0.013 A 
ATOM     13 CL   UNL d   1      52.775  36.605  54.900  0.00  0.00    -0.082 Cl
ATOM     14  C   UNL d   1      53.612  34.574  54.789  0.00  0.00     0.026 A 
ENDBRANCH   6   7
ENDBRANCH   4   6
ENDBRANCH   2   4
BRANCH   1  15
ATOM     15  C   UNL d   1      53.811  31.480  53.968  0.00  0.00     0.209 C 
ATOM     16  S   UNL d   1      53.630  31.714  54.742  0.00  0.00    -0.038 SA
BRANCH  15  17
ATOM     17  N   UNL d   1      53.377  30.872  53.614  0.00  0.00    -0.282 N 
ATOM     18  C   UNL d   1      53.317  30.101  53.874  0.00  0.00     0.066 A 
ATOM     19  C   UNL d   1      52.829  29.689  53.354  0.00  0.00     0.018 A 
ATOM     20  C   UNL d   1      53.650  29.718  54.529  0.00  0.00     0.018 A 
ATOM     21  C   UNL d   1      52.669  28.890  53.484  0.00  0.00     0.002 A 
ATOM     22  C   UNL d   1      52.587  30.205  52.772  0.00  0.00     0.021 A 
ATOM     23  C   UNL d   1      52.999  28.496  54.139  0.00  0.00     0.000 A 
ATOM     24  C   UNL d   1      53.487  28.908  54.659  0.00  0.00     0.002 A 
ATOM     25  C   UNL d   1      52.923  30.942  52.926  0.00  0.00     0.082 A 
ENDBRANCH  15  17
ENDBRANCH   1  15
TORSDOF 5
ENDMDL
MODEL 4
REMARK VINA RESULT:      -6.7      2.908      5.056
REMARK  5 active torsions:
REMARK  status: ('A' for Active; 'I' for Inactive)
REMARK    1  A    between atoms: N_2  and  C_1 
REMARK    2  A    between atoms: N_3  and  C_1 
REMARK       I    between atoms: C_4  and  N_3 
REMARK    3  A    between atoms: C_11  and  C_4 
REMARK    4  A    between atoms: O_7  and  C_11 
REMARK    5  A    between atoms: C_8  and  O_7 
ROOT
ATOM      1  N   UNL d   1      53.859  33.592  53.345  0.00  0.00    -0.178 NA
ATOM      2  C   UNL d   1      54.202  32.859  53.534  0.00  0.00     0.304 C 
ATOM      3  O   UNL d   1      54.990  32.713  53.353  0.00  0.00    -0.263 OA
ENDROOT
BRANCH   2   4
ATOM      4  C   UNL d   1      53.752  32.274  53.907  0.00  0.00     0.158 C 
ATOM      5  C   UNL d   1      53.673  32.280  54.723  0.00  0.00     0.032 C 
BRANCH   4   6
ATOM      6  O   UNL d   1      53.384  31.688  53.460  0.00  0.00    -0.301 OA
BRANCH   6   7
ATOM      7  C   UNL d   1      53.373  30.911  53.719  0.00  0.00     0.111 A 
ATOM      8  C   UNL d   1      53.071  30.306  53.243  0.00  0.00     0.081 A 
ATOM      9  C   UNL d   1      53.063  29.526  53.511  0.00  0.00     0.025 A 
ATOM     10 CL   UNL d   1      52.776  30.482  52.494  0.00  0.00    -0.080 Cl
ATOM     11  C   UNL d   1      53.356  29.346  54.254  0.00  0.00     0.059 A 
ATOM     12  C   UNL d   1      53.661  29.951  54.738  0.00  0.00     0.013 A 
ATOM     13 CL   UNL d   1      53.350  28.551  54.532  0.00  0.00    -0.082 Cl
ATOM     14  C   UNL d   1      53.669  30.727  54.471  0.00  0.00     0.026 A 
ENDBRANCH   6   7
ENDBRANCH   4   6
ENDBRANCH   2   4
BRANCH   1  15
ATOM     15  C   UNL d   1      53.071  33.738  53.526  0.00  0.00     0.209 C 
ATOM     16  S   UNL d   1      52.796  33.617  54.299  0.00  0.00    -0.038 SA
BRANCH  15  17
ATOM     17  N   UNL d   1      52.548  34.006  52.945  0.00  0.00    -0.282 N 
ATOM     18  C   UNL d   1      51.734  34.006  52.985  0.00  0.00     0.066 A 
ATOM     19  C   UNL d   1      51.440  34.322  52.283  0.00  0.00     0.018 A 
ATOM     20  C   UNL d   1      51.215  33.755  53.580  0.00  0.00     0.018 A 
ATOM     21  C   UNL d   1      50.625  34.389  52.170  0.00  0.00     0.002 A 
ATOM     22  C   UNL d   1      52.073  34.517  51.808  0.00  0.00     0.021 A 
ATOM     23  C   UNL d   1      50.097  34.140  52.763  0.00  0.00     0.000 A 
ATOM     24  C   UNL d   1      50.391  33.824  53.465  0.00  0.00     0.002 A 
ATOM     25  C   UNL d   1      52.766  34.324  52.212  0.00  0.00     0.082 A 
ENDBRANCH  15  17
ENDBRANCH   1  15
TORSDOF 5
ENDMDL
MODEL 5
REMARK VINA RESULT:      -6.5      1.417      2.010
REMARK  5 active torsions:
REMARK  status: ('A' for Active; 'I' for Inactive)
REMARK    1  A    between atoms: N_2  and  C_1 
REMARK    2  A    between atoms: N_3  and  C_1 
REMARK       I    between atoms: C_4  and  N_3 
REMARK    3  A    between atoms: C_11  and  C_4 
REMARK    4  A    between atoms: O_7  and  C_11 
REMARK    5  A    between atoms: C_8  and  O_7 
ROOT
ATOM      1  N   UNL d   1      52.100  33.588  52.332  0.00  0.00    -0.178 NA
ATOM      2  C   UNL d   1      51.539  34.161  52.112  0.00  0.00     0.304 C 
ATOM      3  O   UNL d   1      51.661  34.624  51.445  0.00  0.00    -0.263 OA
ENDROOT
BRANCH   2   4
ATOM      4  C   UNL d   1      50.854  34.266  52.564  0.00  0.00     0.158 C 
ATOM      5  C   UNL d   1      50.913  34.560  53.328  0.00  0.00     0.032 C 
BRANCH   4   6
ATOM      6  O   UNL d   1      50.117  34.075  52.250  0.00  0.00    -0.301 OA
BRANCH   6   7
ATOM      7  C   UNL d   1      49.491  34.600  52.306  0.00  0.00     0.111 A 
ATOM      8  C   UNL d   1      48.940  34.676  51.695  0.00  0.00     0.081 A 
ATOM      9  C   UNL d   1      48.312  35.207  51.760  0.00  0.00     0.025 A 
ATOM     10 CL   UNL d   1      49.018  34.218  51.013  0.00  0.00    -0.080 Cl
ATOM     11  C   UNL d   1      48.230  35.663  52.435  0.00  0.00     0.059 A 
ATOM     12  C   UNL d   1      48.782  35.591  53.054  0.00  0.00     0.013 A 
ATOM     13 CL   UNL d   1      47.591  36.206  52.505  0.00  0.00    -0.082 Cl
ATOM     14  C   UNL d   1      49.407  35.062  52.989  0.00  0.00     0.026 A 
ENDBRANCH   6   7
ENDBRANCH   4   6
ENDBRANCH   2   4
BRANCH   1  15
ATOM     15  C   UNL d   1      51.978  33.125  52.999  0.00  0.00     0.209 C 
ATOM     16  S   UNL d   1      51.212  33.034  53.304  0.00  0.00    -0.038 SA
BRANCH  15  17
ATOM     17  N   UNL d   1      52.612  32.747  53.370  0.00  0.00    -0.282 N 
ATOM     18  C   UNL d   1      52.826  31.964  53.292  0.00  0.00     0.066 A 
ATOM     19  C   UNL d   1      53.490  31.829  53.762  0.00  0.00     0.018 A 
ATOM     20  C   UNL d   1      52.496  31.349  52.845  0.00  0.00     0.018 A 
ATOM     21  C   UNL d   1      53.829  31.077  53.789  0.00  0.00     0.002 A 
ATOM     22  C   UNL d   1      53.686  32.528  54.131  0.00  0.00     0.021 A 
ATOM     23  C   UNL d   1      53.504  30.453  53.344  0.00  0.00     0.000 A 
ATOM     24  C   UNL d   1      52.841  30.588  52.874  0.00  0.00     0.002 A 
ATOM     25  C   UNL d   1      53.145  33.104  53.893  0.00  0.00     0.082 A 
ENDBRANCH  15  17
ENDBRANCH   1  15
TORSDOF 5
ENDMDL
MODEL 6
REMARK VINA RESULT:      -5.7      3.397      5.088
REMARK  5 active torsions:
REMARK  status: ('A' for Active; 'I' for Inactive)
REMARK    1  A    between atoms: N_2  and  C_1 
REMARK    2  A    between atoms: N_3  and  C_1 
REMARK       I    between atoms: C_4  and  N_3 
REMARK    3  A    between atoms: C_11  and  C_4 
REMARK    4  A    between atoms: O_7  and  C_11 
REMARK    5  A    between atoms: C_8  and  O_7 
ROOT
ATOM      1  N   UNL d   1      52.994  32.551  53.198  0.00  0.00    -0.178 NA
ATOM      2  C   UNL d   1      52.821  31.739  53.167  0.00  0.00     0.304 C 
ATOM      3  O   UNL d   1      52.113  31.480  52.840  0.00  0.00    -0.263 OA
ENDROOT
BRANCH   2   4
ATOM      4  C   UNL d   1      53.360  31.188  53.466  0.00  0.00     0.158 C 
ATOM      5  C   UNL d   1      53.999  30.954  53.007  0.00  0.00     0.032 C 
BRANCH   4   6
ATOM      6  O   UNL d   1      53.257  30.875  54.220  0.00  0.00    -0.301 OA
BRANCH   6   7
ATOM      7  C   UNL d   1      53.315  30.068  54.350  0.00  0.00     0.111 A 
ATOM      8  C   UNL d   1      53.327  29.757  55.115  0.00  0.00     0.081 A 
ATOM      9  C   UNL d   1      53.386  28.943  55.237  0.00  0.00     0.025 A 
ATOM     10 CL   UNL d   1      53.280  30.264  55.764  0.00  0.00    -0.080 Cl
ATOM     11  C   UNL d   1      53.434  28.437  54.596  0.00  0.00     0.059 A 
ATOM     12  C   UNL d   1      53.422  28.743  53.822  0.00  0.00     0.013 A 
ATOM     13 CL   UNL d   1      53.494  27.606  54.715  0.00  0.00    -0.082 Cl
ATOM     14  C   UNL d   1      53.363  29.554  53.701  0.00  0.00     0.026 A 
ENDBRANCH   6   7
ENDBRANCH   4   6
ENDBRANCH   2   4
BRANCH   1  15
ATOM     15  C   UNL d   1      53.702  32.810  53.525  0.00  0.00     0.209 C 
ATOM     16  S   UNL d   1      54.420  32.487  53.264  0.00  0.00    -0.038 SA
BRANCH  15  17
ATOM     17  N   UNL d   1      53.706  33.390  54.112  0.00  0.00    -0.282 N 
ATOM     18  C   UNL d   1      53.359  34.127  54.072  0.00  0.00     0.066 A 
ATOM     19  C   UNL d   1      53.502  34.520  54.782  0.00  0.00     0.018 A 
ATOM     20  C   UNL d   1      52.924  34.494  53.470  0.00  0.00     0.018 A 
ATOM     21  C   UNL d   1      53.211  35.284  54.896  0.00  0.00     0.002 A 
ATOM     22  C   UNL d   1      53.938  34.027  55.262  0.00  0.00     0.021 A 
ATOM     23  C   UNL d   1      52.773  35.661  54.297  0.00  0.00     0.000 A 
ATOM     24  C   UNL d   1      52.630  35.268  53.587  0.00  0.00     0.002 A 
ATOM     25  C   UNL d   1      54.070  33.322  54.853  0.00  0.00     0.082 A 
ENDBRANCH  15  17
ENDBRANCH   1  15
TORSDOF 5
ENDMDL
