MODEL 1
REMARK VINA RESULT:      -8.7      0.000      0.000
REMARK  5 active torsions:
REMARK  status: ('A' for Active; 'I' for Inactive)
REMARK    1  A    between atoms: C_4  and  C_1 
REMARK    2  A    between atoms: C_5  and  C_2 
REMARK    3  A    between atoms: N_6  and  C_4 
REMARK    4  A    between atoms: C_25  and  N_10 
REMARK    5  A    between atoms: C_21  and  C_25 
ROOT
ATOM      1  N   UNL d   1      48.444  34.470  50.697  0.00  0.00    -0.191 NA
ATOM      2  C   UNL d   1      49.174  34.370  51.070  0.00  0.00     0.103 C 
ATOM      3  C   UNL d   1      49.902  34.269  51.439  0.00  0.00     0.097 C 
ENDROOT
BRANCH   3   4
ATOM      4  C   UNL d   1      49.972  34.401  52.245  0.00  0.00     0.091 C 
BRANCH   4   5
ATOM      5  N   UNL d   1      50.679  34.220  52.636  0.00  0.00    -0.299 N 
ATOM      6  C   UNL d   1      50.654  33.841  53.367  0.00  0.00     0.100 A 
ATOM      7  C   UNL d   1      51.356  33.660  53.760  0.00  0.00     0.100 A 
ATOM      8  N   UNL d   1      52.082  33.858  53.421  0.00  0.00    -0.291 N 
ATOM      9  C   UNL d   1      52.111  34.238  52.688  0.00  0.00     0.100 A 
ATOM     10  C   UNL d   1      51.403  34.418  52.297  0.00  0.00     0.100 A 
BRANCH   8  11
ATOM     11  C   UNL d   1      52.777  33.676  53.813  0.00  0.00     0.143 C 
ATOM     12  S   UNL d   1      53.114  34.221  54.331  0.00  0.00    -0.057 SA
BRANCH  11  13
ATOM     13  C   UNL d   1      53.143  32.945  53.694  0.00  0.00     0.126 A 
ATOM     14  O   UNL d   1      52.799  32.204  53.793  0.00  0.00    -0.305 OA
ATOM     15  C   UNL d   1      53.363  31.626  53.614  0.00  0.00     0.101 A 
ATOM     16  C   UNL d   1      54.061  32.018  53.403  0.00  0.00     0.027 A 
ATOM     17  C   UNL d   1      53.923  32.831  53.453  0.00  0.00     0.029 A 
BRANCH  15  18
ATOM     18  C   UNL d   1      53.254  30.809  53.639  0.00  0.00     0.034 A 
ATOM     19  C   UNL d   1      53.019  30.412  52.959  0.00  0.00     0.060 A 
ATOM     20  C   UNL d   1      52.908  29.594  52.978  0.00  0.00     0.012 A 
ATOM     21 CL   UNL d   1      52.892  30.830  52.256  0.00  0.00    -0.082 Cl
ATOM     22  C   UNL d   1      53.036  29.176  53.684  0.00  0.00     0.012 A 
ATOM     23  C   UNL d   1      53.275  29.588  54.368  0.00  0.00     0.058 A 
ATOM     24  C   UNL d   1      53.382  30.403  54.339  0.00  0.00     0.014 A 
ATOM     25 CL   UNL d   1      53.401  29.169  55.071  0.00  0.00    -0.082 Cl
ENDBRANCH  15  18
ENDBRANCH  11  13
ENDBRANCH   8  11
ENDBRANCH   4   5
ENDBRANCH   3   4
TORSDOF 5
ENDMDL
MODEL 2
REMARK VINA RESULT:      -6.8      2.208      4.667
REMARK  5 active torsions:
REMARK  status: ('A' for Active; 'I' for Inactive)
REMARK    1  A    between atoms: C_4  and  C_1 
REMARK    2  A    between atoms: C_5  and  C_2 
REMARK    3  A    between atoms: N_6  and  C_4 
REMARK    4  A    between atoms: C_25  and  N_10 
REMARK    5  A    between atoms: C_21  and  C_25 
ROOT
ATOM      1  N   UNL d   1      53.324  28.471  54.421  0.00  0.00    -0.191 NA
ATOM      2  C   UNL d   1      53.290  29.226  54.088  0.00  0.00     0.103 C 
ATOM      3  C   UNL d   1      53.253  29.977  53.756  0.00  0.00     0.097 C 
ENDROOT
BRANCH   3   4
ATOM      4  C   UNL d   1      53.914  30.463  53.771  0.00  0.00     0.091 C 
BRANCH   4   5
ATOM      5  N   UNL d   1      53.830  31.277  53.892  0.00  0.00    -0.299 N 
ATOM      6  C   UNL d   1      53.377  31.550  54.524  0.00  0.00     0.100 A 
ATOM      7  C   UNL d   1      53.291  32.361  54.646  0.00  0.00     0.100 A 
ATOM      8  N   UNL d   1      53.657  32.897  54.137  0.00  0.00    -0.291 N 
ATOM      9  C   UNL d   1      54.111  32.627  53.502  0.00  0.00     0.100 A 
ATOM     10  C   UNL d   1      54.195  31.812  53.383  0.00  0.00     0.100 A 
BRANCH   8  11
ATOM     11  C   UNL d   1      53.569  33.701  54.262  0.00  0.00     0.143 C 
ATOM     12  S   UNL d   1      54.013  34.081  54.843  0.00  0.00    -0.057 SA
BRANCH  11  13
ATOM     13  C   UNL d   1      53.035  34.137  53.807  0.00  0.00     0.126 A 
ATOM     14  O   UNL d   1      52.266  33.916  53.611  0.00  0.00    -0.305 OA
ATOM     15  C   UNL d   1      51.930  34.515  53.150  0.00  0.00     0.101 A 
ATOM     16  C   UNL d   1      52.500  35.109  53.062  0.00  0.00     0.027 A 
ATOM     17  C   UNL d   1      53.180  34.874  53.468  0.00  0.00     0.029 A 
BRANCH  15  18
ATOM     18  C   UNL d   1      51.169  34.522  52.833  0.00  0.00     0.034 A 
ATOM     19  C   UNL d   1      51.045  34.229  52.075  0.00  0.00     0.060 A 
ATOM     20  C   UNL d   1      50.285  34.233  51.752  0.00  0.00     0.012 A 
ATOM     21 CL   UNL d   1      51.679  33.929  51.636  0.00  0.00    -0.082 Cl
ATOM     22  C   UNL d   1      49.650  34.534  52.195  0.00  0.00     0.012 A 
ATOM     23  C   UNL d   1      49.787  34.829  52.961  0.00  0.00     0.058 A 
ATOM     24  C   UNL d   1      50.547  34.820  53.274  0.00  0.00     0.014 A 
ATOM     25 CL   UNL d   1      49.151  35.129  53.401  0.00  0.00    -0.082 Cl
ENDBRANCH  15  18
ENDBRANCH  11  13
ENDBRANCH   8  11
ENDBRANCH   4   5
ENDBRANCH   3   4
TORSDOF 5
ENDMDL
MODEL 3
REMARK VINA RESULT:      -5.7      2.414      3.376
REMARK  5 active torsions:
REMARK  status: ('A' for Active; 'I' for Inactive)
REMARK    1  A    between atoms: C_4  and  C_1 
REMARK    2  A    between atoms: C_5  and  C_2 
REMARK    3  A    between atoms: N_6  and  C_4 
REMARK    4  A    between atoms: C_25  and  N_10 
REMARK    5  A    between atoms: C_21  and  C_25 
ROOT
ATOM      1  N   UNL d   1      46.072  36.681  52.550  0.00  0.00    -0.191 NA
ATOM      2  C   UNL d   1      46.767  36.275  52.371  0.00  0.00     0.103 C 
ATOM      3  C   UNL d   1      47.459  35.867  52.190  0.00  0.00     0.097 C 
ENDROOT
BRANCH   3   4
ATOM      4  C   UNL d   1      48.148  36.031  52.603  0.00  0.00     0.091 C 
BRANCH   4   5
ATOM      5  N   UNL d   1      48.752  35.467  52.645  0.00  0.00    -0.299 N 
ATOM      6  C   UNL d   1      49.121  35.319  53.366  0.00  0.00     0.100 A 
ATOM      7  C   UNL d   1      49.724  34.757  53.411  0.00  0.00     0.100 A 
ATOM      8  N   UNL d   1      49.956  34.345  52.734  0.00  0.00    -0.291 N 
ATOM      9  C   UNL d   1      49.588  34.491  52.010  0.00  0.00     0.100 A 
ATOM     10  C   UNL d   1      48.983  35.056  51.969  0.00  0.00     0.100 A 
BRANCH   8  11
ATOM     11  C   UNL d   1      50.554  33.789  52.783  0.00  0.00     0.143 C 
ATOM     12  S   UNL d   1      50.387  32.990  52.664  0.00  0.00    -0.057 SA
BRANCH  11  13
ATOM     13  C   UNL d   1      51.328  34.023  52.951  0.00  0.00     0.126 A 
ATOM     14  O   UNL d   1      51.748  33.860  53.640  0.00  0.00    -0.305 OA
ATOM     15  C   UNL d   1      52.500  34.199  53.575  0.00  0.00     0.101 A 
ATOM     16  C   UNL d   1      52.540  34.574  52.838  0.00  0.00     0.027 A 
ATOM     17  C   UNL d   1      51.816  34.464  52.455  0.00  0.00     0.029 A 
BRANCH  15  18
ATOM     18  C   UNL d   1      53.102  34.172  54.138  0.00  0.00     0.034 A 
ATOM     19  C   UNL d   1      53.325  34.863  54.524  0.00  0.00     0.060 A 
ATOM     20  C   UNL d   1      53.927  34.842  55.088  0.00  0.00     0.012 A 
ATOM     21 CL   UNL d   1      52.948  35.578  54.348  0.00  0.00    -0.082 Cl
ATOM     22  C   UNL d   1      54.304  34.123  55.264  0.00  0.00     0.012 A 
ATOM     23  C   UNL d   1      54.071  33.429  54.867  0.00  0.00     0.058 A 
ATOM     24  C   UNL d   1      53.470  33.460  54.306  0.00  0.00     0.014 A 
ATOM     25 CL   UNL d   1      54.448  32.713  55.044  0.00  0.00    -0.082 Cl
ENDBRANCH  15  18
ENDBRANCH  11  13
ENDBRANCH   8  11
ENDBRANCH   4   5
ENDBRANCH   3   4
TORSDOF 5
ENDMDL
