MODEL 1
REMARK VINA RESULT:      22.4      0.000      0.000
REMARK  3 active torsions:
REMARK  status: ('A' for Active; 'I' for Inactive)
REMARK    1  A    between atoms: C_10  and  C_4 
REMARK    2  A    between atoms: S_9  and  C_10 
REMARK    3  A    between atoms: C_11  and  S_9 
ROOT
ATOM      1  C   UNL d   1      58.849  49.705  51.067  0.00  0.00     0.056 C 
ENDROOT
BRANCH   1   2
ATOM      2  S   UNL d   1      59.575  49.680  50.719  0.00  0.00    -0.085 SA
BRANCH   2   3
ATOM      3  C   UNL d   1      60.253  49.648  51.189  0.00  0.00     0.030 A 
ATOM      4  C   UNL d   1      60.183  49.558  52.004  0.00  0.00     0.007 A 
ATOM      5  C   UNL d   1      60.870  49.528  52.461  0.00  0.00     0.012 A 
ATOM      6  C   UNL d   1      61.614  49.585  52.119  0.00  0.00     0.058 A 
ATOM      7  C   UNL d   1      61.673  49.676  51.302  0.00  0.00     0.012 A 
ATOM      8 CL   UNL d   1      62.296  49.553  52.590  0.00  0.00    -0.082 Cl
ATOM      9  C   UNL d   1      60.999  49.707  50.835  0.00  0.00     0.007 A 
ENDBRANCH   2   3
ENDBRANCH   1   2
BRANCH   1  10
ATOM     10  C   UNL d   1      58.182  49.679  50.607  0.00  0.00     0.107 A 
ATOM     11  N   UNL d   1      57.388  49.677  50.891  0.00  0.00    -0.220 NA
ATOM     12  C   UNL d   1      56.869  49.645  50.218  0.00  0.00     0.180 A 
ATOM     13  N   UNL d   1      57.354  49.628  49.515  0.00  0.00    -0.282 N 
ATOM     14  S   UNL d   1      56.054  49.625  49.972  0.00  0.00    -0.048 SA
ATOM     15  C   UNL d   1      58.163  49.649  49.767  0.00  0.00     0.102 A 
ATOM     16  C   UNL d   1      56.834  49.597  48.841  0.00  0.00     0.089 A 
ATOM     17  C   UNL d   1      56.033  49.595  49.127  0.00  0.00     0.057 A 
ENDBRANCH   1  10
TORSDOF 3
ENDMDL
