MODEL 1
REMARK VINA RESULT:      60.9      0.000      0.000
REMARK  4 active torsions:
REMARK  status: ('A' for Active; 'I' for Inactive)
REMARK    1  A    between atoms: C_6  and  C_1 
REMARK    2  A    between atoms: N_4  and  C_2 
REMARK       I    between atoms: C_3  and  N_4 
REMARK       I    between atoms: N_9  and  C_3 
REMARK    3  A    between atoms: C_15  and  N_9 
REMARK    4  A    between atoms: C_23  and  C_15 
ROOT
ATOM      1  C   UNL d   1     -58.176 -98.898 -43.902  0.00  0.00     0.040 A 
ATOM      2  C   UNL d   1     -58.878 -98.814 -44.897  0.00  0.00     0.109 A 
ATOM      3  C   UNL d   1     -57.920 -98.849 -44.516  0.00  0.00     0.035 A 
ATOM      4  C   UNL d   1     -57.902 -98.956 -43.197  0.00  0.00    -0.023 A 
ATOM      5  C   UNL d   1     -59.226 -98.906 -43.746  0.00  0.00     0.013 A 
ATOM      6  C   UNL d   1     -58.677 -98.924 -43.545  0.00  0.00    -0.011 A 
ATOM      7  C   UNL d   1     -59.955 -98.879 -44.042  0.00  0.00     0.025 A 
ATOM      8  C   UNL d   1     -58.384 -98.867 -44.275  0.00  0.00    -0.005 A 
ATOM      9  C   UNL d   1     -59.663 -98.820 -44.780  0.00  0.00     0.031 A 
ATOM     10  C   UNL d   1     -59.462 -98.930 -43.429  0.00  0.00    -0.027 A 
ENDROOT
BRANCH   2  11
ATOM     11  N   UNL d   1     -59.300 -98.755 -45.604  0.00  0.00    -0.217 NA
ATOM     12  C   UNL d   1     -59.255 -99.356 -46.164  0.00  0.00     0.360 C 
ATOM     13  N   UNL d   1     -59.673 -99.304 -46.871  0.00  0.00    -0.214 NA
ATOM     14  O   UNL d   1     -58.783-100.025 -46.014  0.00  0.00    -0.243 OA
BRANCH  13  15
ATOM     15  C   UNL d   1     -59.628 -99.912 -47.437  0.00  0.00     0.147 C 
ATOM     16  C   UNL d   1     -59.412 -99.282 -47.933  0.00  0.00     0.033 C 
ATOM     17  C   UNL d   1     -59.845-100.534 -46.938  0.00  0.00     0.033 C 
BRANCH  15  18
ATOM     18  C   UNL d   1     -59.582-100.511 -48.007  0.00  0.00     0.229 C 
ATOM     19  O   UNL d   1     -59.960-100.412 -48.737  0.00  0.00    -0.286 OA
ENDBRANCH  15  18
ENDBRANCH  13  15
ENDBRANCH   2  11
BRANCH   1  20
ATOM     20  C   UNL d   1     -57.438 -98.873 -44.251  0.00  0.00    -0.019 A 
ATOM     21  C   UNL d   1     -57.366 -98.781 -45.074  0.00  0.00    -0.004 A 
ATOM     22  C   UNL d   1     -56.622 -98.755 -45.429  0.00  0.00    -0.000 A 
ATOM     23  C   UNL d   1     -55.938 -98.822 -44.960  0.00  0.00    -0.000 A 
ATOM     24  C   UNL d   1     -56.014 -98.913 -44.143  0.00  0.00    -0.000 A 
ATOM     25  C   UNL d   1     -55.191 -98.797 -45.312  0.00  0.00    -0.000 C 
ATOM     26  C   UNL d   1     -56.759 -98.939 -43.789  0.00  0.00    -0.004 A 
ENDBRANCH   1  20
TORSDOF 4
ENDMDL
MODEL 2
REMARK VINA RESULT:      62.6      2.568      4.719
REMARK  4 active torsions:
REMARK  status: ('A' for Active; 'I' for Inactive)
REMARK    1  A    between atoms: C_6  and  C_1 
REMARK    2  A    between atoms: N_4  and  C_2 
REMARK       I    between atoms: C_3  and  N_4 
REMARK       I    between atoms: N_9  and  C_3 
REMARK    3  A    between atoms: C_15  and  N_9 
REMARK    4  A    between atoms: C_23  and  C_15 
ROOT
ATOM      1  C   UNL d   1     -56.512 -99.012 -45.026  0.00  0.00     0.040 A 
ATOM      2  C   UNL d   1     -55.703 -99.399 -44.197  0.00  0.00     0.109 A 
ATOM      3  C   UNL d   1     -56.677 -99.124 -44.389  0.00  0.00     0.035 A 
ATOM      4  C   UNL d   1     -56.869 -98.779 -45.653  0.00  0.00    -0.023 A 
ATOM      5  C   UNL d   1     -55.518 -99.166 -45.366  0.00  0.00     0.013 A 
ATOM      6  C   UNL d   1     -56.075 -99.012 -45.459  0.00  0.00    -0.011 A 
ATOM      7  C   UNL d   1     -54.775 -99.377 -45.214  0.00  0.00     0.025 A 
ATOM      8  C   UNL d   1     -56.261 -99.147 -44.705  0.00  0.00    -0.005 A 
ATOM      9  C   UNL d   1     -54.959 -99.515 -44.452  0.00  0.00     0.031 A 
ATOM     10  C   UNL d   1     -55.331 -99.128 -45.714  0.00  0.00    -0.027 A 
ENDROOT
BRANCH   2  11
ATOM     11  N   UNL d   1     -55.202 -99.660 -43.595  0.00  0.00    -0.217 NA
ATOM     12  C   UNL d   1     -55.259-100.432 -43.315  0.00  0.00     0.360 C 
ATOM     13  N   UNL d   1     -54.763-100.699 -42.715  0.00  0.00    -0.214 NA
ATOM     14  O   UNL d   1     -55.823-100.948 -43.643  0.00  0.00    -0.243 OA
BRANCH  13  15
ATOM     15  C   UNL d   1     -54.820-101.479 -42.431  0.00  0.00     0.147 C 
ATOM     16  C   UNL d   1     -54.854-101.652 -43.243  0.00  0.00     0.033 C 
ATOM     17  C   UNL d   1     -54.786-101.298 -41.625  0.00  0.00     0.033 C 
BRANCH  15  18
ATOM     18  C   UNL d   1     -54.877-102.258 -42.157  0.00  0.00     0.229 C 
ATOM     19  O   UNL d   1     -54.848-102.409 -41.344  0.00  0.00    -0.286 OA
ENDBRANCH  15  18
ENDBRANCH  13  15
ENDBRANCH   2  11
BRANCH   1  20
ATOM     20  C   UNL d   1     -57.178 -98.966 -44.556  0.00  0.00    -0.019 A 
ATOM     21  C   UNL d   1     -57.122 -99.083 -43.735  0.00  0.00    -0.004 A 
ATOM     22  C   UNL d   1     -57.794 -99.037 -43.260  0.00  0.00    -0.000 A 
ATOM     23  C   UNL d   1     -58.534 -98.872 -43.603  0.00  0.00    -0.000 A 
ATOM     24  C   UNL d   1     -58.584 -98.756 -44.418  0.00  0.00    -0.000 A 
ATOM     25  C   UNL d   1     -59.209 -98.825 -43.129  0.00  0.00    -0.000 C 
ATOM     26  C   UNL d   1     -57.911 -98.802 -44.894  0.00  0.00    -0.004 A 
ENDBRANCH   1  20
TORSDOF 4
ENDMDL
