MODEL 1
REMARK VINA RESULT:      -6.1      0.000      0.000
REMARK  9 active torsions:
REMARK  status: ('A' for Active; 'I' for Inactive)
REMARK       I    between atoms: N_2  and  C_1 
REMARK    1  A    between atoms: C_16  and  C_1 
REMARK    2  A    between atoms: C_8  and  N_2 
REMARK    3  A    between atoms: N_4  and  C_3 
REMARK    4  A    between atoms: C_17  and  N_4 
REMARK    5  A    between atoms: C_18  and  N_4 
REMARK    6  A    between atoms: C_12  and  O_14 
REMARK    7  A    between atoms: O_14  and  C_21 
REMARK    8  A    between atoms: C_23  and  C_16 
REMARK    9  A    between atoms: C_21  and  C_23 
ROOT
ATOM      1  C   UNL d   1     -44.244  12.682  21.945  0.00  0.00     0.328 C 
ATOM      2  N   UNL d   1     -45.018  12.943  22.119  0.00  0.00    -0.365 NA
ATOM      3  O   UNL d   1     -43.930  12.044  22.351  0.00  0.00    -0.251 OA
ENDROOT
BRANCH   1   4
ATOM      4  C   UNL d   1     -43.803  13.064  21.371  0.00  0.00     0.078 C 
BRANCH   4   5
ATOM      5  C   UNL d   1     -42.984  13.042  21.395  0.00  0.00     0.033 C 
BRANCH   5   6
ATOM      6  C   UNL d   1     -42.530  13.627  21.016  0.00  0.00     0.123 C 
BRANCH   6   7
ATOM      7  O   UNL d   1     -41.706  13.596  21.048  0.00  0.00    -0.305 OA
BRANCH   7   8
ATOM      8  C   UNL d   1     -41.270  14.201  20.701  0.00  0.00     0.100 A 
ATOM      9  C   UNL d   1     -40.880  14.059  19.962  0.00  0.00     0.025 A 
ATOM     10  C   UNL d   1     -40.438  14.678  19.615  0.00  0.00     0.002 A 
ATOM     11  C   UNL d   1     -40.065  14.528  18.899  0.00  0.00     0.000 C 
ATOM     12  C   UNL d   1     -40.379  15.412  19.974  0.00  0.00     0.000 A 
ATOM     13  C   UNL d   1     -40.758  15.552  20.692  0.00  0.00     0.002 A 
ATOM     14  C   UNL d   1     -41.210  14.946  21.065  0.00  0.00     0.025 A 
ENDBRANCH   7   8
ENDBRANCH   6   7
ENDBRANCH   5   6
ENDBRANCH   4   5
ENDBRANCH   1   4
BRANCH   2  15
ATOM     15  C   UNL d   1     -45.779  13.204  22.285  0.00  0.00     0.135 A 
ATOM     16  C   UNL d   1     -45.917  13.768  22.874  0.00  0.00     0.034 A 
ATOM     17  C   UNL d   1     -46.671  14.022  23.032  0.00  0.00     0.020 A 
ATOM     18  C   UNL d   1     -47.311  13.725  22.612  0.00  0.00     0.064 A 
ATOM     19  C   UNL d   1     -47.184  13.156  22.015  0.00  0.00     0.020 A 
ATOM     20  C   UNL d   1     -46.419  12.894  21.849  0.00  0.00     0.034 A 
BRANCH  18  21
ATOM     21  N   UNL d   1     -48.083  13.981  22.770  0.00  0.00    -0.304 N 
BRANCH  21  22
ATOM     22  C   UNL d   1     -48.238  14.800  22.827  0.00  0.00     0.080 C 
ATOM     23  C   UNL d   1     -48.875  15.129  22.418  0.00  0.00     0.021 C 
ENDBRANCH  21  22
BRANCH  21  24
ATOM     24  C   UNL d   1     -48.696  13.445  22.871  0.00  0.00     0.080 C 
ATOM     25  C   UNL d   1     -49.247  13.562  23.467  0.00  0.00     0.021 C 
ENDBRANCH  21  24
ENDBRANCH  18  21
ENDBRANCH   2  15
TORSDOF 9
ENDMDL
MODEL 2
REMARK VINA RESULT:      -5.6      0.701      1.044
REMARK  9 active torsions:
REMARK  status: ('A' for Active; 'I' for Inactive)
REMARK       I    between atoms: N_2  and  C_1 
REMARK    1  A    between atoms: C_16  and  C_1 
REMARK    2  A    between atoms: C_8  and  N_2 
REMARK    3  A    between atoms: N_4  and  C_3 
REMARK    4  A    between atoms: C_17  and  N_4 
REMARK    5  A    between atoms: C_18  and  N_4 
REMARK    6  A    between atoms: C_12  and  O_14 
REMARK    7  A    between atoms: O_14  and  C_21 
REMARK    8  A    between atoms: C_23  and  C_16 
REMARK    9  A    between atoms: C_21  and  C_23 
ROOT
ATOM      1  C   UNL d   1     -43.787  12.564  21.832  0.00  0.00     0.328 C 
ATOM      2  N   UNL d   1     -44.578  12.679  22.074  0.00  0.00    -0.365 NA
ATOM      3  O   UNL d   1     -43.383  11.894  22.075  0.00  0.00    -0.251 OA
ENDROOT
BRANCH   1   4
ATOM      4  C   UNL d   1     -43.420  13.118  21.356  0.00  0.00     0.078 C 
BRANCH   4   5
ATOM      5  C   UNL d   1     -42.603  13.166  21.332  0.00  0.00     0.033 C 
BRANCH   5   6
ATOM      6  C   UNL d   1     -42.224  13.817  20.978  0.00  0.00     0.123 C 
BRANCH   6   7
ATOM      7  O   UNL d   1     -41.401  13.876  20.995  0.00  0.00    -0.305 OA
BRANCH   7   8
ATOM      8  C   UNL d   1     -41.038  14.512  20.620  0.00  0.00     0.100 A 
ATOM      9  C   UNL d   1     -40.670  14.394  19.866  0.00  0.00     0.025 A 
ATOM     10  C   UNL d   1     -40.303  15.044  19.491  0.00  0.00     0.002 A 
ATOM     11  C   UNL d   1     -39.950  14.916  18.761  0.00  0.00     0.000 C 
ATOM     12  C   UNL d   1     -40.295  15.787  19.837  0.00  0.00     0.000 A 
ATOM     13  C   UNL d   1     -40.653  15.904  20.570  0.00  0.00     0.002 A 
ATOM     14  C   UNL d   1     -41.030  15.266  20.971  0.00  0.00     0.025 A 
ENDBRANCH   7   8
ENDBRANCH   6   7
ENDBRANCH   5   6
ENDBRANCH   4   5
ENDBRANCH   1   4
BRANCH   2  15
ATOM     15  C   UNL d   1     -45.357  12.798  22.307  0.00  0.00     0.135 A 
ATOM     16  C   UNL d   1     -45.834  13.360  21.931  0.00  0.00     0.034 A 
ATOM     17  C   UNL d   1     -46.602  13.472  22.166  0.00  0.00     0.020 A 
ATOM     18  C   UNL d   1     -46.921  13.033  22.782  0.00  0.00     0.064 A 
ATOM     19  C   UNL d   1     -46.450  12.464  23.170  0.00  0.00     0.020 A 
ATOM     20  C   UNL d   1     -45.668  12.344  22.935  0.00  0.00     0.034 A 
BRANCH  18  21
ATOM     21  N   UNL d   1     -47.704  13.145  23.026  0.00  0.00    -0.304 N 
BRANCH  21  22
ATOM     22  C   UNL d   1     -48.218  12.488  23.064  0.00  0.00     0.080 C 
ATOM     23  C   UNL d   1     -48.743  12.410  23.695  0.00  0.00     0.021 C 
ENDBRANCH  21  22
BRANCH  21  24
ATOM     24  C   UNL d   1     -47.983  13.889  23.231  0.00  0.00     0.080 C 
ATOM     25  C   UNL d   1     -48.714  14.141  22.959  0.00  0.00     0.021 C 
ENDBRANCH  21  24
ENDBRANCH  18  21
ENDBRANCH   2  15
TORSDOF 9
ENDMDL
MODEL 3
REMARK VINA RESULT:      -5.3      1.593      6.643
REMARK  9 active torsions:
REMARK  status: ('A' for Active; 'I' for Inactive)
REMARK       I    between atoms: N_2  and  C_1 
REMARK    1  A    between atoms: C_16  and  C_1 
REMARK    2  A    between atoms: C_8  and  N_2 
REMARK    3  A    between atoms: N_4  and  C_3 
REMARK    4  A    between atoms: C_17  and  N_4 
REMARK    5  A    between atoms: C_18  and  N_4 
REMARK    6  A    between atoms: C_12  and  O_14 
REMARK    7  A    between atoms: O_14  and  C_21 
REMARK    8  A    between atoms: C_23  and  C_16 
REMARK    9  A    between atoms: C_21  and  C_23 
ROOT
ATOM      1  C   UNL d   1     -43.024  12.928  21.384  0.00  0.00     0.328 C 
ATOM      2  N   UNL d   1     -42.415  13.412  21.078  0.00  0.00    -0.365 NA
ATOM      3  O   UNL d   1     -42.852  12.164  21.623  0.00  0.00    -0.251 OA
ENDROOT
BRANCH   1   4
ATOM      4  C   UNL d   1     -43.786  13.218  21.443  0.00  0.00     0.078 C 
BRANCH   4   5
ATOM      5  C   UNL d   1     -44.332  12.851  21.931  0.00  0.00     0.033 C 
BRANCH   5   6
ATOM      6  C   UNL d   1     -45.088  13.177  22.047  0.00  0.00     0.123 C 
BRANCH   6   7
ATOM      7  O   UNL d   1     -45.512  13.005  22.734  0.00  0.00    -0.305 OA
BRANCH   7   8
ATOM      8  C   UNL d   1     -46.298  13.244  22.788  0.00  0.00     0.100 A 
ATOM      9  C   UNL d   1     -46.901  12.660  22.905  0.00  0.00     0.025 A 
ATOM     10  C   UNL d   1     -47.697  12.909  22.959  0.00  0.00     0.002 A 
ATOM     11  C   UNL d   1     -48.272  12.333  23.072  0.00  0.00     0.000 C 
ATOM     12  C   UNL d   1     -47.900  13.700  22.903  0.00  0.00     0.000 A 
ATOM     13  C   UNL d   1     -47.315  14.270  22.790  0.00  0.00     0.002 A 
ATOM     14  C   UNL d   1     -46.504  14.047  22.731  0.00  0.00     0.025 A 
ENDBRANCH   7   8
ENDBRANCH   6   7
ENDBRANCH   5   6
ENDBRANCH   4   5
ENDBRANCH   1   4
BRANCH   2  15
ATOM     15  C   UNL d   1     -41.822  13.893  20.777  0.00  0.00     0.135 A 
ATOM     16  C   UNL d   1     -41.657  14.630  21.115  0.00  0.00     0.034 A 
ATOM     17  C   UNL d   1     -41.069  15.100  20.812  0.00  0.00     0.020 A 
ATOM     18  C   UNL d   1     -40.627  14.856  20.165  0.00  0.00     0.064 A 
ATOM     19  C   UNL d   1     -40.784  14.114  19.815  0.00  0.00     0.020 A 
ATOM     20  C   UNL d   1     -41.380  13.631  20.119  0.00  0.00     0.034 A 
BRANCH  18  21
ATOM     21  N   UNL d   1     -40.026  15.332  19.852  0.00  0.00    -0.304 N 
BRANCH  21  22
ATOM     22  C   UNL d   1     -40.221  15.916  19.288  0.00  0.00     0.080 C 
ATOM     23  C   UNL d   1     -39.846  15.922  18.554  0.00  0.00     0.021 C 
ENDBRANCH  21  22
BRANCH  21  24
ATOM     24  C   UNL d   1     -39.245  15.239  20.087  0.00  0.00     0.080 C 
ATOM     25  C   UNL d   1     -38.787  15.899  20.250  0.00  0.00     0.021 C 
ENDBRANCH  21  24
ENDBRANCH  18  21
ENDBRANCH   2  15
TORSDOF 9
ENDMDL
MODEL 4
REMARK VINA RESULT:      -4.1      1.439      6.639
REMARK  9 active torsions:
REMARK  status: ('A' for Active; 'I' for Inactive)
REMARK       I    between atoms: N_2  and  C_1 
REMARK    1  A    between atoms: C_16  and  C_1 
REMARK    2  A    between atoms: C_8  and  N_2 
REMARK    3  A    between atoms: N_4  and  C_3 
REMARK    4  A    between atoms: C_17  and  N_4 
REMARK    5  A    between atoms: C_18  and  N_4 
REMARK    6  A    between atoms: C_12  and  O_14 
REMARK    7  A    between atoms: O_14  and  C_21 
REMARK    8  A    between atoms: C_23  and  C_16 
REMARK    9  A    between atoms: C_21  and  C_23 
ROOT
ATOM      1  C   UNL d   1     -43.802  12.990  21.721  0.00  0.00     0.328 C 
ATOM      2  N   UNL d   1     -43.108  13.345  21.422  0.00  0.00    -0.365 NA
ATOM      3  O   UNL d   1     -43.769  12.232  22.030  0.00  0.00    -0.251 OA
ENDROOT
BRANCH   1   4
ATOM      4  C   UNL d   1     -44.511  13.398  21.704  0.00  0.00     0.078 C 
BRANCH   4   5
ATOM      5  C   UNL d   1     -45.070  13.280  22.290  0.00  0.00     0.033 C 
BRANCH   5   6
ATOM      6  C   UNL d   1     -45.866  13.495  22.171  0.00  0.00     0.123 C 
BRANCH   6   7
ATOM      7  O   UNL d   1     -46.392  13.501  22.806  0.00  0.00    -0.305 OA
BRANCH   7   8
ATOM      8  C   UNL d   1     -47.197  13.582  22.657  0.00  0.00     0.100 A 
ATOM      9  C   UNL d   1     -47.574  14.325  22.813  0.00  0.00     0.025 A 
ATOM     10  C   UNL d   1     -48.392  14.402  22.659  0.00  0.00     0.002 A 
ATOM     11  C   UNL d   1     -48.745  15.126  22.814  0.00  0.00     0.000 C 
ATOM     12  C   UNL d   1     -48.830  13.776  22.363  0.00  0.00     0.000 A 
ATOM     13  C   UNL d   1     -48.465  13.052  22.211  0.00  0.00     0.002 A 
ATOM     14  C   UNL d   1     -47.641  12.947  22.357  0.00  0.00     0.025 A 
ENDBRANCH   7   8
ENDBRANCH   6   7
ENDBRANCH   5   6
ENDBRANCH   4   5
ENDBRANCH   1   4
BRANCH   2  15
ATOM     15  C   UNL d   1     -42.430  13.701  21.126  0.00  0.00     0.135 A 
ATOM     16  C   UNL d   1     -41.894  13.277  20.660  0.00  0.00     0.034 A 
ATOM     17  C   UNL d   1     -41.226  13.635  20.371  0.00  0.00     0.020 A 
ATOM     18  C   UNL d   1     -41.067  14.424  20.534  0.00  0.00     0.064 A 
ATOM     19  C   UNL d   1     -41.601  14.863  21.004  0.00  0.00     0.020 A 
ATOM     20  C   UNL d   1     -42.282  14.504  21.301  0.00  0.00     0.034 A 
BRANCH  18  21
ATOM     21  N   UNL d   1     -40.387  14.794  20.242  0.00  0.00    -0.304 N 
BRANCH  21  22
ATOM     22  C   UNL d   1     -39.647  14.619  20.586  0.00  0.00     0.080 C 
ATOM     23  C   UNL d   1     -39.197  15.221  20.927  0.00  0.00     0.021 C 
ENDBRANCH  21  22
BRANCH  21  24
ATOM     24  C   UNL d   1     -40.428  15.328  19.620  0.00  0.00     0.080 C 
ATOM     25  C   UNL d   1     -39.949  15.227  18.962  0.00  0.00     0.021 C 
ENDBRANCH  21  24
ENDBRANCH  18  21
ENDBRANCH   2  15
TORSDOF 9
ENDMDL
