MODEL 1
REMARK VINA RESULT:      10.7      0.000      0.000
REMARK  2 active torsions:
REMARK  status: ('A' for Active; 'I' for Inactive)
REMARK    1  A    between atoms: C_6  and  N_1 
REMARK    2  A    between atoms: C_7  and  C_6 
ROOT
ATOM      1  N   UNL d   1      13.707  12.086  -2.401  0.00  0.00    -0.287 N 
ATOM      2  N   UNL d   1      14.943  12.505  -2.076  0.00  0.00    -0.224 NA
ATOM      3  C   UNL d   1      14.427  12.381  -2.688  0.00  0.00     0.183 A 
ATOM      4  C   UNL d   1      13.775  12.023  -1.574  0.00  0.00     0.083 A 
ATOM      5  C   UNL d   1      14.561  12.289  -1.367  0.00  0.00     0.099 A 
ATOM      6  C   UNL d   1      13.284  11.780  -0.977  0.00  0.00     0.019 A 
ATOM      7  C   UNL d   1      14.774  12.284  -0.586  0.00  0.00     0.021 A 
ATOM      8  C   UNL d   1      13.503  11.779  -0.220  0.00  0.00     0.002 A 
ATOM      9  C   UNL d   1      14.289  12.045  -0.014  0.00  0.00     0.002 A 
ENDROOT
BRANCH   1  10
ATOM     10  C   UNL d   1      13.117  11.928  -2.945  0.00  0.00     0.082 C 
BRANCH  10  11
ATOM     11  C   UNL d   1      13.086  12.262  -3.674  0.00  0.00     0.018 A 
ATOM     12  C   UNL d   1      12.949  13.051  -3.796  0.00  0.00     0.002 A 
ATOM     13  C   UNL d   1      12.916  13.393  -4.531  0.00  0.00     0.000 A 
ATOM     14  C   UNL d   1      12.775  14.203  -4.633  0.00  0.00     0.000 C 
ATOM     15  C   UNL d   1      13.029  12.910  -5.190  0.00  0.00     0.000 A 
ATOM     16  C   UNL d   1      13.170  12.102  -5.091  0.00  0.00     0.000 A 
ATOM     17  C   UNL d   1      13.198  11.779  -4.333  0.00  0.00     0.002 A 
ENDBRANCH  10  11
ENDBRANCH   1  10
TORSDOF 2
ENDMDL
