MODEL 1
REMARK VINA RESULT:      61.6      0.000      0.000
REMARK  4 active torsions:
REMARK  status: ('A' for Active; 'I' for Inactive)
REMARK    1  A    between atoms: N_7  and  C_3 
REMARK       I    between atoms: C_8  and  N_7 
REMARK    2  A    between atoms: C_10  and  C_8 
REMARK    3  A    between atoms: C_12  and  C_10 
REMARK    4  A    between atoms: C_16  and  C_12 
ROOT
ATOM      1  N   UNL d   1      60.033  48.909  50.701  0.00  0.00    -0.190 NA
ATOM      2  C   UNL d   1      59.564  49.135  50.065  0.00  0.00     0.281 C 
ATOM      3  O   UNL d   1      59.679  48.791  49.324  0.00  0.00    -0.265 OA
ENDROOT
BRANCH   1   4
ATOM      4  C   UNL d   1      60.620  48.336  50.600  0.00  0.00     0.159 A 
ATOM      5  N   UNL d   1      61.310  48.516  50.191  0.00  0.00    -0.241 N 
ATOM      6  C   UNL d   1      61.890  47.949  50.091  0.00  0.00     0.343 A 
ATOM      7  C   UNL d   1      61.416  49.273  49.881  0.00  0.00     0.105 C 
ATOM      8  N   UNL d   1      61.783  47.192  50.402  0.00  0.00    -0.224 N 
ATOM      9  O   UNL d   1      62.582  48.132  49.680  0.00  0.00    -0.245 OA
ATOM     10  C   UNL d   1      61.096  46.995  50.815  0.00  0.00     0.271 A 
ATOM     11  C   UNL d   1      62.370  46.618  50.301  0.00  0.00     0.107 C 
ATOM     12  C   UNL d   1      60.514  47.579  50.910  0.00  0.00     0.099 A 
ATOM     13  O   UNL d   1      60.991  46.245  51.122  0.00  0.00    -0.266 OA
ENDBRANCH   1   4
BRANCH   2  14
ATOM     14  C   UNL d   1      58.979  49.706  50.168  0.00  0.00     0.063 C 
BRANCH  14  15
ATOM     15  C   UNL d   1      58.321  49.707  49.680  0.00  0.00     0.005 C 
BRANCH  15  16
ATOM     16  C   UNL d   1      57.573  49.701  49.998  0.00  0.00     0.000 A 
ATOM     17  C   UNL d   1      56.919  49.692  49.490  0.00  0.00     0.000 A 
ATOM     18  C   UNL d   1      56.145  49.685  49.808  0.00  0.00     0.000 A 
ATOM     19  C   UNL d   1      56.046  49.686  50.613  0.00  0.00     0.000 A 
ATOM     20  C   UNL d   1      56.696  49.695  51.122  0.00  0.00     0.000 A 
ATOM     21  C   UNL d   1      57.467  49.702  50.805  0.00  0.00     0.000 A 
ENDBRANCH  15  16
ENDBRANCH  14  15
ENDBRANCH   2  14
TORSDOF 4
ENDMDL
MODEL 2
REMARK VINA RESULT:      63.6      1.252      2.376
REMARK  4 active torsions:
REMARK  status: ('A' for Active; 'I' for Inactive)
REMARK    1  A    between atoms: N_7  and  C_3 
REMARK       I    between atoms: C_8  and  N_7 
REMARK    2  A    between atoms: C_10  and  C_8 
REMARK    3  A    between atoms: C_12  and  C_10 
REMARK    4  A    between atoms: C_16  and  C_12 
ROOT
ATOM      1  N   UNL d   1      61.217  47.572  51.129  0.00  0.00    -0.190 NA
ATOM      2  C   UNL d   1      61.028  48.290  50.775  0.00  0.00     0.281 C 
ATOM      3  O   UNL d   1      61.018  48.356  49.953  0.00  0.00    -0.265 OA
ENDROOT
BRANCH   1   4
ATOM      4  C   UNL d   1      61.397  46.915  50.661  0.00  0.00     0.159 A 
ATOM      5  N   UNL d   1      61.056  46.185  50.821  0.00  0.00    -0.241 N 
ATOM      6  C   UNL d   1      61.235  45.536  50.358  0.00  0.00     0.343 A 
ATOM      7  C   UNL d   1      60.532  46.108  51.453  0.00  0.00     0.105 C 
ATOM      8  N   UNL d   1      61.760  45.613  49.726  0.00  0.00    -0.224 N 
ATOM      9  O   UNL d   1      60.891  44.802  50.521  0.00  0.00    -0.245 OA
ATOM     10  C   UNL d   1      62.111  46.339  49.551  0.00  0.00     0.271 A 
ATOM     11  C   UNL d   1      61.941  44.956  49.257  0.00  0.00     0.107 C 
ATOM     12  C   UNL d   1      61.922  46.991  50.029  0.00  0.00     0.099 A 
ATOM     13  O   UNL d   1      62.631  46.415  48.925  0.00  0.00    -0.266 OA
ENDBRANCH   1   4
BRANCH   2  14
ATOM     14  C   UNL d   1      60.849  48.944  51.243  0.00  0.00     0.063 C 
BRANCH  14  15
ATOM     15  C   UNL d   1      60.436  49.573  50.922  0.00  0.00     0.005 C 
BRANCH  15  16
ATOM     16  C   UNL d   1      59.623  49.590  50.947  0.00  0.00     0.000 A 
ATOM     17  C   UNL d   1      59.243  49.587  51.683  0.00  0.00     0.000 A 
ATOM     18  C   UNL d   1      58.406  49.604  51.718  0.00  0.00     0.000 A 
ATOM     19  C   UNL d   1      57.979  49.622  51.030  0.00  0.00     0.000 A 
ATOM     20  C   UNL d   1      58.356  49.625  50.294  0.00  0.00     0.000 A 
ATOM     21  C   UNL d   1      59.189  49.608  50.259  0.00  0.00     0.000 A 
ENDBRANCH  15  16
ENDBRANCH  14  15
ENDBRANCH   2  14
TORSDOF 4
ENDMDL
