MODEL 1
REMARK VINA RESULT:      90.8      0.000      0.000
REMARK  5 active torsions:
REMARK  status: ('A' for Active; 'I' for Inactive)
REMARK    1  A    between atoms: C_4  and  S_1 
REMARK    2  A    between atoms: N_6  and  S_1 
REMARK    3  A    between atoms: C_2  and  C_14 
REMARK    4  A    between atoms: C_7  and  C_16 
REMARK       I    between atoms: N_11  and  C_7 
REMARK    5  A    between atoms: C_26  and  N_11 
ROOT
ATOM      1  C   UNL d   1      14.775  16.581  -2.612  0.00  0.00     0.279 C 
ATOM      2  N   UNL d   1      14.821  16.595  -3.433  0.00  0.00    -0.208 NA
ATOM      3  O   UNL d   1      14.738  17.283  -2.189  0.00  0.00    -0.265 OA
ENDROOT
BRANCH   1   4
ATOM      4  C   UNL d   1      14.766  15.858  -2.214  0.00  0.00     0.061 A 
ATOM      5  C   UNL d   1      14.439  15.183  -2.582  0.00  0.00     0.025 A 
ATOM      6  C   UNL d   1      14.429  14.459  -2.183  0.00  0.00     0.092 A 
ATOM      7  N   UNL d   1      14.744  14.403  -1.418  0.00  0.00    -0.229 N 
ATOM      8  C   UNL d   1      15.067  15.073  -1.057  0.00  0.00     0.092 A 
ATOM      9  C   UNL d   1      15.080  15.798  -1.447  0.00  0.00     0.025 A 
BRANCH   7  10
ATOM     10  S   UNL d   1      14.737  13.680  -1.015  0.00  0.00     0.277 S 
ATOM     11  O   UNL d   1      14.516  13.317  -1.717  0.00  0.00    -0.199 OA
ATOM     12  O   UNL d   1      14.961  14.052  -0.310  0.00  0.00    -0.199 OA
BRANCH  10  13
ATOM     13  C   UNL d   1      14.719  12.948  -0.652  0.00  0.00     0.133 A 
ATOM     14  S   UNL d   1      15.361  12.546  -0.315  0.00  0.00    -0.074 SA
ATOM     15  C   UNL d   1      15.091  11.834  -0.015  0.00  0.00     0.036 A 
ATOM     16  C   UNL d   1      14.280  11.780  -0.159  0.00  0.00     0.008 A 
ATOM     17  C   UNL d   1      14.050  12.468  -0.552  0.00  0.00     0.020 A 
ENDBRANCH  10  13
ENDBRANCH   7  10
ENDBRANCH   1   4
BRANCH   2  18
ATOM     18  C   UNL d   1      14.830  17.316  -3.834  0.00  0.00     0.085 A 
ATOM     19  C   UNL d   1      14.187  17.836  -3.756  0.00  0.00     0.019 A 
ATOM     20  C   UNL d   1      14.212  18.549  -4.162  0.00  0.00     0.004 A 
ATOM     21  C   UNL d   1      14.855  18.731  -4.626  0.00  0.00     0.024 A 
ATOM     22  C   UNL d   1      15.480  18.211  -4.694  0.00  0.00     0.004 A 
ATOM     23  C   UNL d   1      15.470  17.510  -4.303  0.00  0.00     0.019 A 
BRANCH  21  24
ATOM     24  C   UNL d   1      14.864  19.452  -5.027  0.00  0.00     0.111 A 
ATOM     25  N   UNL d   1      15.539  19.909  -5.196  0.00  0.00    -0.239 NA
ATOM     26  C   UNL d   1      15.297  20.589  -5.607  0.00  0.00     0.088 A 
ATOM     27  C   UNL d   1      15.714  21.228  -5.911  0.00  0.00     0.020 A 
ATOM     28  C   UNL d   1      14.478  20.549  -5.690  0.00  0.00     0.049 A 
ATOM     29  C   UNL d   1      15.310  21.834  -6.301  0.00  0.00     0.002 A 
ATOM     30  C   UNL d   1      14.491  21.798  -6.386  0.00  0.00     0.001 A 
ATOM     31  C   UNL d   1      14.069  21.157  -6.082  0.00  0.00     0.008 A 
ATOM     32  S   UNL d   1      14.194  19.851  -5.337  0.00  0.00    -0.066 SA
ENDBRANCH  21  24
ENDBRANCH   2  18
TORSDOF 5
ENDMDL
