MODEL 1
REMARK VINA RESULT:      95.5      0.000      0.000
REMARK  10 active torsions:
REMARK  status: ('A' for Active; 'I' for Inactive)
REMARK    1  A    between atoms: C_9  and  S_1 
REMARK    2  A    between atoms: N_20  and  S_1 
REMARK    3  A    between atoms: S_2  and  C_10 
REMARK    4  A    between atoms: N_19  and  S_2 
REMARK    5  A    between atoms: C_28  and  N_19 
REMARK    6  A    between atoms: C_29  and  N_20 
REMARK    7  A    between atoms: C_24  and  C_28 
REMARK    8  A    between atoms: C_30  and  C_24 
REMARK    9  A    between atoms: C_25  and  C_29 
REMARK   10  A    between atoms: C_31  and  C_25 
ROOT
ATOM      1  C   UNL d   1     -55.552-101.878 -42.614  0.00  0.00     0.300 A 
ATOM      2  C   UNL d   1     -55.695-101.075 -42.672  0.00  0.00     0.064 A 
ATOM      3  C   UNL d   1     -55.329-101.745 -41.213  0.00  0.00     0.104 A 
ATOM      4  O   UNL d   1     -55.370-102.215 -41.887  0.00  0.00    -0.273 OA
ATOM      5  C   UNL d   1     -55.655-100.604 -42.001  0.00  0.00     0.007 A 
ATOM      6  C   UNL d   1     -55.472-100.935 -41.267  0.00  0.00     0.023 A 
ATOM      7  C   UNL d   1     -56.021 -99.934 -43.460  0.00  0.00     0.105 A 
ATOM      8  C   UNL d   1     -55.104-101.621 -39.810  0.00  0.00     0.107 A 
ATOM      9  C   UNL d   1     -55.876-100.741 -43.395  0.00  0.00     0.018 A 
ATOM     10  C   UNL d   1     -55.145-102.086 -40.483  0.00  0.00     0.038 A 
ATOM     11  C   UNL d   1     -55.798 -99.793 -42.055  0.00  0.00     0.001 A 
ATOM     12  C   UNL d   1     -55.431-100.465 -40.592  0.00  0.00     0.003 A 
ATOM     13  O   UNL d   1     -55.591-102.358 -43.285  0.00  0.00    -0.259 OA
ATOM     14  C   UNL d   1     -55.980 -99.457 -42.781  0.00  0.00     0.013 A 
ATOM     15  C   UNL d   1     -55.247-100.806 -39.862  0.00  0.00     0.013 A 
ENDROOT
BRANCH   7  16
ATOM     16  S   UNL d   1     -56.204 -99.596 -44.191  0.00  0.00     0.285 S 
ATOM     17  O   UNL d   1     -56.973 -99.645 -44.479  0.00  0.00    -0.198 OA
ATOM     18  O   UNL d   1     -55.613 -99.211 -44.630  0.00  0.00    -0.198 OA
BRANCH  16  19
ATOM     19  N   UNL d   1     -56.399 -99.263 -44.921  0.00  0.00    -0.157 NA
BRANCH  19  20
ATOM     20  C   UNL d   1     -57.169 -99.319 -45.208  0.00  0.00     0.116 C 
BRANCH  20  21
ATOM     21  C   UNL d   1     -57.739 -98.773 -44.964  0.00  0.00     0.067 C 
BRANCH  21  22
ATOM     22  C   UNL d   1     -58.478 -98.755 -45.332  0.00  0.00     0.236 C 
ATOM     23  O   UNL d   1     -59.119 -99.139 -44.980  0.00  0.00    -0.283 OA
ENDBRANCH  21  22
ENDBRANCH  20  21
ENDBRANCH  19  20
ENDBRANCH  16  19
ENDBRANCH   7  16
BRANCH   8  24
ATOM     24  S   UNL d   1     -54.920-101.955 -39.077  0.00  0.00     0.285 S 
ATOM     25  O   UNL d   1     -54.794-101.469 -38.424  0.00  0.00    -0.198 OA
ATOM     26  O   UNL d   1     -54.865-102.772 -39.001  0.00  0.00    -0.198 OA
BRANCH  24  27
ATOM     27  N   UNL d   1     -54.738-102.296 -38.347  0.00  0.00    -0.157 NA
BRANCH  27  28
ATOM     28  C   UNL d   1     -55.282-102.267 -37.730  0.00  0.00     0.116 C 
BRANCH  28  29
ATOM     29  C   UNL d   1     -55.032-102.146 -36.953  0.00  0.00     0.067 C 
BRANCH  29  30
ATOM     30  C   UNL d   1     -55.058-102.759 -36.403  0.00  0.00     0.236 C 
ATOM     31  O   UNL d   1     -55.408-102.638 -35.665  0.00  0.00    -0.283 OA
ENDBRANCH  29  30
ENDBRANCH  28  29
ENDBRANCH  27  28
ENDBRANCH  24  27
ENDBRANCH   8  24
TORSDOF 10
ENDMDL
