MODEL 1
REMARK VINA RESULT:      -4.2      0.000      0.000
REMARK  3 active torsions:
REMARK  status: ('A' for Active; 'I' for Inactive)
REMARK    1  A    between atoms: C_2  and  O_3 
REMARK    2  A    between atoms: O_3  and  C_5 
REMARK    3  A    between atoms: C_5  and  C_4 
ROOT
ATOM      1  C   UNL d   1      55.757  -0.091  33.059  0.00  0.00     0.100 A 
ATOM      2  C   UNL d   1      56.216   0.407  32.588  0.00  0.00     0.025 A 
ATOM      3  C   UNL d   1      55.798  -0.908  32.959  0.00  0.00     0.025 A 
ATOM      4  C   UNL d   1      56.719   0.093  32.011  0.00  0.00     0.002 A 
ATOM      5  C   UNL d   1      56.302  -1.221  32.382  0.00  0.00     0.002 A 
ATOM      6  C   UNL d   1      56.756  -0.727  31.915  0.00  0.00     0.000 A 
ENDROOT
BRANCH   1   7
ATOM      7  O   UNL d   1      55.258   0.226  33.631  0.00  0.00    -0.303 OA
BRANCH   7   8
ATOM      8  C   UNL d   1      55.535   0.364  34.400  0.00  0.00     0.145 C 
BRANCH   8   9
ATOM      9  C   UNL d   1      55.037   0.682  34.972  0.00  0.00     0.149 C 
ATOM     10  N   UNL d   1      55.248   0.663  35.767  0.00  0.00    -0.144 N 
ENDBRANCH   8   9
ENDBRANCH   7   8
ENDBRANCH   1   7
TORSDOF 3
ENDMDL
MODEL 2
REMARK VINA RESULT:      -4.1      2.393      3.280
REMARK  3 active torsions:
REMARK  status: ('A' for Active; 'I' for Inactive)
REMARK    1  A    between atoms: C_2  and  O_3 
REMARK    2  A    between atoms: O_3  and  C_5 
REMARK    3  A    between atoms: C_5  and  C_4 
ROOT
ATOM      1  C   UNL d   1      56.756  -0.165  32.302  0.00  0.00     0.100 A 
ATOM      2  C   UNL d   1      56.579  -0.970  32.330  0.00  0.00     0.025 A 
ATOM      3  C   UNL d   1      56.277   0.377  32.697  0.00  0.00     0.025 A 
ATOM      4  C   UNL d   1      55.923  -1.242  32.755  0.00  0.00     0.002 A 
ATOM      5  C   UNL d   1      55.622   0.105  33.122  0.00  0.00     0.002 A 
ATOM      6  C   UNL d   1      55.447  -0.693  33.150  0.00  0.00     0.000 A 
ENDROOT
BRANCH   1   7
ATOM      7  O   UNL d   1      57.409   0.100  31.877  0.00  0.00    -0.303 OA
BRANCH   7   8
ATOM      8  C   UNL d   1      57.369   0.185  31.054  0.00  0.00     0.145 C 
BRANCH   8   9
ATOM      9  C   UNL d   1      58.016   0.467  30.632  0.00  0.00     0.149 C 
ATOM     10  N   UNL d   1      57.982   0.537  29.813  0.00  0.00    -0.144 N 
ENDBRANCH   8   9
ENDBRANCH   7   8
ENDBRANCH   1   7
TORSDOF 3
ENDMDL
MODEL 3
REMARK VINA RESULT:      -3.0      8.704      9.424
REMARK  3 active torsions:
REMARK  status: ('A' for Active; 'I' for Inactive)
REMARK    1  A    between atoms: C_2  and  O_3 
REMARK    2  A    between atoms: O_3  and  C_5 
REMARK    3  A    between atoms: C_5  and  C_4 
ROOT
ATOM      1  C   UNL d   1      59.899  -7.774  35.778  0.00  0.00     0.100 A 
ATOM      2  C   UNL d   1      59.377  -7.139  35.848  0.00  0.00     0.025 A 
ATOM      3  C   UNL d   1      60.692  -7.681  35.983  0.00  0.00     0.025 A 
ATOM      4  C   UNL d   1      59.643  -6.405  36.124  0.00  0.00     0.002 A 
ATOM      5  C   UNL d   1      60.956  -6.948  36.259  0.00  0.00     0.002 A 
ATOM      6  C   UNL d   1      60.439  -6.319  36.329  0.00  0.00     0.000 A 
ENDROOT
BRANCH   1   7
ATOM      7  O   UNL d   1      59.630  -8.501  35.502  0.00  0.00    -0.303 OA
BRANCH   7   8
ATOM      8  C   UNL d   1      59.682  -8.690  34.697  0.00  0.00     0.145 C 
BRANCH   8   9
ATOM      9  C   UNL d   1      59.413  -9.416  34.421  0.00  0.00     0.149 C 
ATOM     10  N   UNL d   1      59.422  -9.588  33.616  0.00  0.00    -0.144 N 
ENDBRANCH   8   9
ENDBRANCH   7   8
ENDBRANCH   1   7
TORSDOF 3
ENDMDL
MODEL 4
REMARK VINA RESULT:      -2.9      1.901      2.940
REMARK  3 active torsions:
REMARK  status: ('A' for Active; 'I' for Inactive)
REMARK    1  A    between atoms: C_2  and  O_3 
REMARK    2  A    between atoms: O_3  and  C_5 
REMARK    3  A    between atoms: C_5  and  C_4 
ROOT
ATOM      1  C   UNL d   1      56.001   0.485  33.118  0.00  0.00     0.100 A 
ATOM      2  C   UNL d   1      56.519   0.582  33.753  0.00  0.00     0.025 A 
ATOM      3  C   UNL d   1      55.187   0.478  33.247  0.00  0.00     0.025 A 
ATOM      4  C   UNL d   1      56.229   0.673  34.522  0.00  0.00     0.002 A 
ATOM      5  C   UNL d   1      54.898   0.570  34.017  0.00  0.00     0.002 A 
ATOM      6  C   UNL d   1      55.411   0.666  34.645  0.00  0.00     0.000 A 
ENDROOT
BRANCH   1   7
ATOM      7  O   UNL d   1      56.295   0.394  32.355  0.00  0.00    -0.303 OA
BRANCH   7   8
ATOM      8  C   UNL d   1      56.570  -0.344  32.097  0.00  0.00     0.145 C 
BRANCH   8   9
ATOM      9  C   UNL d   1      57.091  -0.395  31.462  0.00  0.00     0.149 C 
ATOM     10  N   UNL d   1      57.233  -1.119  31.095  0.00  0.00    -0.144 N 
ENDBRANCH   8   9
ENDBRANCH   7   8
ENDBRANCH   1   7
TORSDOF 3
ENDMDL
MODEL 5
REMARK VINA RESULT:      -2.6      8.939      9.606
REMARK  3 active torsions:
REMARK  status: ('A' for Active; 'I' for Inactive)
REMARK    1  A    between atoms: C_2  and  O_3 
REMARK    2  A    between atoms: O_3  and  C_5 
REMARK    3  A    between atoms: C_5  and  C_4 
ROOT
ATOM      1  C   UNL d   1      60.018  -8.925  34.573  0.00  0.00     0.100 A 
ATOM      2  C   UNL d   1      60.805  -8.920  34.325  0.00  0.00     0.025 A 
ATOM      3  C   UNL d   1      59.430  -9.220  34.077  0.00  0.00     0.025 A 
ATOM      4  C   UNL d   1      61.011  -9.210  33.578  0.00  0.00     0.002 A 
ATOM      5  C   UNL d   1      59.638  -9.509  33.330  0.00  0.00     0.002 A 
ATOM      6  C   UNL d   1      60.417  -9.504  33.084  0.00  0.00     0.000 A 
ENDROOT
BRANCH   1   7
ATOM      7  O   UNL d   1      59.818  -8.636  35.317  0.00  0.00    -0.303 OA
BRANCH   7   8
ATOM      8  C   UNL d   1      59.739  -7.821  35.443  0.00  0.00     0.145 C 
BRANCH   8   9
ATOM      9  C   UNL d   1      59.513  -7.532  36.179  0.00  0.00     0.149 C 
ATOM     10  N   UNL d   1      59.497  -6.722  36.324  0.00  0.00    -0.144 N 
ENDBRANCH   8   9
ENDBRANCH   7   8
ENDBRANCH   1   7
TORSDOF 3
ENDMDL
MODEL 6
REMARK VINA RESULT:      -2.5      2.494      3.341
REMARK  3 active torsions:
REMARK  status: ('A' for Active; 'I' for Inactive)
REMARK    1  A    between atoms: C_2  and  O_3 
REMARK    2  A    between atoms: O_3  and  C_5 
REMARK    3  A    between atoms: C_5  and  C_4 
ROOT
ATOM      1  C   UNL d   1      57.672  -0.082  30.630  0.00  0.00     0.100 A 
ATOM      2  C   UNL d   1      57.940  -0.736  30.204  0.00  0.00     0.025 A 
ATOM      3  C   UNL d   1      58.083   0.630  30.594  0.00  0.00     0.025 A 
ATOM      4  C   UNL d   1      58.622  -0.684  29.739  0.00  0.00     0.002 A 
ATOM      5  C   UNL d   1      58.766   0.682  30.129  0.00  0.00     0.002 A 
ATOM      6  C   UNL d   1      59.031   0.034  29.708  0.00  0.00     0.000 A 
ENDROOT
BRANCH   1   7
ATOM      7  O   UNL d   1      56.992  -0.140  31.091  0.00  0.00    -0.303 OA
BRANCH   7   8
ATOM      8  C   UNL d   1      56.973  -0.643  31.748  0.00  0.00     0.145 C 
BRANCH   8   9
ATOM      9  C   UNL d   1      56.369  -0.582  32.303  0.00  0.00     0.149 C 
ATOM     10  N   UNL d   1      56.071  -1.254  32.673  0.00  0.00    -0.144 N 
ENDBRANCH   8   9
ENDBRANCH   7   8
ENDBRANCH   1   7
TORSDOF 3
ENDMDL
MODEL 7
REMARK VINA RESULT:      -2.4      1.683      2.255
REMARK  3 active torsions:
REMARK  status: ('A' for Active; 'I' for Inactive)
REMARK    1  A    between atoms: C_2  and  O_3 
REMARK    2  A    between atoms: O_3  and  C_5 
REMARK    3  A    between atoms: C_5  and  C_4 
ROOT
ATOM      1  C   UNL d   1      57.361  -0.014  31.598  0.00  0.00     0.100 A 
ATOM      2  C   UNL d   1      57.665   0.680  31.272  0.00  0.00     0.025 A 
ATOM      3  C   UNL d   1      57.365  -0.713  31.161  0.00  0.00     0.025 A 
ATOM      4  C   UNL d   1      57.976   0.682  30.505  0.00  0.00     0.002 A 
ATOM      5  C   UNL d   1      57.676  -0.709  30.394  0.00  0.00     0.002 A 
ATOM      6  C   UNL d   1      57.977  -0.022  30.071  0.00  0.00     0.000 A 
ENDROOT
BRANCH   1   7
ATOM      7  O   UNL d   1      57.053  -0.011  32.361  0.00  0.00    -0.303 OA
BRANCH   7   8
ATOM      8  C   UNL d   1      56.281  -0.278  32.503  0.00  0.00     0.145 C 
BRANCH   8   9
ATOM      9  C   UNL d   1      55.892  -0.076  33.199  0.00  0.00     0.149 C 
ATOM     10  N   UNL d   1      55.130  -0.351  33.347  0.00  0.00    -0.144 N 
ENDBRANCH   8   9
ENDBRANCH   7   8
ENDBRANCH   1   7
TORSDOF 3
ENDMDL
MODEL 8
REMARK VINA RESULT:      -2.1      3.749      4.732
REMARK  3 active torsions:
REMARK  status: ('A' for Active; 'I' for Inactive)
REMARK    1  A    between atoms: C_2  and  O_3 
REMARK    2  A    between atoms: O_3  and  C_5 
REMARK    3  A    between atoms: C_5  and  C_4 
ROOT
ATOM      1  C   UNL d   1      57.765  -0.059  30.238  0.00  0.00     0.100 A 
ATOM      2  C   UNL d   1      57.518   0.649  30.583  0.00  0.00     0.025 A 
ATOM      3  C   UNL d   1      57.630  -0.775  30.623  0.00  0.00     0.025 A 
ATOM      4  C   UNL d   1      57.134   0.648  31.315  0.00  0.00     0.002 A 
ATOM      5  C   UNL d   1      57.245  -0.775  31.355  0.00  0.00     0.002 A 
ATOM      6  C   UNL d   1      57.001  -0.074  31.696  0.00  0.00     0.000 A 
ENDROOT
BRANCH   1   7
ATOM      7  O   UNL d   1      58.147  -0.052  29.509  0.00  0.00    -0.303 OA
BRANCH   7   8
ATOM      8  C   UNL d   1      58.934   0.201  29.451  0.00  0.00     0.145 C 
BRANCH   8   9
ATOM      9  C   UNL d   1      59.300   0.258  28.717  0.00  0.00     0.149 C 
ATOM     10  N   UNL d   1      60.107   0.113  28.639  0.00  0.00    -0.144 N 
ENDBRANCH   8   9
ENDBRANCH   7   8
ENDBRANCH   1   7
TORSDOF 3
ENDMDL
MODEL 9
REMARK VINA RESULT:      -1.9      4.837      5.752
REMARK  3 active torsions:
REMARK  status: ('A' for Active; 'I' for Inactive)
REMARK    1  A    between atoms: C_2  and  O_3 
REMARK    2  A    between atoms: O_3  and  C_5 
REMARK    3  A    between atoms: C_5  and  C_4 
ROOT
ATOM      1  C   UNL d   1      59.264  -1.968  28.907  0.00  0.00     0.100 A 
ATOM      2  C   UNL d   1      60.079  -2.061  28.994  0.00  0.00     0.025 A 
ATOM      3  C   UNL d   1      58.778  -2.631  28.847  0.00  0.00     0.025 A 
ATOM      4  C   UNL d   1      60.416  -2.816  29.023  0.00  0.00     0.002 A 
ATOM      5  C   UNL d   1      59.115  -3.385  28.876  0.00  0.00     0.002 A 
ATOM      6  C   UNL d   1      59.923  -3.477  28.963  0.00  0.00     0.000 A 
ENDROOT
BRANCH   1   7
ATOM      7  O   UNL d   1      58.935  -1.215  28.879  0.00  0.00    -0.303 OA
BRANCH   7   8
ATOM      8  C   UNL d   1      58.671  -0.846  29.572  0.00  0.00     0.145 C 
BRANCH   8   9
ATOM      9  C   UNL d   1      58.407  -0.067  29.556  0.00  0.00     0.149 C 
ATOM     10  N   UNL d   1      58.029   0.260  30.210  0.00  0.00    -0.144 N 
ENDBRANCH   8   9
ENDBRANCH   7   8
ENDBRANCH   1   7
TORSDOF 3
ENDMDL
