MODEL 1
REMARK VINA RESULT:      -9.5      0.000      0.000
REMARK  4 active torsions:
REMARK  status: ('A' for Active; 'I' for Inactive)
REMARK    1  A    between atoms: C_6  and  C_1 
REMARK    2  A    between atoms: C_9  and  N_3 
REMARK    3  A    between atoms: C_17  and  C_9 
REMARK    4  A    between atoms: O_15  and  C_10 
ROOT
ATOM      1  C   UNL d   1      52.466  33.767  53.598  0.00  0.00     0.148 A 
ATOM      2  N   UNL d   1      52.848  34.345  54.097  0.00  0.00    -0.227 NA
ATOM      3  N   UNL d   1      52.898  33.062  53.671  0.00  0.00    -0.289 N 
ATOM      4  C   UNL d   1      53.515  33.177  54.182  0.00  0.00     0.083 A 
ATOM      5  C   UNL d   1      53.483  33.987  54.451  0.00  0.00     0.099 A 
ATOM      6  C   UNL d   1      54.114  32.677  54.456  0.00  0.00     0.019 A 
ATOM      7  C   UNL d   1      54.077  34.237  54.993  0.00  0.00     0.021 A 
ATOM      8  C   UNL d   1      54.661  32.958  54.975  0.00  0.00     0.002 A 
ATOM      9  C   UNL d   1      54.630  33.741  55.235  0.00  0.00     0.002 A 
ENDROOT
BRANCH   1  10
ATOM     10  C   UNL d   1      51.791  33.919  53.139  0.00  0.00     0.035 A 
ATOM     11  C   UNL d   1      51.856  34.164  52.365  0.00  0.00     0.005 A 
ATOM     12  C   UNL d   1      51.195  34.321  51.888  0.00  0.00     0.024 A 
ATOM     13  C   UNL d   1      50.469  34.233  52.185  0.00  0.00     0.094 A 
ATOM     14  C   UNL d   1      50.386  33.979  52.986  0.00  0.00     0.024 A 
ATOM     15  C   UNL d   1      51.047  33.822  53.463  0.00  0.00     0.005 A 
BRANCH  13  16
ATOM     16  O   UNL d   1      49.646  34.271  52.087  0.00  0.00    -0.328 OA
ATOM     17  C   UNL d   1      49.325  34.504  51.358  0.00  0.00     0.181 C 
ENDBRANCH  13  16
ENDBRANCH   1  10
BRANCH   3  18
ATOM     18  C   UNL d   1      52.606  32.468  53.234  0.00  0.00     0.082 C 
BRANCH  18  19
ATOM     19  C   UNL d   1      52.986  31.747  53.176  0.00  0.00     0.019 C 
ATOM     20  C   UNL d   1      52.643  31.085  52.829  0.00  0.00     0.002 C 
ENDBRANCH  18  19
ENDBRANCH   3  18
TORSDOF 4
ENDMDL
MODEL 2
REMARK VINA RESULT:      -8.7      0.735      1.811
REMARK  4 active torsions:
REMARK  status: ('A' for Active; 'I' for Inactive)
REMARK    1  A    between atoms: C_6  and  C_1 
REMARK    2  A    between atoms: C_9  and  N_3 
REMARK    3  A    between atoms: C_17  and  C_9 
REMARK    4  A    between atoms: O_15  and  C_10 
ROOT
ATOM      1  C   UNL d   1      52.145  33.391  53.129  0.00  0.00     0.148 A 
ATOM      2  N   UNL d   1      52.375  32.576  53.019  0.00  0.00    -0.227 NA
ATOM      3  N   UNL d   1      52.723  33.742  53.610  0.00  0.00    -0.289 N 
ATOM      4  C   UNL d   1      53.287  33.192  53.798  0.00  0.00     0.083 A 
ATOM      5  C   UNL d   1      53.068  32.456  53.424  0.00  0.00     0.099 A 
ATOM      6  C   UNL d   1      53.976  33.232  54.252  0.00  0.00     0.019 A 
ATOM      7  C   UNL d   1      53.577  31.797  53.542  0.00  0.00     0.021 A 
ATOM      8  C   UNL d   1      54.434  32.576  54.338  0.00  0.00     0.002 A 
ATOM      9  C   UNL d   1      54.222  31.865  53.977  0.00  0.00     0.002 A 
ENDROOT
BRANCH   1  10
ATOM     10  C   UNL d   1      51.464  33.733  52.800  0.00  0.00     0.035 A 
ATOM     11  C   UNL d   1      51.473  34.049  52.049  0.00  0.00     0.005 A 
ATOM     12  C   UNL d   1      50.804  34.395  51.701  0.00  0.00     0.024 A 
ATOM     13  C   UNL d   1      50.126  34.426  52.103  0.00  0.00     0.094 A 
ATOM     14  C   UNL d   1      50.101  34.103  52.883  0.00  0.00     0.024 A 
ATOM     15  C   UNL d   1      50.770  33.756  53.231  0.00  0.00     0.005 A 
BRANCH  13  16
ATOM     16  O   UNL d   1      49.327  34.646  52.144  0.00  0.00    -0.328 OA
ATOM     17  C   UNL d   1      48.897  34.782  51.447  0.00  0.00     0.181 C 
ENDBRANCH  13  16
ENDBRANCH   1  10
BRANCH   3  18
ATOM     18  C   UNL d   1      52.583  34.507  53.763  0.00  0.00     0.082 C 
BRANCH  18  19
ATOM     19  C   UNL d   1      53.088  34.957  54.221  0.00  0.00     0.019 C 
ATOM     20  C   UNL d   1      52.937  35.741  54.420  0.00  0.00     0.002 C 
ENDBRANCH  18  19
ENDBRANCH   3  18
TORSDOF 4
ENDMDL
MODEL 3
REMARK VINA RESULT:      -8.6      1.841      3.834
REMARK  4 active torsions:
REMARK  status: ('A' for Active; 'I' for Inactive)
REMARK    1  A    between atoms: C_6  and  C_1 
REMARK    2  A    between atoms: C_9  and  N_3 
REMARK    3  A    between atoms: C_17  and  C_9 
REMARK    4  A    between atoms: O_15  and  C_10 
ROOT
ATOM      1  C   UNL d   1      52.782  32.175  53.269  0.00  0.00     0.148 A 
ATOM      2  N   UNL d   1      52.262  32.468  52.660  0.00  0.00    -0.227 NA
ATOM      3  N   UNL d   1      53.076  32.836  53.676  0.00  0.00    -0.289 N 
ATOM      4  C   UNL d   1      52.767  33.510  53.351  0.00  0.00     0.083 A 
ATOM      5  C   UNL d   1      52.253  33.278  52.710  0.00  0.00     0.099 A 
ATOM      6  C   UNL d   1      52.864  34.311  53.529  0.00  0.00     0.019 A 
ATOM      7  C   UNL d   1      51.864  33.892  52.285  0.00  0.00     0.021 A 
ATOM      8  C   UNL d   1      52.473  34.865  53.097  0.00  0.00     0.002 A 
ATOM      9  C   UNL d   1      51.976  34.641  52.477  0.00  0.00     0.002 A 
ENDROOT
BRANCH   1  10
ATOM     10  C   UNL d   1      52.941  31.370  53.401  0.00  0.00     0.035 A 
ATOM     11  C   UNL d   1      53.655  31.042  53.185  0.00  0.00     0.005 A 
ATOM     12  C   UNL d   1      53.836  30.241  53.307  0.00  0.00     0.024 A 
ATOM     13  C   UNL d   1      53.302  29.768  53.644  0.00  0.00     0.094 A 
ATOM     14  C   UNL d   1      52.557  30.094  53.873  0.00  0.00     0.024 A 
ATOM     15  C   UNL d   1      52.377  30.895  53.751  0.00  0.00     0.005 A 
BRANCH  13  16
ATOM     16  O   UNL d   1      53.084  29.016  53.920  0.00  0.00    -0.328 OA
ATOM     17  C   UNL d   1      53.539  28.639  54.502  0.00  0.00     0.181 C 
ENDBRANCH  13  16
ENDBRANCH   1  10
BRANCH   3  18
ATOM     18  C   UNL d   1      53.573  32.648  54.264  0.00  0.00     0.082 C 
BRANCH  18  19
ATOM     19  C   UNL d   1      53.900  33.216  54.752  0.00  0.00     0.019 C 
ATOM     20  C   UNL d   1      54.432  33.040  55.354  0.00  0.00     0.002 C 
ENDBRANCH  18  19
ENDBRANCH   3  18
TORSDOF 4
ENDMDL
MODEL 4
REMARK VINA RESULT:      -7.2      1.600      3.091
REMARK  4 active torsions:
REMARK  status: ('A' for Active; 'I' for Inactive)
REMARK    1  A    between atoms: C_6  and  C_1 
REMARK    2  A    between atoms: C_9  and  N_3 
REMARK    3  A    between atoms: C_17  and  C_9 
REMARK    4  A    between atoms: O_15  and  C_10 
ROOT
ATOM      1  C   UNL d   1      53.194  32.975  53.806  0.00  0.00     0.148 A 
ATOM      2  N   UNL d   1      53.819  32.409  53.935  0.00  0.00    -0.227 NA
ATOM      3  N   UNL d   1      52.584  32.576  53.408  0.00  0.00    -0.289 N 
ATOM      4  C   UNL d   1      52.802  31.806  53.287  0.00  0.00     0.083 A 
ATOM      5  C   UNL d   1      53.581  31.700  53.620  0.00  0.00     0.099 A 
ATOM      6  C   UNL d   1      52.420  31.168  52.925  0.00  0.00     0.019 A 
ATOM      7  C   UNL d   1      53.926  30.934  53.559  0.00  0.00     0.021 A 
ATOM      8  C   UNL d   1      52.787  30.453  52.890  0.00  0.00     0.002 A 
ATOM      9  C   UNL d   1      53.540  30.351  53.211  0.00  0.00     0.002 A 
ENDROOT
BRANCH   1  10
ATOM     10  C   UNL d   1      53.224  33.768  54.049  0.00  0.00     0.035 A 
ATOM     11  C   UNL d   1      53.178  33.968  54.838  0.00  0.00     0.005 A 
ATOM     12  C   UNL d   1      53.206  34.754  55.104  0.00  0.00     0.024 A 
ATOM     13  C   UNL d   1      53.280  35.340  54.581  0.00  0.00     0.094 A 
ATOM     14  C   UNL d   1      53.329  35.149  53.760  0.00  0.00     0.024 A 
ATOM     15  C   UNL d   1      53.301  34.363  53.494  0.00  0.00     0.005 A 
BRANCH  13  16
ATOM     16  O   UNL d   1      53.342  36.152  54.419  0.00  0.00    -0.328 OA
ATOM     17  C   UNL d   1      53.050  36.707  54.963  0.00  0.00     0.181 C 
ENDBRANCH  13  16
ENDBRANCH   1  10
BRANCH   3  18
ATOM     18  C   UNL d   1      51.959  33.036  53.248  0.00  0.00     0.082 C 
BRANCH  18  19
ATOM     19  C   UNL d   1      51.222  32.723  53.084  0.00  0.00     0.019 C 
ATOM     20  C   UNL d   1      50.555  33.187  52.953  0.00  0.00     0.002 C 
ENDBRANCH  18  19
ENDBRANCH   3  18
TORSDOF 4
ENDMDL
MODEL 5
REMARK VINA RESULT:      -6.9      1.544      3.063
REMARK  4 active torsions:
REMARK  status: ('A' for Active; 'I' for Inactive)
REMARK    1  A    between atoms: C_6  and  C_1 
REMARK    2  A    between atoms: C_9  and  N_3 
REMARK    3  A    between atoms: C_17  and  C_9 
REMARK    4  A    between atoms: O_15  and  C_10 
ROOT
ATOM      1  C   UNL d   1      53.004  33.068  53.817  0.00  0.00     0.148 A 
ATOM      2  N   UNL d   1      53.435  33.323  54.508  0.00  0.00    -0.227 NA
ATOM      3  N   UNL d   1      52.649  33.743  53.490  0.00  0.00    -0.289 N 
ATOM      4  C   UNL d   1      52.837  34.390  53.940  0.00  0.00     0.083 A 
ATOM      5  C   UNL d   1      53.333  34.124  54.582  0.00  0.00     0.099 A 
ATOM      6  C   UNL d   1      52.641  35.190  53.877  0.00  0.00     0.019 A 
ATOM      7  C   UNL d   1      53.601  34.706  55.129  0.00  0.00     0.021 A 
ATOM      8  C   UNL d   1      52.920  35.712  54.423  0.00  0.00     0.002 A 
ATOM      9  C   UNL d   1      53.399  35.456  55.043  0.00  0.00     0.002 A 
ENDROOT
BRANCH   1  10
ATOM     10  C   UNL d   1      52.970  32.282  53.551  0.00  0.00     0.035 A 
ATOM     11  C   UNL d   1      53.616  31.927  53.204  0.00  0.00     0.005 A 
ATOM     12  C   UNL d   1      53.605  31.143  52.931  0.00  0.00     0.024 A 
ATOM     13  C   UNL d   1      52.946  30.715  53.005  0.00  0.00     0.094 A 
ATOM     14  C   UNL d   1      52.268  31.068  53.362  0.00  0.00     0.024 A 
ATOM     15  C   UNL d   1      52.280  31.852  53.635  0.00  0.00     0.005 A 
BRANCH  13  16
ATOM     16  O   UNL d   1      52.541  29.999  52.890  0.00  0.00    -0.328 OA
ATOM     17  C   UNL d   1      52.869  29.288  53.166  0.00  0.00     0.181 C 
ENDBRANCH  13  16
ENDBRANCH   1  10
BRANCH   3  18
ATOM     18  C   UNL d   1      52.225  33.592  52.838  0.00  0.00     0.082 C 
BRANCH  18  19
ATOM     19  C   UNL d   1      51.754  34.159  52.486  0.00  0.00     0.019 C 
ATOM     20  C   UNL d   1      51.308  34.018  51.810  0.00  0.00     0.002 C 
ENDBRANCH  18  19
ENDBRANCH   3  18
TORSDOF 4
ENDMDL
