MODEL 1
REMARK VINA RESULT:      -4.9      0.000      0.000
REMARK  4 active torsions:
REMARK  status: ('A' for Active; 'I' for Inactive)
REMARK    1  A    between atoms: C_2  and  C_1 
REMARK    2  A    between atoms: C_3  and  C_1 
REMARK    3  A    between atoms: C_4  and  C_2 
REMARK    4  A    between atoms: C_9  and  C_3 
ROOT
ATOM      1  C   UNL d   1     -41.510-122.243 -51.012  0.00  0.00     0.196 C 
ATOM      2  O   UNL d   1     -41.123-121.517 -50.951  0.00  0.00    -0.287 OA
ENDROOT
BRANCH   1   3
ATOM      3  C   UNL d   1     -41.568-122.618 -51.750  0.00  0.00     0.042 C 
BRANCH   3   4
ATOM      4  C   UNL d   1     -41.239-122.265 -52.419  0.00  0.00     0.005 C 
BRANCH   4   5
ATOM      5  C   UNL d   1     -41.413-122.564 -53.165  0.00  0.00     0.019 A 
ATOM      6  C   UNL d   1     -41.879-122.125 -53.689  0.00  0.00     0.099 A 
ATOM      7  N   UNL d   1     -42.054-122.424 -54.435  0.00  0.00    -0.242 NA
ATOM      8  C   UNL d   1     -41.763-123.166 -54.663  0.00  0.00     0.099 A 
ATOM      9  C   UNL d   1     -41.300-123.605 -54.144  0.00  0.00     0.021 A 
ATOM     10  C   UNL d   1     -41.123-123.306 -53.393  0.00  0.00     0.003 A 
ENDBRANCH   4   5
ENDBRANCH   3   4
ENDBRANCH   1   3
BRANCH   1  11
ATOM     11  C   UNL d   1     -41.836-122.593 -50.343  0.00  0.00     0.039 A 
ATOM     12  C   UNL d   1     -41.390-123.129 -49.910  0.00  0.00     0.006 A 
ATOM     13  C   UNL d   1     -41.716-123.482 -49.238  0.00  0.00     0.042 A 
ATOM     14  C   UNL d   1     -42.492-123.294 -49.002  0.00  0.00     0.196 A 
ATOM     15  C   UNL d   1     -42.933-122.754 -49.443  0.00  0.00     0.042 A 
ATOM     16  O   UNL d   1     -42.814-123.650 -48.329  0.00  0.00    -0.287 OA
ATOM     17  C   UNL d   1     -42.606-122.404 -50.112  0.00  0.00     0.006 A 
ENDBRANCH   1  11
TORSDOF 4
ENDMDL
MODEL 2
REMARK VINA RESULT:      -4.6      1.784      4.136
REMARK  4 active torsions:
REMARK  status: ('A' for Active; 'I' for Inactive)
REMARK    1  A    between atoms: C_2  and  C_1 
REMARK    2  A    between atoms: C_3  and  C_1 
REMARK    3  A    between atoms: C_4  and  C_2 
REMARK    4  A    between atoms: C_9  and  C_3 
ROOT
ATOM      1  C   UNL d   1     -41.486-121.949 -52.411  0.00  0.00     0.196 C 
ATOM      2  O   UNL d   1     -41.123-121.232 -52.223  0.00  0.00    -0.287 OA
ENDROOT
BRANCH   1   3
ATOM      3  C   UNL d   1     -41.721-122.463 -51.803  0.00  0.00     0.042 C 
BRANCH   3   4
ATOM      4  C   UNL d   1     -41.681-122.217 -51.017  0.00  0.00     0.005 C 
BRANCH   4   5
ATOM      5  C   UNL d   1     -42.034-122.672 -50.429  0.00  0.00     0.019 A 
ATOM      6  C   UNL d   1     -42.765-122.447 -50.114  0.00  0.00     0.099 A 
ATOM      7  N   UNL d   1     -43.118-122.902 -49.527  0.00  0.00    -0.242 NA
ATOM      8  C   UNL d   1     -42.742-123.586 -49.249  0.00  0.00     0.099 A 
ATOM      9  C   UNL d   1     -42.015-123.812 -49.561  0.00  0.00     0.021 A 
ATOM     10  C   UNL d   1     -41.658-123.356 -50.152  0.00  0.00     0.003 A 
ENDBRANCH   4   5
ENDBRANCH   3   4
ENDBRANCH   1   3
BRANCH   1  11
ATOM     11  C   UNL d   1     -41.613-122.153 -53.197  0.00  0.00     0.039 A 
ATOM     12  C   UNL d   1     -41.198-122.782 -53.524  0.00  0.00     0.006 A 
ATOM     13  C   UNL d   1     -41.324-122.989 -54.313  0.00  0.00     0.042 A 
ATOM     14  C   UNL d   1     -41.870-122.561 -54.775  0.00  0.00     0.196 A 
ATOM     15  C   UNL d   1     -42.283-121.931 -54.439  0.00  0.00     0.042 A 
ATOM     16  O   UNL d   1     -41.994-122.771 -55.564  0.00  0.00    -0.287 OA
ATOM     17  C   UNL d   1     -42.155-121.727 -53.652  0.00  0.00     0.006 A 
ENDBRANCH   1  11
TORSDOF 4
ENDMDL
MODEL 3
REMARK VINA RESULT:      -4.6      0.746      1.284
REMARK  4 active torsions:
REMARK  status: ('A' for Active; 'I' for Inactive)
REMARK    1  A    between atoms: C_2  and  C_1 
REMARK    2  A    between atoms: C_3  and  C_1 
REMARK    3  A    between atoms: C_4  and  C_2 
REMARK    4  A    between atoms: C_9  and  C_3 
ROOT
ATOM      1  C   UNL d   1     -41.419-122.033 -51.751  0.00  0.00     0.196 C 
ATOM      2  O   UNL d   1     -41.123-121.264 -51.717  0.00  0.00    -0.287 OA
ENDROOT
BRANCH   1   3
ATOM      3  C   UNL d   1     -41.553-122.391 -52.489  0.00  0.00     0.042 C 
BRANCH   3   4
ATOM      4  C   UNL d   1     -41.246-122.049 -53.173  0.00  0.00     0.005 C 
BRANCH   4   5
ATOM      5  C   UNL d   1     -41.558-122.255 -53.906  0.00  0.00     0.019 A 
ATOM      6  C   UNL d   1     -41.304-122.945 -54.285  0.00  0.00     0.099 A 
ATOM      7  N   UNL d   1     -41.616-123.151 -55.018  0.00  0.00    -0.242 NA
ATOM      8  C   UNL d   1     -42.185-122.668 -55.378  0.00  0.00     0.099 A 
ATOM      9  C   UNL d   1     -42.439-121.981 -55.002  0.00  0.00     0.021 A 
ATOM     10  C   UNL d   1     -42.127-121.772 -54.266  0.00  0.00     0.003 A 
ENDBRANCH   4   5
ENDBRANCH   3   4
ENDBRANCH   1   3
BRANCH   1  11
ATOM     11  C   UNL d   1     -41.582-122.444 -51.057  0.00  0.00     0.039 A 
ATOM     12  C   UNL d   1     -42.149-122.153 -50.539  0.00  0.00     0.006 A 
ATOM     13  C   UNL d   1     -42.313-122.563 -49.842  0.00  0.00     0.042 A 
ATOM     14  C   UNL d   1     -41.906-123.268 -49.665  0.00  0.00     0.196 A 
ATOM     15  C   UNL d   1     -41.337-123.553 -50.191  0.00  0.00     0.042 A 
ATOM     16  O   UNL d   1     -42.073-123.675 -48.966  0.00  0.00    -0.287 OA
ATOM     17  C   UNL d   1     -41.175-123.142 -50.885  0.00  0.00     0.006 A 
ENDBRANCH   1  11
TORSDOF 4
ENDMDL
MODEL 4
REMARK VINA RESULT:      -4.4      2.013      4.424
REMARK  4 active torsions:
REMARK  status: ('A' for Active; 'I' for Inactive)
REMARK    1  A    between atoms: C_2  and  C_1 
REMARK    2  A    between atoms: C_3  and  C_1 
REMARK    3  A    between atoms: C_4  and  C_2 
REMARK    4  A    between atoms: C_9  and  C_3 
ROOT
ATOM      1  C   UNL d   1     -41.437-123.054 -53.499  0.00  0.00     0.196 C 
ATOM      2  O   UNL d   1     -41.133-123.817 -53.579  0.00  0.00    -0.287 OA
ENDROOT
BRANCH   1   3
ATOM      3  C   UNL d   1     -41.478-122.703 -52.748  0.00  0.00     0.042 C 
BRANCH   3   4
ATOM      4  C   UNL d   1     -41.127-123.074 -52.101  0.00  0.00     0.005 C 
BRANCH   4   5
ATOM      5  C   UNL d   1     -41.432-122.952 -51.347  0.00  0.00     0.019 A 
ATOM      6  C   UNL d   1     -41.523-122.183 -51.056  0.00  0.00     0.099 A 
ATOM      7  N   UNL d   1     -41.828-122.060 -50.302  0.00  0.00    -0.242 NA
ATOM      8  C   UNL d   1     -42.046-122.707 -49.832  0.00  0.00     0.099 A 
ATOM      9  C   UNL d   1     -41.956-123.473 -50.119  0.00  0.00     0.021 A 
ATOM     10  C   UNL d   1     -41.650-123.599 -50.876  0.00  0.00     0.003 A 
ENDBRANCH   4   5
ENDBRANCH   3   4
ENDBRANCH   1   3
BRANCH   1  11
ATOM     11  C   UNL d   1     -41.699-122.644 -54.163  0.00  0.00     0.039 A 
ATOM     12  C   UNL d   1     -41.348-122.788 -54.891  0.00  0.00     0.006 A 
ATOM     13  C   UNL d   1     -41.609-122.378 -55.558  0.00  0.00     0.042 A 
ATOM     14  C   UNL d   1     -42.225-121.821 -55.492  0.00  0.00     0.196 A 
ATOM     15  C   UNL d   1     -42.572-121.682 -54.756  0.00  0.00     0.042 A 
ATOM     16  O   UNL d   1     -42.483-121.412 -56.162  0.00  0.00    -0.287 OA
ATOM     17  C   UNL d   1     -42.310-122.093 -54.093  0.00  0.00     0.006 A 
ENDBRANCH   1  11
TORSDOF 4
ENDMDL
MODEL 5
REMARK VINA RESULT:      -2.9      1.244      1.735
REMARK  4 active torsions:
REMARK  status: ('A' for Active; 'I' for Inactive)
REMARK    1  A    between atoms: C_2  and  C_1 
REMARK    2  A    between atoms: C_3  and  C_1 
REMARK    3  A    between atoms: C_4  and  C_2 
REMARK    4  A    between atoms: C_9  and  C_3 
ROOT
ATOM      1  C   UNL d   1     -42.248-123.422 -49.920  0.00  0.00     0.196 C 
ATOM      2  O   UNL d   1     -42.925-123.817 -50.178  0.00  0.00    -0.287 OA
ENDROOT
BRANCH   1   3
ATOM      3  C   UNL d   1     -41.718-123.108 -50.476  0.00  0.00     0.042 C 
BRANCH   3   4
ATOM      4  C   UNL d   1     -41.595-123.496 -51.194  0.00  0.00     0.005 C 
BRANCH   4   5
ATOM      5  C   UNL d   1     -41.438-123.057 -51.872  0.00  0.00     0.019 A 
ATOM      6  C   UNL d   1     -41.286-122.246 -51.814  0.00  0.00     0.099 A 
ATOM      7  N   UNL d   1     -41.129-121.808 -52.492  0.00  0.00    -0.242 NA
ATOM      8  C   UNL d   1     -41.123-122.178 -53.234  0.00  0.00     0.099 A 
ATOM      9  C   UNL d   1     -41.274-122.984 -53.294  0.00  0.00     0.021 A 
ATOM     10  C   UNL d   1     -41.433-123.427 -52.613  0.00  0.00     0.003 A 
ENDBRANCH   4   5
ENDBRANCH   3   4
ENDBRANCH   1   3
BRANCH   1  11
ATOM     11  C   UNL d   1     -42.100-123.341 -49.115  0.00  0.00     0.039 A 
ATOM     12  C   UNL d   1     -41.417-123.667 -48.795  0.00  0.00     0.006 A 
ATOM     13  C   UNL d   1     -41.266-123.587 -47.988  0.00  0.00     0.042 A 
ATOM     14  C   UNL d   1     -41.803-123.177 -47.501  0.00  0.00     0.196 A 
ATOM     15  C   UNL d   1     -42.486-122.852 -47.830  0.00  0.00     0.042 A 
ATOM     16  O   UNL d   1     -41.648-123.099 -46.693  0.00  0.00    -0.287 OA
ATOM     17  C   UNL d   1     -42.635-122.933 -48.635  0.00  0.00     0.006 A 
ENDBRANCH   1  11
TORSDOF 4
ENDMDL
