MODEL 1
REMARK VINA RESULT:      -4.4      0.000      0.000
REMARK  2 active torsions:
REMARK  status: ('A' for Active; 'I' for Inactive)
REMARK    1  A    between atoms: C_6  and  C_4 
REMARK    2  A    between atoms: C_7  and  C_6 
ROOT
ATOM      1  N   UNL d   1     -41.316-122.427 -51.937  0.00  0.00    -0.163 NA
ATOM      2  C   UNL d   1     -41.280-122.040 -52.661  0.00  0.00     0.288 A 
ATOM      3  C   UNL d   1     -41.448-123.228 -52.083  0.00  0.00     0.313 A 
ATOM      4  C   UNL d   1     -41.390-122.601 -53.258  0.00  0.00     0.098 A 
ATOM      5  S   UNL d   1     -41.494-123.337 -52.898  0.00  0.00    -0.020 SA
ATOM      6  O   UNL d   1     -41.157-121.238 -52.778  0.00  0.00    -0.265 OA
ATOM      7  O   UNL d   1     -41.521-123.817 -51.511  0.00  0.00    -0.258 OA
ENDROOT
BRANCH   4   8
ATOM      8  C   UNL d   1     -41.455-122.833 -54.050  0.00  0.00     0.075 C 
ATOM      9  C   UNL d   1     -41.123-123.541 -54.306  0.00  0.00     0.007 C 
BRANCH   8  10
ATOM     10  C   UNL d   1     -41.855-122.353 -54.590  0.00  0.00     0.211 C 
ATOM     11  O   UNL d   1     -41.427-121.869 -55.103  0.00  0.00    -0.644 OA
ATOM     12  O   UNL d   1     -42.676-122.354 -54.621  0.00  0.00    -0.644 OA
ENDBRANCH   8  10
ENDBRANCH   4   8
TORSDOF 2
ENDMDL
MODEL 2
REMARK VINA RESULT:      -4.3      1.426      2.708
REMARK  2 active torsions:
REMARK  status: ('A' for Active; 'I' for Inactive)
REMARK    1  A    between atoms: C_6  and  C_4 
REMARK    2  A    between atoms: C_7  and  C_6 
ROOT
ATOM      1  N   UNL d   1     -42.523-121.579 -55.178  0.00  0.00    -0.163 NA
ATOM      2  C   UNL d   1     -42.590-121.794 -54.388  0.00  0.00     0.288 A 
ATOM      3  C   UNL d   1     -41.843-121.936 -55.481  0.00  0.00     0.313 A 
ATOM      4  C   UNL d   1     -41.953-122.285 -54.199  0.00  0.00     0.098 A 
ATOM      5  S   UNL d   1     -41.490-122.372 -54.878  0.00  0.00    -0.020 SA
ATOM      6  O   UNL d   1     -43.184-121.566 -53.871  0.00  0.00    -0.265 OA
ATOM      7  O   UNL d   1     -41.566-121.867 -56.255  0.00  0.00    -0.258 OA
ENDROOT
BRANCH   4   8
ATOM      8  C   UNL d   1     -41.510-122.753 -53.679  0.00  0.00     0.075 C 
ATOM      9  C   UNL d   1     -41.123-123.427 -53.951  0.00  0.00     0.007 C 
BRANCH   8  10
ATOM     10  C   UNL d   1     -41.455-122.547 -52.882  0.00  0.00     0.211 C 
ATOM     11  O   UNL d   1     -41.734-123.066 -52.304  0.00  0.00    -0.644 OA
ATOM     12  O   UNL d   1     -41.124-121.829 -52.658  0.00  0.00    -0.644 OA
ENDBRANCH   8  10
ENDBRANCH   4   8
TORSDOF 2
ENDMDL
MODEL 3
REMARK VINA RESULT:      -3.9      1.531      3.022
REMARK  2 active torsions:
REMARK  status: ('A' for Active; 'I' for Inactive)
REMARK    1  A    between atoms: C_6  and  C_4 
REMARK    2  A    between atoms: C_7  and  C_6 
ROOT
ATOM      1  N   UNL d   1     -41.131-121.919 -52.483  0.00  0.00    -0.163 NA
ATOM      2  C   UNL d   1     -41.245-121.840 -51.672  0.00  0.00     0.288 A 
ATOM      3  C   UNL d   1     -41.200-122.719 -52.672  0.00  0.00     0.313 A 
ATOM      4  C   UNL d   1     -41.384-122.591 -51.358  0.00  0.00     0.098 A 
ATOM      5  S   UNL d   1     -41.356-123.135 -51.978  0.00  0.00    -0.020 SA
ATOM      6  O   UNL d   1     -41.225-121.141 -51.245  0.00  0.00    -0.265 OA
ATOM      7  O   UNL d   1     -41.125-123.045 -53.426  0.00  0.00    -0.258 OA
ENDROOT
BRANCH   4   8
ATOM      8  C   UNL d   1     -41.543-123.112 -50.735  0.00  0.00     0.075 C 
ATOM      9  C   UNL d   1     -41.124-123.817 -50.663  0.00  0.00     0.007 C 
BRANCH   8  10
ATOM     10  C   UNL d   1     -42.125-122.928 -50.179  0.00  0.00     0.211 C 
ATOM     11  O   UNL d   1     -41.909-122.736 -49.407  0.00  0.00    -0.644 OA
ATOM     12  O   UNL d   1     -42.920-122.935 -50.389  0.00  0.00    -0.644 OA
ENDBRANCH   8  10
ENDBRANCH   4   8
TORSDOF 2
ENDMDL
MODEL 4
REMARK VINA RESULT:      -3.7      2.497      3.280
REMARK  2 active torsions:
REMARK  status: ('A' for Active; 'I' for Inactive)
REMARK    1  A    between atoms: C_6  and  C_4 
REMARK    2  A    between atoms: C_7  and  C_6 
ROOT
ATOM      1  N   UNL d   1     -42.501-122.863 -48.989  0.00  0.00    -0.163 NA
ATOM      2  C   UNL d   1     -42.653-122.694 -49.778  0.00  0.00     0.288 A 
ATOM      3  C   UNL d   1     -41.726-123.138 -48.932  0.00  0.00     0.313 A 
ATOM      4  C   UNL d   1     -41.972-122.863 -50.213  0.00  0.00     0.098 A 
ATOM      5  S   UNL d   1     -41.397-123.139 -49.688  0.00  0.00    -0.020 SA
ATOM      6  O   UNL d   1     -43.356-122.406 -50.088  0.00  0.00    -0.265 OA
ATOM      7  O   UNL d   1     -41.345-123.371 -48.239  0.00  0.00    -0.258 OA
ENDROOT
BRANCH   4   8
ATOM      8  C   UNL d   1     -41.537-122.908 -50.917  0.00  0.00     0.075 C 
ATOM      9  C   UNL d   1     -41.123-123.594 -51.109  0.00  0.00     0.007 C 
BRANCH   8  10
ATOM     10  C   UNL d   1     -41.515-122.264 -51.432  0.00  0.00     0.211 C 
ATOM     11  O   UNL d   1     -41.891-122.312 -52.165  0.00  0.00    -0.644 OA
ATOM     12  O   UNL d   1     -41.123-121.574 -51.220  0.00  0.00    -0.644 OA
ENDBRANCH   8  10
ENDBRANCH   4   8
TORSDOF 2
ENDMDL
MODEL 5
REMARK VINA RESULT:      -3.6      1.071      1.348
REMARK  2 active torsions:
REMARK  status: ('A' for Active; 'I' for Inactive)
REMARK    1  A    between atoms: C_6  and  C_4 
REMARK    2  A    between atoms: C_7  and  C_6 
ROOT
ATOM      1  N   UNL d   1     -41.453-122.046 -50.791  0.00  0.00    -0.163 NA
ATOM      2  C   UNL d   1     -41.369-121.772 -51.562  0.00  0.00     0.288 A 
ATOM      3  C   UNL d   1     -41.545-122.865 -50.821  0.00  0.00     0.313 A 
ATOM      4  C   UNL d   1     -41.407-122.422 -52.071  0.00  0.00     0.098 A 
ATOM      5  S   UNL d   1     -41.517-123.099 -51.611  0.00  0.00    -0.020 SA
ATOM      6  O   UNL d   1     -41.264-120.993 -51.792  0.00  0.00    -0.265 OA
ATOM      7  O   UNL d   1     -41.647-123.364 -50.172  0.00  0.00    -0.258 OA
ENDROOT
BRANCH   4   8
ATOM      8  C   UNL d   1     -41.396-122.774 -52.820  0.00  0.00     0.075 C 
ATOM      9  C   UNL d   1     -41.123-123.545 -52.915  0.00  0.00     0.007 C 
BRANCH   8  10
ATOM     10  C   UNL d   1     -41.659-122.353 -53.480  0.00  0.00     0.211 C 
ATOM     11  O   UNL d   1     -42.464-122.333 -53.659  0.00  0.00    -0.644 OA
ATOM     12  O   UNL d   1     -41.125-121.953 -53.960  0.00  0.00    -0.644 OA
ENDBRANCH   8  10
ENDBRANCH   4   8
TORSDOF 2
ENDMDL
MODEL 6
REMARK VINA RESULT:      -3.2      1.288      2.855
REMARK  2 active torsions:
REMARK  status: ('A' for Active; 'I' for Inactive)
REMARK    1  A    between atoms: C_6  and  C_4 
REMARK    2  A    between atoms: C_7  and  C_6 
ROOT
ATOM      1  N   UNL d   1     -41.655-122.731 -53.834  0.00  0.00    -0.163 NA
ATOM      2  C   UNL d   1     -41.428-123.047 -53.110  0.00  0.00     0.288 A 
ATOM      3  C   UNL d   1     -41.929-121.964 -53.702  0.00  0.00     0.313 A 
ATOM      4  C   UNL d   1     -41.561-122.477 -52.528  0.00  0.00     0.098 A 
ATOM      5  S   UNL d   1     -41.871-121.805 -52.896  0.00  0.00    -0.020 SA
ATOM      6  O   UNL d   1     -41.123-123.797 -52.981  0.00  0.00    -0.265 OA
ATOM      7  O   UNL d   1     -42.211-121.447 -54.279  0.00  0.00    -0.258 OA
ENDROOT
BRANCH   4   8
ATOM      8  C   UNL d   1     -41.551-122.203 -51.746  0.00  0.00     0.075 C 
ATOM      9  C   UNL d   1     -41.124-121.528 -51.545  0.00  0.00     0.007 C 
BRANCH   8  10
ATOM     10  C   UNL d   1     -41.970-122.607 -51.161  0.00  0.00     0.211 C 
ATOM     11  O   UNL d   1     -42.699-122.317 -50.906  0.00  0.00    -0.644 OA
ATOM     12  O   UNL d   1     -41.667-123.295 -50.830  0.00  0.00    -0.644 OA
ENDBRANCH   8  10
ENDBRANCH   4   8
TORSDOF 2
ENDMDL
MODEL 7
REMARK VINA RESULT:      -3.2      2.979      4.641
REMARK  2 active torsions:
REMARK  status: ('A' for Active; 'I' for Inactive)
REMARK    1  A    between atoms: C_6  and  C_4 
REMARK    2  A    between atoms: C_7  and  C_6 
ROOT
ATOM      1  N   UNL d   1     -42.509-122.290 -50.788  0.00  0.00    -0.163 NA
ATOM      2  C   UNL d   1     -42.867-122.599 -50.116  0.00  0.00     0.288 A 
ATOM      3  C   UNL d   1     -41.692-122.373 -50.702  0.00  0.00     0.313 A 
ATOM      4  C   UNL d   1     -42.273-122.874 -49.612  0.00  0.00     0.098 A 
ATOM      5  S   UNL d   1     -41.545-122.733 -49.976  0.00  0.00    -0.020 SA
ATOM      6  O   UNL d   1     -43.672-122.632 -49.965  0.00  0.00    -0.265 OA
ATOM      7  O   UNL d   1     -41.123-122.135 -51.249  0.00  0.00    -0.258 OA
ENDROOT
BRANCH   4   8
ATOM      8  C   UNL d   1     -42.002-123.227 -48.914  0.00  0.00     0.075 C 
ATOM      9  C   UNL d   1     -41.281-123.624 -48.899  0.00  0.00     0.007 C 
BRANCH   8  10
ATOM     10  C   UNL d   1     -42.456-123.184 -48.225  0.00  0.00     0.211 C 
ATOM     11  O   UNL d   1     -43.045-123.744 -48.086  0.00  0.00    -0.644 OA
ATOM     12  O   UNL d   1     -42.325-122.586 -47.676  0.00  0.00    -0.644 OA
ENDBRANCH   8  10
ENDBRANCH   4   8
TORSDOF 2
ENDMDL
MODEL 8
REMARK VINA RESULT:      -1.9      2.739      4.389
REMARK  2 active torsions:
REMARK  status: ('A' for Active; 'I' for Inactive)
REMARK    1  A    between atoms: C_6  and  C_4 
REMARK    2  A    between atoms: C_7  and  C_6 
ROOT
ATOM      1  N   UNL d   1     -41.921-122.420 -51.008  0.00  0.00    -0.163 NA
ATOM      2  C   UNL d   1     -42.103-122.198 -50.237  0.00  0.00     0.288 A 
ATOM      3  C   UNL d   1     -41.918-123.245 -51.040  0.00  0.00     0.313 A 
ATOM      4  C   UNL d   1     -42.212-122.884 -49.791  0.00  0.00     0.098 A 
ATOM      5  S   UNL d   1     -42.097-123.533 -50.290  0.00  0.00    -0.020 SA
ATOM      6  O   UNL d   1     -42.166-121.431 -49.955  0.00  0.00    -0.265 OA
ATOM      7  O   UNL d   1     -41.761-123.700 -51.709  0.00  0.00    -0.258 OA
ENDROOT
BRANCH   4   8
ATOM      8  C   UNL d   1     -42.381-123.289 -49.089  0.00  0.00     0.075 C 
ATOM      9  C   UNL d   1     -43.032-123.791 -49.042  0.00  0.00     0.007 C 
BRANCH   8  10
ATOM     10  C   UNL d   1     -41.895-123.192 -48.428  0.00  0.00     0.211 C 
ATOM     11  O   UNL d   1     -42.142-122.710 -47.806  0.00  0.00    -0.644 OA
ATOM     12  O   UNL d   1     -41.168-123.571 -48.385  0.00  0.00    -0.644 OA
ENDBRANCH   8  10
ENDBRANCH   4   8
TORSDOF 2
ENDMDL
MODEL 9
REMARK VINA RESULT:      -1.4      0.980      1.211
REMARK  2 active torsions:
REMARK  status: ('A' for Active; 'I' for Inactive)
REMARK    1  A    between atoms: C_6  and  C_4 
REMARK    2  A    between atoms: C_7  and  C_6 
ROOT
ATOM      1  N   UNL d   1     -41.140-122.172 -52.781  0.00  0.00    -0.163 NA
ATOM      2  C   UNL d   1     -41.470-121.610 -53.282  0.00  0.00     0.288 A 
ATOM      3  C   UNL d   1     -41.341-122.918 -53.068  0.00  0.00     0.313 A 
ATOM      4  C   UNL d   1     -41.877-122.008 -53.881  0.00  0.00     0.098 A 
ATOM      5  S   UNL d   1     -41.796-122.819 -53.748  0.00  0.00    -0.020 SA
ATOM      6  O   UNL d   1     -41.409-120.796 -53.207  0.00  0.00    -0.265 OA
ATOM      7  O   UNL d   1     -41.124-123.640 -52.732  0.00  0.00    -0.258 OA
ENDROOT
BRANCH   4   8
ATOM      8  C   UNL d   1     -42.338-122.034 -54.568  0.00  0.00     0.075 C 
ATOM      9  C   UNL d   1     -43.148-122.173 -54.522  0.00  0.00     0.007 C 
BRANCH   8  10
ATOM     10  C   UNL d   1     -41.987-121.921 -55.307  0.00  0.00     0.211 C 
ATOM     11  O   UNL d   1     -41.509-121.262 -55.437  0.00  0.00    -0.644 OA
ATOM     12  O   UNL d   1     -42.111-122.461 -55.914  0.00  0.00    -0.644 OA
ENDBRANCH   8  10
ENDBRANCH   4   8
TORSDOF 2
ENDMDL
