MODEL 1
REMARK VINA RESULT:      -5.1      0.000      0.000
REMARK  6 active torsions:
REMARK  status: ('A' for Active; 'I' for Inactive)
REMARK    1  A    between atoms: N_8  and  S_1 
REMARK    2  A    between atoms: C_10  and  S_1 
REMARK    3  A    between atoms: C_2  and  N_6 
REMARK       I    between atoms: N_6  and  C_9 
REMARK    4  A    between atoms: C_9  and  C_15 
REMARK    5  A    between atoms: O_26  and  C_13 
REMARK    6  A    between atoms: O_27  and  C_14 
ROOT
ATOM      1  N   UNL d   1     -47.967  15.175  22.359  0.00  0.00    -0.183 NA
ATOM      2  C   UNL d   1     -47.180  15.148  22.620  0.00  0.00     0.281 C 
ATOM      3  O   UNL d   1     -46.769  15.852  22.738  0.00  0.00    -0.265 OA
ENDROOT
BRANCH   2   4
ATOM      4  C   UNL d   1     -46.831  14.429  22.752  0.00  0.00     0.058 A 
ATOM      5  C   UNL d   1     -46.975  14.010  23.442  0.00  0.00     0.005 A 
ATOM      6  C   UNL d   1     -46.620  13.280  23.575  0.00  0.00     0.013 A 
ATOM      7  C   UNL d   1     -46.110  12.962  23.004  0.00  0.00     0.104 A 
ATOM      8  C   UNL d   1     -45.960  13.379  22.306  0.00  0.00     0.013 A 
ATOM      9  C   UNL d   1     -46.321  14.111  22.181  0.00  0.00     0.005 A 
BRANCH   7  10
ATOM     10  S   UNL d   1     -45.753  12.228  23.136  0.00  0.00     0.272 S 
ATOM     11  O   UNL d   1     -46.361  12.030  23.663  0.00  0.00    -0.200 OA
ATOM     12  O   UNL d   1     -45.151  12.431  22.611  0.00  0.00    -0.200 OA
BRANCH  10  13
ATOM     13  N   UNL d   1     -45.394  11.498  23.264  0.00  0.00    -0.225 N 
ATOM     14  C   UNL d   1     -44.601  11.394  23.093  0.00  0.00     0.118 A 
ATOM     15  C   UNL d   1     -44.250  10.658  23.226  0.00  0.00     0.142 A 
ATOM     16  O   UNL d   1     -44.692  10.041  23.525  0.00  0.00    -0.300 OA
ATOM     17  C   UNL d   1     -45.489  10.148  23.696  0.00  0.00     0.142 A 
ATOM     18  C   UNL d   1     -45.840  10.874  23.567  0.00  0.00     0.118 A 
ENDBRANCH  10  13
ENDBRANCH   7  10
ENDBRANCH   2   4
BRANCH   1  19
ATOM     19  C   UNL d   1     -48.392  14.466  22.236  0.00  0.00     0.197 A 
ATOM     20  N   UNL d   1     -48.304  13.951  21.598  0.00  0.00    -0.218 NA
ATOM     21  C   UNL d   1     -48.830  13.329  21.702  0.00  0.00     0.114 A 
ATOM     22  C   UNL d   1     -48.993  12.658  21.255  0.00  0.00     0.112 A 
ATOM     23  C   UNL d   1     -49.242  13.461  22.404  0.00  0.00     0.074 A 
ATOM     24  C   UNL d   1     -49.564  12.117  21.502  0.00  0.00     0.028 A 
ATOM     25  C   UNL d   1     -49.976  12.257  22.212  0.00  0.00     0.027 A 
ATOM     26  C   UNL d   1     -49.816  12.924  22.659  0.00  0.00     0.102 A 
ATOM     27  S   UNL d   1     -48.963  14.171  22.730  0.00  0.00    -0.045 SA
BRANCH  22  28
ATOM     28  O   UNL d   1     -48.580  12.517  20.541  0.00  0.00    -0.327 OA
ATOM     29  C   UNL d   1     -48.466  11.744  20.276  0.00  0.00     0.181 C 
ENDBRANCH  22  28
BRANCH  26  30
ATOM     30  O   UNL d   1     -50.229  13.065  23.372  0.00  0.00    -0.328 OA
ATOM     31  C   UNL d   1     -50.811  12.538  23.620  0.00  0.00     0.181 C 
ENDBRANCH  26  30
ENDBRANCH   1  19
TORSDOF 6
ENDMDL
MODEL 2
REMARK VINA RESULT:      -3.6      6.771      8.638
REMARK  6 active torsions:
REMARK  status: ('A' for Active; 'I' for Inactive)
REMARK    1  A    between atoms: N_8  and  S_1 
REMARK    2  A    between atoms: C_10  and  S_1 
REMARK    3  A    between atoms: C_2  and  N_6 
REMARK       I    between atoms: N_6  and  C_9 
REMARK    4  A    between atoms: C_9  and  C_15 
REMARK    5  A    between atoms: O_26  and  C_13 
REMARK    6  A    between atoms: O_27  and  C_14 
ROOT
ATOM      1  N   UNL d   1     -38.163  15.691  20.024  0.00  0.00    -0.183 NA
ATOM      2  C   UNL d   1     -38.479  15.590  20.785  0.00  0.00     0.281 C 
ATOM      3  O   UNL d   1     -38.091  15.922  21.431  0.00  0.00    -0.265 OA
ENDROOT
BRANCH   2   4
ATOM      4  C   UNL d   1     -39.164  15.166  20.875  0.00  0.00     0.058 A 
ATOM      5  C   UNL d   1     -39.895  15.538  20.869  0.00  0.00     0.005 A 
ATOM      6  C   UNL d   1     -40.589  15.105  20.961  0.00  0.00     0.013 A 
ATOM      7  C   UNL d   1     -40.551  14.284  21.061  0.00  0.00     0.104 A 
ATOM      8  C   UNL d   1     -39.817  13.902  21.068  0.00  0.00     0.013 A 
ATOM      9  C   UNL d   1     -39.125  14.344  20.975  0.00  0.00     0.005 A 
BRANCH   7  10
ATOM     10  S   UNL d   1     -41.246  13.848  21.153  0.00  0.00     0.272 S 
ATOM     11  O   UNL d   1     -40.811  13.234  21.503  0.00  0.00    -0.200 OA
ATOM     12  O   UNL d   1     -41.673  14.461  20.806  0.00  0.00    -0.200 OA
BRANCH  10  13
ATOM     13  N   UNL d   1     -41.941  13.416  21.244  0.00  0.00    -0.225 N 
ATOM     14  C   UNL d   1     -42.047  12.941  21.902  0.00  0.00     0.118 A 
ATOM     15  C   UNL d   1     -42.748  12.511  21.985  0.00  0.00     0.142 A 
ATOM     16  O   UNL d   1     -43.328  12.560  21.414  0.00  0.00    -0.300 OA
ATOM     17  C   UNL d   1     -43.220  13.038  20.753  0.00  0.00     0.142 A 
ATOM     18  C   UNL d   1     -42.529  13.464  20.668  0.00  0.00     0.118 A 
ENDBRANCH  10  13
ENDBRANCH   7  10
ENDBRANCH   2   4
BRANCH   1  19
ATOM     19  C   UNL d   1     -38.549  15.358  19.362  0.00  0.00     0.197 A 
ATOM     20  N   UNL d   1     -39.163  15.703  18.933  0.00  0.00    -0.218 NA
ATOM     21  C   UNL d   1     -39.373  15.185  18.332  0.00  0.00     0.114 A 
ATOM     22  C   UNL d   1     -39.940  15.223  17.737  0.00  0.00     0.112 A 
ATOM     23  C   UNL d   1     -38.889  14.520  18.391  0.00  0.00     0.074 A 
ATOM     24  C   UNL d   1     -40.027  14.604  17.199  0.00  0.00     0.028 A 
ATOM     25  C   UNL d   1     -39.535  13.937  17.264  0.00  0.00     0.027 A 
ATOM     26  C   UNL d   1     -38.970  13.895  17.856  0.00  0.00     0.102 A 
ATOM     27  S   UNL d   1     -38.379  14.636  19.034  0.00  0.00    -0.045 SA
BRANCH  22  28
ATOM     28  O   UNL d   1     -40.435  15.894  17.670  0.00  0.00    -0.327 OA
ATOM     29  C   UNL d   1     -41.128  15.852  17.224  0.00  0.00     0.181 C 
ENDBRANCH  22  28
BRANCH  26  30
ATOM     30  O   UNL d   1     -38.474  13.225  17.922  0.00  0.00    -0.328 OA
ATOM     31  C   UNL d   1     -38.433  12.683  17.304  0.00  0.00     0.181 C 
ENDBRANCH  26  30
ENDBRANCH   1  19
TORSDOF 6
ENDMDL
MODEL 3
REMARK VINA RESULT:      -3.6      1.883      3.101
REMARK  6 active torsions:
REMARK  status: ('A' for Active; 'I' for Inactive)
REMARK    1  A    between atoms: N_8  and  S_1 
REMARK    2  A    between atoms: C_10  and  S_1 
REMARK    3  A    between atoms: C_2  and  N_6 
REMARK       I    between atoms: N_6  and  C_9 
REMARK    4  A    between atoms: C_9  and  C_15 
REMARK    5  A    between atoms: O_26  and  C_13 
REMARK    6  A    between atoms: O_27  and  C_14 
ROOT
ATOM      1  N   UNL d   1     -50.053  11.518  23.247  0.00  0.00    -0.183 NA
ATOM      2  C   UNL d   1     -49.315  11.151  23.344  0.00  0.00     0.281 C 
ATOM      3  O   UNL d   1     -49.282  10.384  23.642  0.00  0.00    -0.265 OA
ENDROOT
BRANCH   2   4
ATOM      4  C   UNL d   1     -48.642  11.555  23.144  0.00  0.00     0.058 A 
ATOM      5  C   UNL d   1     -48.240  12.007  23.697  0.00  0.00     0.005 A 
ATOM      6  C   UNL d   1     -47.557  12.417  23.491  0.00  0.00     0.013 A 
ATOM      7  C   UNL d   1     -47.270  12.374  22.714  0.00  0.00     0.104 A 
ATOM      8  C   UNL d   1     -47.671  11.920  22.151  0.00  0.00     0.013 A 
ATOM      9  C   UNL d   1     -48.356  11.511  22.366  0.00  0.00     0.005 A 
BRANCH   7  10
ATOM     10  S   UNL d   1     -46.584  12.784  22.506  0.00  0.00     0.272 S 
ATOM     11  O   UNL d   1     -46.489  13.020  23.295  0.00  0.00    -0.200 OA
ATOM     12  O   UNL d   1     -46.684  12.547  21.723  0.00  0.00    -0.200 OA
BRANCH  10  13
ATOM     13  N   UNL d   1     -45.901  13.193  22.294  0.00  0.00    -0.225 N 
ATOM     14  C   UNL d   1     -45.209  12.785  22.143  0.00  0.00     0.118 A 
ATOM     15  C   UNL d   1     -44.529  13.203  21.932  0.00  0.00     0.142 A 
ATOM     16  O   UNL d   1     -44.548  14.017  21.875  0.00  0.00    -0.300 OA
ATOM     17  C   UNL d   1     -45.246  14.425  22.028  0.00  0.00     0.142 A 
ATOM     18  C   UNL d   1     -45.920  14.016  22.237  0.00  0.00     0.118 A 
ENDBRANCH  10  13
ENDBRANCH   7  10
ENDBRANCH   2   4
BRANCH   1  19
ATOM     19  C   UNL d   1     -50.096  12.297  22.945  0.00  0.00     0.197 A 
ATOM     20  N   UNL d   1     -49.898  12.987  23.350  0.00  0.00    -0.218 NA
ATOM     21  C   UNL d   1     -50.025  13.621  22.845  0.00  0.00     0.114 A 
ATOM     22  C   UNL d   1     -49.928  14.433  22.935  0.00  0.00     0.112 A 
ATOM     23  C   UNL d   1     -50.303  13.322  22.128  0.00  0.00     0.074 A 
ATOM     24  C   UNL d   1     -50.105  14.949  22.317  0.00  0.00     0.028 A 
ATOM     25  C   UNL d   1     -50.384  14.640  21.597  0.00  0.00     0.027 A 
ATOM     26  C   UNL d   1     -50.483  13.832  21.503  0.00  0.00     0.102 A 
ATOM     27  S   UNL d   1     -50.344  12.496  22.199  0.00  0.00    -0.045 SA
BRANCH  22  28
ATOM     28  O   UNL d   1     -49.647  14.745  23.658  0.00  0.00    -0.327 OA
ATOM     29  C   UNL d   1     -49.380  15.525  23.696  0.00  0.00     0.181 C 
ENDBRANCH  22  28
BRANCH  26  30
ATOM     30  O   UNL d   1     -50.763  13.520  20.780  0.00  0.00    -0.328 OA
ATOM     31  C   UNL d   1     -51.058  14.027  20.203  0.00  0.00     0.181 C 
ENDBRANCH  26  30
ENDBRANCH   1  19
TORSDOF 6
ENDMDL
