MODEL 1
REMARK VINA RESULT:     114.0      0.000      0.000
REMARK  4 active torsions:
REMARK  status: ('A' for Active; 'I' for Inactive)
REMARK    1  A    between atoms: C_30  and  N_11 
REMARK    2  A    between atoms: C_29  and  N_12 
REMARK    3  A    between atoms: C_16  and  C_13 
REMARK    4  A    between atoms: C_15  and  C_14 
ROOT
ATOM      1  N   UNL d   1     -50.973  25.896  33.632  0.00  0.00    -0.240 N 
ATOM      2  N   UNL d   1     -51.412  26.635  33.565  0.00  0.00    -0.240 N 
ATOM      3  C   UNL d   1     -50.152  26.088  33.697  0.00  0.00     0.144 A 
ATOM      4  C   UNL d   1     -52.233  26.443  33.499  0.00  0.00     0.144 A 
ATOM      5  C   UNL d   1     -52.315  25.582  33.525  0.00  0.00     0.097 A 
ATOM      6  C   UNL d   1     -50.078  26.942  33.671  0.00  0.00     0.097 A 
ATOM      7  C   UNL d   1     -49.371  25.763  33.779  0.00  0.00     0.285 A 
ATOM      8  C   UNL d   1     -53.009  26.787  33.417  0.00  0.00     0.285 A 
ATOM      9  C   UNL d   1     -49.253  27.135  33.737  0.00  0.00     0.270 A 
ATOM     10  C   UNL d   1     -53.149  25.401  33.458  0.00  0.00     0.270 A 
ATOM     11  N   UNL d   1     -53.578  26.142  33.392  0.00  0.00    -0.239 N 
ATOM     12  N   UNL d   1     -48.820  26.399  33.803  0.00  0.00    -0.239 N 
ATOM     13  C   UNL d   1     -51.539  25.256  33.607  0.00  0.00     0.094 A 
ATOM     14  C   UNL d   1     -50.851  27.268  33.590  0.00  0.00     0.094 A 
ATOM     15  O   UNL d   1     -53.186  27.578  33.371  0.00  0.00    -0.265 OA
ATOM     16  O   UNL d   1     -53.480  24.659  33.458  0.00  0.00    -0.266 OA
ATOM     17  O   UNL d   1     -48.928  27.880  33.737  0.00  0.00    -0.266 OA
ATOM     18  O   UNL d   1     -49.189  24.969  33.826  0.00  0.00    -0.265 OA
ENDROOT
BRANCH  13  19
ATOM     19  C   UNL d   1     -51.366  24.460  33.653  0.00  0.00     0.047 A 
ATOM     20  S   UNL d   1     -51.803  23.907  34.056  0.00  0.00    -0.085 SA
ATOM     21  C   UNL d   1     -51.436  23.191  33.957  0.00  0.00     0.035 A 
ATOM     22  C   UNL d   1     -50.774  23.304  33.493  0.00  0.00     0.007 A 
ATOM     23  C   UNL d   1     -50.742  24.096  33.311  0.00  0.00     0.009 A 
ENDBRANCH  13  19
BRANCH  11  24
ATOM     24  C   UNL d   1     -54.383  26.220  33.318  0.00  0.00     0.086 C 
ATOM     25  C   UNL d   1     -54.763  26.882  33.631  0.00  0.00     0.021 C 
ENDBRANCH  11  24
BRANCH  14  26
ATOM     26  C   UNL d   1     -51.030  28.053  33.544  0.00  0.00     0.047 A 
ATOM     27  S   UNL d   1     -50.528  28.668  33.730  0.00  0.00    -0.085 SA
ATOM     28  C   UNL d   1     -50.927  29.353  33.606  0.00  0.00     0.035 A 
ATOM     29  C   UNL d   1     -51.669  29.168  33.346  0.00  0.00     0.007 A 
ATOM     30  C   UNL d   1     -51.732  28.367  33.308  0.00  0.00     0.009 A 
ENDBRANCH  14  26
BRANCH  12  31
ATOM     31  C   UNL d   1     -48.008  26.333  33.878  0.00  0.00     0.086 C 
ATOM     32  C   UNL d   1     -47.621  26.704  34.505  0.00  0.00     0.021 C 
ENDBRANCH  12  31
TORSDOF 4
ENDMDL
