MODEL 1
REMARK VINA RESULT:     110.0      0.000      0.000
REMARK  5 active torsions:
REMARK  status: ('A' for Active; 'I' for Inactive)
REMARK    1  A    between atoms: C_7  and  C_1 
REMARK    2  A    between atoms: C_8  and  C_2 
REMARK    3  A    between atoms: O_22  and  C_8 
REMARK    4  A    between atoms: C_24  and  C_14 
REMARK    5  A    between atoms: C_27  and  O_22 
ROOT
ATOM      1  C   UNL d   1     -55.004-100.553 -41.894  0.00  0.00     0.067 A 
ATOM      2  C   UNL d   1     -55.173-101.346 -42.046  0.00  0.00     0.166 A 
ATOM      3  C   UNL d   1     -54.881-100.029 -42.526  0.00  0.00     0.200 A 
ATOM      4  C   UNL d   1     -54.928-100.299 -43.303  0.00  0.00     0.062 A 
ATOM      5  O   UNL d   1     -55.220-101.615 -42.829  0.00  0.00    -0.301 OA
ATOM      6  C   UNL d   1     -55.098-101.092 -43.454  0.00  0.00     0.106 A 
ATOM      7  C   UNL d   1     -54.806 -99.778 -43.927  0.00  0.00     0.008 A 
ATOM      8  C   UNL d   1     -55.145-101.364 -44.230  0.00  0.00     0.067 A 
ATOM      9  C   UNL d   1     -55.023-100.841 -44.855  0.00  0.00     0.198 A 
ATOM     10  C   UNL d   1     -54.853-100.048 -44.703  0.00  0.00     0.039 A 
ATOM     11  O   UNL d   1     -54.712 -99.236 -42.375  0.00  0.00    -0.286 OA
ATOM     12  O   UNL d   1     -55.070-101.110 -45.643  0.00  0.00    -0.286 OA
ENDROOT
BRANCH   1  13
ATOM     13  C   UNL d   1     -54.956-100.282 -41.118  0.00  0.00     0.007 A 
ATOM     14  C   UNL d   1     -54.881-100.821 -40.495  0.00  0.00     0.027 A 
ATOM     15  C   UNL d   1     -54.834-100.551 -39.720  0.00  0.00     0.123 A 
ATOM     16  O   UNL d   1     -54.759-101.093 -39.102  0.00  0.00    -0.301 OA
ATOM     17  C   UNL d   1     -54.862 -99.742 -39.562  0.00  0.00     0.123 A 
ATOM     18  C   UNL d   1     -54.711-100.813 -38.311  0.00  0.00     0.149 A 
ATOM     19  C   UNL d   1     -54.738-100.005 -38.145  0.00  0.00     0.149 A 
ATOM     20  O   UNL d   1     -54.814 -99.465 -38.772  0.00  0.00    -0.301 OA
ATOM     21  C   UNL d   1     -54.937 -99.202 -40.184  0.00  0.00     0.027 A 
ATOM     22  C   UNL d   1     -54.984 -99.473 -40.960  0.00  0.00     0.002 A 
ENDBRANCH   1  13
BRANCH   2  23
ATOM     23  C   UNL d   1     -55.295-101.869 -41.417  0.00  0.00     0.323 C 
ATOM     24  O   UNL d   1     -54.712-102.417 -41.218  0.00  0.00    -0.257 OA
BRANCH  23  25
ATOM     25  O   UNL d   1     -56.000-101.843 -40.991  0.00  0.00    -0.270 OA
BRANCH  25  26
ATOM     26  C   UNL d   1     -56.342-102.542 -40.722  0.00  0.00     0.126 C 
ATOM     27  C   UNL d   1     -56.973-102.874 -41.134  0.00  0.00     0.029 C 
ENDBRANCH  25  26
ENDBRANCH  23  25
ENDBRANCH   2  23
BRANCH  10  28
ATOM     28  C   UNL d   1     -54.731 -99.525 -45.332  0.00  0.00     0.003 C 
ATOM     29  C   UNL d   1     -55.083 -98.779 -45.330  0.00  0.00     0.000 C 
ENDBRANCH  10  28
TORSDOF 5
ENDMDL
