MODEL 1
REMARK VINA RESULT:      85.4      0.000      0.000
REMARK  4 active torsions:
REMARK  status: ('A' for Active; 'I' for Inactive)
REMARK    1  A    between atoms: N_2  and  C_9 
REMARK    2  A    between atoms: C_11  and  C_5 
REMARK    3  A    between atoms: C_6  and  C_7 
REMARK       I    between atoms: C_7  and  N_10 
REMARK    4  A    between atoms: N_10  and  C_21 
ROOT
ATOM      1  C   UNL d   1     -55.521-102.389 -39.186  0.00  0.00     0.019 A 
ATOM      2  C   UNL d   1     -54.900-102.743 -39.605  0.00  0.00     0.003 A 
ATOM      3  C   UNL d   1     -56.215-102.168 -39.572  0.00  0.00     0.003 A 
ATOM      4  C   UNL d   1     -55.674-102.652 -40.804  0.00  0.00     0.085 A 
ATOM      5  C   UNL d   1     -56.287-102.301 -40.381  0.00  0.00     0.019 A 
ATOM      6  C   UNL d   1     -54.982-102.872 -40.414  0.00  0.00     0.019 A 
ENDROOT
BRANCH   4   7
ATOM      7  N   UNL d   1     -55.749-102.785 -41.618  0.00  0.00    -0.208 NA
ATOM      8  C   UNL d   1     -55.597-102.171 -42.152  0.00  0.00     0.281 C 
ATOM      9  O   UNL d   1     -55.674-102.309 -42.964  0.00  0.00    -0.265 OA
BRANCH   8  10
ATOM     10  C   UNL d   1     -55.372-101.427 -41.873  0.00  0.00     0.080 A 
ATOM     11  C   UNL d   1     -55.100-100.861 -42.404  0.00  0.00     0.131 A 
ATOM     12  C   UNL d   1     -54.875-100.119 -42.122  0.00  0.00     0.024 A 
ATOM     13  C   UNL d   1     -54.924 -99.948 -41.322  0.00  0.00     0.002 A 
ATOM     14  C   UNL d   1     -55.198-100.518 -40.792  0.00  0.00     0.000 A 
ATOM     15  C   UNL d   1     -55.423-101.261 -41.071  0.00  0.00     0.006 A 
BRANCH  11  16
ATOM     16  N   UNL d   1     -55.051-101.037 -43.214  0.00  0.00    -0.114 N 
ATOM     17  O   UNL d   1     -55.157-100.443 -43.774  0.00  0.00    -0.532 OA
ATOM     18  O   UNL d   1     -54.897-101.809 -43.461  0.00  0.00    -0.532 OA
ENDBRANCH  11  16
ENDBRANCH   8  10
ENDBRANCH   4   7
BRANCH   1  19
ATOM     19  C   UNL d   1     -55.446-102.256 -38.372  0.00  0.00     0.101 A 
ATOM     20  N   UNL d   1     -55.385-101.527 -38.000  0.00  0.00    -0.227 NA
ATOM     21  C   UNL d   1     -55.321-101.657 -37.193  0.00  0.00     0.148 A 
ATOM     22  N   UNL d   1     -55.344-102.470 -37.065  0.00  0.00    -0.288 N 
ATOM     23  C   UNL d   1     -55.246-101.140 -36.554  0.00  0.00     0.037 A 
ATOM     24  C   UNL d   1     -55.291-102.766 -36.300  0.00  0.00     0.082 A 
ATOM     25  C   UNL d   1     -55.421-102.837 -37.792  0.00  0.00     0.101 A 
ATOM     26  C   UNL d   1     -55.215-102.250 -35.661  0.00  0.00     0.019 A 
ATOM     27  C   UNL d   1     -55.193-101.437 -35.787  0.00  0.00     0.005 A 
ENDBRANCH   1  19
TORSDOF 4
ENDMDL
