MODEL 1
REMARK VINA RESULT:      -5.4      0.000      0.000
REMARK  9 active torsions:
REMARK  status: ('A' for Active; 'I' for Inactive)
REMARK    1  A    between atoms: C_3  and  C_1 
REMARK    2  A    between atoms: C_4  and  C_1 
REMARK    3  A    between atoms: C_2  and  C_4 
REMARK    4  A    between atoms: O_9  and  C_2 
REMARK       I    between atoms: N_6  and  C_3 
REMARK    5  A    between atoms: N_5  and  C_4 
REMARK    6  A    between atoms: C_10  and  N_5 
REMARK    7  A    between atoms: C_11  and  N_6 
REMARK    8  A    between atoms: C_12  and  C_10 
REMARK    9  A    between atoms: C_13  and  C_11 
ROOT
ATOM      1  C   UNK d   1     -49.703  12.914  23.081  0.00  0.00     0.124 C 
ENDROOT
BRANCH   1   2
ATOM      2  C   UNK d   1     -50.263  12.296  23.014  0.00  0.00     0.194 C 
ATOM      3  O   UNK d   1     -50.404  11.797  23.646  0.00  0.00    -0.645 OA
BRANCH   2   4
ATOM      4  O   UNK d   1     -50.680  12.187  22.299  0.00  0.00    -0.772 OA
ATOM      5  H   UNK d   1     -50.443  11.598  21.770  0.00  0.00     0.167 HD
ENDBRANCH   2   4
ENDBRANCH   1   2
BRANCH   1   6
ATOM      6  C   UNK d   1     -48.927  12.748  23.303  0.00  0.00     0.084 C 
BRANCH   6   7
ATOM      7  C   UNK d   1     -48.334  12.756  22.739  0.00  0.00     0.259 C 
ATOM      8  N   UNK d   1     -47.588  13.049  22.936  0.00  0.00    -0.320 N 
ATOM      9  H   UNK d   1     -47.439  13.335  23.707  0.00  0.00     0.169 HD
ATOM     10  O   UNK d   1     -48.481  12.471  21.971  0.00  0.00    -0.267 OA
BRANCH   8  11
ATOM     11  C   UNK d   1     -46.986  13.060  22.372  0.00  0.00     0.075 C 
BRANCH  11  12
ATOM     12  C   UNK d   1     -46.249  13.400  22.549  0.00  0.00     0.017 C 
ATOM     13  C   UNK d   1     -45.555  12.963  22.463  0.00  0.00     0.002 C 
ATOM     14  C   UNK d   1     -46.212  14.185  22.812  0.00  0.00     0.002 C 
ENDBRANCH  11  12
ENDBRANCH   8  11
ENDBRANCH   6   7
ENDBRANCH   1   6
BRANCH   1  15
ATOM     15  N   UNK d   1     -49.921  13.693  22.925  0.00  0.00    -0.347 N 
ATOM     16  H   UNK d   1     -49.801  13.999  22.160  0.00  0.00     0.166 HD
BRANCH  15  17
ATOM     17  C   UNK d   0     -50.255  14.162  23.520  0.00  0.00     0.073 C 
BRANCH  17  18
ATOM     18  C   UNK d   0     -50.417  14.951  23.377  0.00  0.00     0.017 C 
ATOM     19  C   UNK d   0     -49.933  15.537  23.698  0.00  0.00     0.002 C 
ATOM     20  C   UNK d   0     -51.064  15.159  22.912  0.00  0.00     0.002 C 
ENDBRANCH  17  18
ENDBRANCH  15  17
ENDBRANCH   1  15
TORSDOF 9
ENDMDL
MODEL 2
REMARK VINA RESULT:      -5.3      1.761      4.101
REMARK  9 active torsions:
REMARK  status: ('A' for Active; 'I' for Inactive)
REMARK    1  A    between atoms: C_3  and  C_1 
REMARK    2  A    between atoms: C_4  and  C_1 
REMARK    3  A    between atoms: C_2  and  C_4 
REMARK    4  A    between atoms: O_9  and  C_2 
REMARK       I    between atoms: N_6  and  C_3 
REMARK    5  A    between atoms: N_5  and  C_4 
REMARK    6  A    between atoms: C_10  and  N_5 
REMARK    7  A    between atoms: C_11  and  N_6 
REMARK    8  A    between atoms: C_12  and  C_10 
REMARK    9  A    between atoms: C_13  and  C_11 
ROOT
ATOM      1  C   UNK d   1     -46.787  13.534  22.850  0.00  0.00     0.124 C 
ENDROOT
BRANCH   1   2
ATOM      2  C   UNK d   1     -46.069  13.627  22.431  0.00  0.00     0.194 C 
ATOM      3  O   UNK d   1     -45.971  13.278  21.698  0.00  0.00    -0.645 OA
BRANCH   2   4
ATOM      4  O   UNK d   1     -45.449  14.078  22.761  0.00  0.00    -0.772 OA
ATOM      5  H   UNK d   1     -44.789  13.697  23.081  0.00  0.00     0.167 HD
ENDBRANCH   2   4
ENDBRANCH   1   2
BRANCH   1   6
ATOM      6  C   UNK d   1     -47.194  14.196  23.128  0.00  0.00     0.084 C 
BRANCH   6   7
ATOM      7  C   UNK d   1     -47.903  14.410  22.780  0.00  0.00     0.259 C 
ATOM      8  N   UNK d   1     -48.515  14.704  23.249  0.00  0.00    -0.320 N 
ATOM      9  H   UNK d   1     -48.411  14.783  24.075  0.00  0.00     0.169 HD
ATOM     10  O   UNK d   1     -48.008  14.332  21.958  0.00  0.00    -0.267 OA
BRANCH   8  11
ATOM     11  C   UNK d   1     -49.233  14.922  22.904  0.00  0.00     0.075 C 
BRANCH  11  12
ATOM     12  C   UNK d   1     -49.876  15.147  23.378  0.00  0.00     0.017 C 
ATOM     13  C   UNK d   1     -49.940  15.922  23.656  0.00  0.00     0.002 C 
ATOM     14  C   UNK d   1     -50.458  14.590  23.572  0.00  0.00     0.002 C 
ENDBRANCH  11  12
ENDBRANCH   8  11
ENDBRANCH   6   7
ENDBRANCH   1   6
BRANCH   1  15
ATOM     15  N   UNK d   1     -47.095  12.783  22.988  0.00  0.00    -0.347 N 
ATOM     16  H   UNK d   1     -47.872  12.614  22.741  0.00  0.00     0.166 HD
BRANCH  15  17
ATOM     17  C   UNK d   0     -46.637  12.205  23.367  0.00  0.00     0.073 C 
BRANCH  17  18
ATOM     18  C   UNK d   0     -46.976  11.494  23.587  0.00  0.00     0.017 C 
ATOM     19  C   UNK d   0     -47.792  11.442  23.698  0.00  0.00     0.002 C 
ATOM     20  C   UNK d   0     -46.501  10.830  23.698  0.00  0.00     0.002 C 
ENDBRANCH  17  18
ENDBRANCH  15  17
ENDBRANCH   1  15
TORSDOF 9
ENDMDL
MODEL 3
REMARK VINA RESULT:      -4.6      8.908     10.985
REMARK  9 active torsions:
REMARK  status: ('A' for Active; 'I' for Inactive)
REMARK    1  A    between atoms: C_3  and  C_1 
REMARK    2  A    between atoms: C_4  and  C_1 
REMARK    3  A    between atoms: C_2  and  C_4 
REMARK    4  A    between atoms: O_9  and  C_2 
REMARK       I    between atoms: N_6  and  C_3 
REMARK    5  A    between atoms: N_5  and  C_4 
REMARK    6  A    between atoms: C_10  and  N_5 
REMARK    7  A    between atoms: C_11  and  N_6 
REMARK    8  A    between atoms: C_12  and  C_10 
REMARK    9  A    between atoms: C_13  and  C_11 
ROOT
ATOM      1  C   UNK d   1     -39.947  14.814  17.339  0.00  0.00     0.124 C 
ENDROOT
BRANCH   1   2
ATOM      2  C   UNK d   1     -40.586  15.190  16.951  0.00  0.00     0.194 C 
ATOM      3  O   UNK d   1     -40.484  15.922  16.601  0.00  0.00    -0.645 OA
BRANCH   2   4
ATOM      4  O   UNK d   1     -41.332  14.817  16.920  0.00  0.00    -0.772 OA
ATOM      5  H   UNK d   1     -41.566  14.312  17.531  0.00  0.00     0.167 HD
ENDBRANCH   2   4
ENDBRANCH   1   2
BRANCH   1   6
ATOM      6  C   UNK d   1     -40.033  14.545  18.113  0.00  0.00     0.084 C 
BRANCH   6   7
ATOM      7  C   UNK d   1     -39.864  15.047  18.737  0.00  0.00     0.259 C 
ATOM      8  N   UNK d   1     -40.303  14.996  19.433  0.00  0.00    -0.320 N 
ATOM      9  H   UNK d   1     -40.919  14.434  19.501  0.00  0.00     0.169 HD
ATOM     10  O   UNK d   1     -39.251  15.607  18.671  0.00  0.00    -0.267 OA
BRANCH   8  11
ATOM     11  C   UNK d   1     -40.137  15.500  20.066  0.00  0.00     0.075 C 
BRANCH  11  12
ATOM     12  C   UNK d   1     -40.567  15.442  20.774  0.00  0.00     0.017 C 
ATOM     13  C   UNK d   1     -41.225  15.922  20.905  0.00  0.00     0.002 C 
ATOM     14  C   UNK d   1     -40.332  14.897  21.353  0.00  0.00     0.002 C 
ENDBRANCH  11  12
ENDBRANCH   8  11
ENDBRANCH   6   7
ENDBRANCH   1   6
BRANCH   1  15
ATOM     15  N   UNK d   1     -39.228  14.711  16.951  0.00  0.00    -0.347 N 
ATOM     16  H   UNK d   1     -38.675  15.334  16.955  0.00  0.00     0.166 HD
BRANCH  15  17
ATOM     17  C   UNK d   0     -39.057  13.998  16.565  0.00  0.00     0.073 C 
BRANCH  17  18
ATOM     18  C   UNK d   0     -38.328  13.887  16.214  0.00  0.00     0.017 C 
ATOM     19  C   UNK d   0     -37.941  13.162  16.282  0.00  0.00     0.002 C 
ATOM     20  C   UNK d   0     -37.978  14.502  15.791  0.00  0.00     0.002 C 
ENDBRANCH  17  18
ENDBRANCH  15  17
ENDBRANCH   1  15
TORSDOF 9
ENDMDL
MODEL 4
REMARK VINA RESULT:      -4.4      1.604      3.883
REMARK  9 active torsions:
REMARK  status: ('A' for Active; 'I' for Inactive)
REMARK    1  A    between atoms: C_3  and  C_1 
REMARK    2  A    between atoms: C_4  and  C_1 
REMARK    3  A    between atoms: C_2  and  C_4 
REMARK    4  A    between atoms: O_9  and  C_2 
REMARK       I    between atoms: N_6  and  C_3 
REMARK    5  A    between atoms: N_5  and  C_4 
REMARK    6  A    between atoms: C_10  and  N_5 
REMARK    7  A    between atoms: C_11  and  N_6 
REMARK    8  A    between atoms: C_12  and  C_10 
REMARK    9  A    between atoms: C_13  and  C_11 
ROOT
ATOM      1  C   UNK d   1     -48.006  14.488  22.701  0.00  0.00     0.124 C 
ENDROOT
BRANCH   1   2
ATOM      2  C   UNK d   1     -47.992  15.183  22.235  0.00  0.00     0.194 C 
ATOM      3  O   UNK d   1     -48.123  15.141  21.428  0.00  0.00    -0.645 OA
BRANCH   2   4
ATOM      4  O   UNK d   1     -47.843  15.922  22.591  0.00  0.00    -0.772 OA
ATOM      5  H   UNK d   1     -48.394  16.244  23.117  0.00  0.00     0.167 HD
ENDBRANCH   2   4
ENDBRANCH   1   2
BRANCH   1   6
ATOM      6  C   UNK d   1     -48.556  14.409  23.310  0.00  0.00     0.084 C 
BRANCH   6   7
ATOM      7  C   UNK d   1     -49.313  14.147  23.140  0.00  0.00     0.259 C 
ATOM      8  N   UNK d   1     -49.496  13.347  23.226  0.00  0.00    -0.320 N 
ATOM      9  H   UNK d   1     -48.912  12.808  23.485  0.00  0.00     0.169 HD
ATOM     10  O   UNK d   1     -49.895  14.683  22.882  0.00  0.00    -0.267 OA
BRANCH   8  11
ATOM     11  C   UNK d   1     -50.257  13.077  23.056  0.00  0.00     0.075 C 
BRANCH  11  12
ATOM     12  C   UNK d   1     -50.416  12.263  23.017  0.00  0.00     0.017 C 
ATOM     13  C   UNK d   1     -50.332  11.854  22.305  0.00  0.00     0.002 C 
ATOM     14  C   UNK d   1     -50.660  11.859  23.698  0.00  0.00     0.002 C 
ENDBRANCH  11  12
ENDBRANCH   8  11
ENDBRANCH   6   7
ENDBRANCH   1   6
BRANCH   1  15
ATOM     15  N   UNK d   1     -47.472  13.879  22.556  0.00  0.00    -0.347 N 
ATOM     16  H   UNK d   1     -47.720  13.226  22.101  0.00  0.00     0.166 HD
BRANCH  15  17
ATOM     17  C   UNK d   0     -46.701  13.914  22.859  0.00  0.00     0.073 C 
BRANCH  17  18
ATOM     18  C   UNK d   0     -46.197  13.277  22.770  0.00  0.00     0.017 C 
ATOM     19  C   UNK d   0     -45.597  13.300  22.204  0.00  0.00     0.002 C 
ATOM     20  C   UNK d   0     -46.289  12.611  23.246  0.00  0.00     0.002 C 
ENDBRANCH  17  18
ENDBRANCH  15  17
ENDBRANCH   1  15
TORSDOF 9
ENDMDL
MODEL 5
REMARK VINA RESULT:      -4.1      1.522      2.005
REMARK  9 active torsions:
REMARK  status: ('A' for Active; 'I' for Inactive)
REMARK    1  A    between atoms: C_3  and  C_1 
REMARK    2  A    between atoms: C_4  and  C_1 
REMARK    3  A    between atoms: C_2  and  C_4 
REMARK    4  A    between atoms: O_9  and  C_2 
REMARK       I    between atoms: N_6  and  C_3 
REMARK    5  A    between atoms: N_5  and  C_4 
REMARK    6  A    between atoms: C_10  and  N_5 
REMARK    7  A    between atoms: C_11  and  N_6 
REMARK    8  A    between atoms: C_12  and  C_10 
REMARK    9  A    between atoms: C_13  and  C_11 
ROOT
ATOM      1  C   UNK d   1     -48.230  13.057  22.823  0.00  0.00     0.124 C 
ENDROOT
BRANCH   1   2
ATOM      2  C   UNK d   1     -48.737  12.400  22.929  0.00  0.00     0.194 C 
ATOM      3  O   UNK d   1     -49.017  11.986  22.282  0.00  0.00    -0.645 OA
BRANCH   2   4
ATOM      4  O   UNK d   1     -48.960  12.165  23.698  0.00  0.00    -0.772 OA
ATOM      5  H   UNK d   1     -48.532  12.434  24.352  0.00  0.00     0.167 HD
ENDBRANCH   2   4
ENDBRANCH   1   2
BRANCH   1   6
ATOM      6  C   UNK d   1     -47.480  12.953  22.498  0.00  0.00     0.084 C 
BRANCH   6   7
ATOM      7  C   UNK d   1     -46.843  12.804  22.990  0.00  0.00     0.259 C 
ATOM      8  N   UNK d   1     -46.455  12.077  22.946  0.00  0.00    -0.320 N 
ATOM      9  H   UNK d   1     -46.712  11.495  22.403  0.00  0.00     0.169 HD
ATOM     10  O   UNK d   1     -46.587  13.382  23.531  0.00  0.00    -0.267 OA
BRANCH   8  11
ATOM     11  C   UNK d   1     -45.813  11.921  23.440  0.00  0.00     0.075 C 
BRANCH  11  12
ATOM     12  C   UNK d   1     -45.426  11.186  23.409  0.00  0.00     0.017 C 
ATOM     13  C   UNK d   1     -45.817  10.498  23.642  0.00  0.00     0.002 C 
ATOM     14  C   UNK d   1     -44.643  11.146  23.142  0.00  0.00     0.002 C 
ENDBRANCH  11  12
ENDBRANCH   8  11
ENDBRANCH   6   7
ENDBRANCH   1   6
BRANCH   1  15
ATOM     15  N   UNK d   1     -48.476  13.812  23.042  0.00  0.00    -0.347 N 
ATOM     16  H   UNK d   1     -48.111  14.180  23.694  0.00  0.00     0.166 HD
BRANCH  15  17
ATOM     17  C   UNK d   0     -49.076  14.198  22.621  0.00  0.00     0.073 C 
BRANCH  17  18
ATOM     18  C   UNK d   0     -49.284  14.964  22.815  0.00  0.00     0.017 C 
ATOM     19  C   UNK d   0     -49.900  15.104  23.345  0.00  0.00     0.002 C 
ATOM     20  C   UNK d   0     -48.878  15.598  22.479  0.00  0.00     0.002 C 
ENDBRANCH  17  18
ENDBRANCH  15  17
ENDBRANCH   1  15
TORSDOF 9
ENDMDL
MODEL 6
REMARK VINA RESULT:      -4.0      9.879     10.572
REMARK  9 active torsions:
REMARK  status: ('A' for Active; 'I' for Inactive)
REMARK    1  A    between atoms: C_3  and  C_1 
REMARK    2  A    between atoms: C_4  and  C_1 
REMARK    3  A    between atoms: C_2  and  C_4 
REMARK    4  A    between atoms: O_9  and  C_2 
REMARK       I    between atoms: N_6  and  C_3 
REMARK    5  A    between atoms: N_5  and  C_4 
REMARK    6  A    between atoms: C_10  and  N_5 
REMARK    7  A    between atoms: C_11  and  N_6 
REMARK    8  A    between atoms: C_12  and  C_10 
REMARK    9  A    between atoms: C_13  and  C_11 
ROOT
ATOM      1  C   UNK d   1     -39.461  14.196  18.135  0.00  0.00     0.124 C 
ENDROOT
BRANCH   1   2
ATOM      2  C   UNK d   1     -39.017  13.620  17.723  0.00  0.00     0.194 C 
ATOM      3  O   UNK d   1     -39.293  12.852  17.662  0.00  0.00    -0.645 OA
BRANCH   2   4
ATOM      4  O   UNK d   1     -38.289  13.826  17.371  0.00  0.00    -0.772 OA
ATOM      5  H   UNK d   1     -37.608  13.392  17.549  0.00  0.00     0.167 HD
ENDBRANCH   2   4
ENDBRANCH   1   2
BRANCH   1   6
ATOM      6  C   UNK d   1     -39.629  14.096  18.935  0.00  0.00     0.084 C 
BRANCH   6   7
ATOM      7  C   UNK d   1     -39.196  14.507  19.495  0.00  0.00     0.259 C 
ATOM      8  N   UNK d   1     -39.518  14.644  20.242  0.00  0.00    -0.320 N 
ATOM      9  H   UNK d   1     -40.284  14.363  20.426  0.00  0.00     0.169 HD
ATOM     10  O   UNK d   1     -38.433  14.787  19.312  0.00  0.00    -0.267 OA
BRANCH   8  11
ATOM     11  C   UNK d   1     -39.086  15.058  20.809  0.00  0.00     0.075 C 
BRANCH  11  12
ATOM     12  C   UNK d   1     -39.432  15.260  21.538  0.00  0.00     0.017 C 
ATOM     13  C   UNK d   1     -39.285  14.806  22.211  0.00  0.00     0.002 C 
ATOM     14  C   UNK d   1     -39.927  15.922  21.586  0.00  0.00     0.002 C 
ENDBRANCH  11  12
ENDBRANCH   8  11
ENDBRANCH   6   7
ENDBRANCH   1   6
BRANCH   1  15
ATOM     15  N   UNK d   1     -39.733  14.869  17.745  0.00  0.00    -0.347 N 
ATOM     16  H   UNK d   1     -39.286  15.570  17.792  0.00  0.00     0.166 HD
BRANCH  15  17
ATOM     17  C   UNK d   0     -40.440  14.847  17.313  0.00  0.00     0.073 C 
BRANCH  17  18
ATOM     18  C   UNK d   0     -40.750  15.536  17.001  0.00  0.00     0.017 C 
ATOM     19  C   UNK d   0     -41.454  15.845  17.299  0.00  0.00     0.002 C 
ATOM     20  C   UNK d   0     -40.358  15.921  16.387  0.00  0.00     0.002 C 
ENDBRANCH  17  18
ENDBRANCH  15  17
ENDBRANCH   1  15
TORSDOF 9
ENDMDL
MODEL 7
REMARK VINA RESULT:      -3.9      8.786     10.730
REMARK  9 active torsions:
REMARK  status: ('A' for Active; 'I' for Inactive)
REMARK    1  A    between atoms: C_3  and  C_1 
REMARK    2  A    between atoms: C_4  and  C_1 
REMARK    3  A    between atoms: C_2  and  C_4 
REMARK    4  A    between atoms: O_9  and  C_2 
REMARK       I    between atoms: N_6  and  C_3 
REMARK    5  A    between atoms: N_5  and  C_4 
REMARK    6  A    between atoms: C_10  and  N_5 
REMARK    7  A    between atoms: C_11  and  N_6 
REMARK    8  A    between atoms: C_12  and  C_10 
REMARK    9  A    between atoms: C_13  and  C_11 
ROOT
ATOM      1  C   UNK d   1     -39.270  14.702  19.448  0.00  0.00     0.124 C 
ENDROOT
BRANCH   1   2
ATOM      2  C   UNK d   1     -38.579  14.401  19.809  0.00  0.00     0.194 C 
ATOM      3  O   UNK d   1     -37.981  14.909  20.042  0.00  0.00    -0.645 OA
BRANCH   2   4
ATOM      4  O   UNK d   1     -38.496  13.581  19.934  0.00  0.00    -0.772 OA
ATOM      5  H   UNK d   1     -38.346  13.080  19.294  0.00  0.00     0.167 HD
ENDBRANCH   2   4
ENDBRANCH   1   2
BRANCH   1   6
ATOM      6  C   UNK d   1     -39.231  15.052  18.703  0.00  0.00     0.084 C 
BRANCH   6   7
ATOM      7  C   UNK d   1     -39.327  14.591  18.034  0.00  0.00     0.259 C 
ATOM      8  N   UNK d   1     -38.829  14.703  17.386  0.00  0.00    -0.320 N 
ATOM      9  H   UNK d   1     -38.229  15.284  17.413  0.00  0.00     0.169 HD
ATOM     10  O   UNK d   1     -39.925  14.012  18.006  0.00  0.00    -0.267 OA
BRANCH   8  11
ATOM     11  C   UNK d   1     -38.922  14.241  16.708  0.00  0.00     0.075 C 
BRANCH  11  12
ATOM     12  C   UNK d   1     -38.392  14.314  16.072  0.00  0.00     0.017 C 
ATOM     13  C   UNK d   1     -38.072  13.643  15.714  0.00  0.00     0.002 C 
ATOM     14  C   UNK d   1     -38.185  15.068  15.797  0.00  0.00     0.002 C 
ENDBRANCH  11  12
ENDBRANCH   8  11
ENDBRANCH   6   7
ENDBRANCH   1   6
BRANCH   1  15
ATOM     15  N   UNK d   1     -39.997  14.651  19.833  0.00  0.00    -0.347 N 
ATOM     16  H   UNK d   1     -40.545  14.076  19.584  0.00  0.00     0.166 HD
BRANCH  15  17
ATOM     17  C   UNK d   0     -40.178  15.165  20.458  0.00  0.00     0.073 C 
BRANCH  17  18
ATOM     18  C   UNK d   0     -40.944  15.211  20.740  0.00  0.00     0.017 C 
ATOM     19  C   UNK d   0     -41.302  14.548  21.075  0.00  0.00     0.002 C 
ATOM     20  C   UNK d   0     -41.358  15.922  20.690  0.00  0.00     0.002 C 
ENDBRANCH  17  18
ENDBRANCH  15  17
ENDBRANCH   1  15
TORSDOF 9
ENDMDL
MODEL 8
REMARK VINA RESULT:      -3.8      9.370     10.504
REMARK  9 active torsions:
REMARK  status: ('A' for Active; 'I' for Inactive)
REMARK    1  A    between atoms: C_3  and  C_1 
REMARK    2  A    between atoms: C_4  and  C_1 
REMARK    3  A    between atoms: C_2  and  C_4 
REMARK    4  A    between atoms: O_9  and  C_2 
REMARK       I    between atoms: N_6  and  C_3 
REMARK    5  A    between atoms: N_5  and  C_4 
REMARK    6  A    between atoms: C_10  and  N_5 
REMARK    7  A    between atoms: C_11  and  N_6 
REMARK    8  A    between atoms: C_12  and  C_10 
REMARK    9  A    between atoms: C_13  and  C_11 
ROOT
ATOM      1  C   UNK d   1     -39.213  14.477  19.615  0.00  0.00     0.124 C 
ENDROOT
BRANCH   1   2
ATOM      2  C   UNK d   1     -38.511  14.252  19.218  0.00  0.00     0.194 C 
ATOM      3  O   UNK d   1     -37.940  14.811  19.044  0.00  0.00    -0.645 OA
BRANCH   2   4
ATOM      4  O   UNK d   1     -38.393  13.456  18.999  0.00  0.00    -0.772 OA
ATOM      5  H   UNK d   1     -38.129  13.274  18.237  0.00  0.00     0.167 HD
ENDBRANCH   2   4
ENDBRANCH   1   2
BRANCH   1   6
ATOM      6  C   UNK d   1     -39.717  15.037  19.281  0.00  0.00     0.084 C 
BRANCH   6   7
ATOM      7  C   UNK d   1     -40.216  14.819  18.671  0.00  0.00     0.259 C 
ATOM      8  N   UNK d   1     -40.369  15.350  18.058  0.00  0.00    -0.320 N 
ATOM      9  H   UNK d   1     -40.015  16.108  18.062  0.00  0.00     0.169 HD
ATOM     10  O   UNK d   1     -40.569  14.065  18.667  0.00  0.00    -0.267 OA
BRANCH   8  11
ATOM     11  C   UNK d   1     -40.872  15.136  17.440  0.00  0.00     0.075 C 
BRANCH  11  12
ATOM     12  C   UNK d   1     -40.991  15.647  16.797  0.00  0.00     0.017 C 
ATOM     13  C   UNK d   1     -41.753  15.883  16.585  0.00  0.00     0.002 C 
ATOM     14  C   UNK d   1     -40.339  15.922  16.366  0.00  0.00     0.002 C 
ENDBRANCH  11  12
ENDBRANCH   8  11
ENDBRANCH   6   7
ENDBRANCH   1   6
BRANCH   1  15
ATOM     15  N   UNK d   1     -39.406  14.141  20.342  0.00  0.00    -0.347 N 
ATOM     16  H   UNK d   1     -39.665  13.349  20.363  0.00  0.00     0.166 HD
BRANCH  15  17
ATOM     17  C   UNK d   0     -39.342  14.583  21.040  0.00  0.00     0.073 C 
BRANCH  17  18
ATOM     18  C   UNK d   0     -39.352  14.206  21.765  0.00  0.00     0.017 C 
ATOM     19  C   UNK d   0     -39.952  13.670  21.945  0.00  0.00     0.002 C 
ATOM     20  C   UNK d   0     -38.760  14.363  22.317  0.00  0.00     0.002 C 
ENDBRANCH  17  18
ENDBRANCH  15  17
ENDBRANCH   1  15
TORSDOF 9
ENDMDL
MODEL 9
REMARK VINA RESULT:      -2.7      1.827      3.175
REMARK  9 active torsions:
REMARK  status: ('A' for Active; 'I' for Inactive)
REMARK    1  A    between atoms: C_3  and  C_1 
REMARK    2  A    between atoms: C_4  and  C_1 
REMARK    3  A    between atoms: C_2  and  C_4 
REMARK    4  A    between atoms: O_9  and  C_2 
REMARK       I    between atoms: N_6  and  C_3 
REMARK    5  A    between atoms: N_5  and  C_4 
REMARK    6  A    between atoms: C_10  and  N_5 
REMARK    7  A    between atoms: C_11  and  N_6 
REMARK    8  A    between atoms: C_12  and  C_10 
REMARK    9  A    between atoms: C_13  and  C_11 
ROOT
ATOM      1  C   UNK d   1     -49.701  14.880  22.615  0.00  0.00     0.124 C 
ENDROOT
BRANCH   1   2
ATOM      2  C   UNK d   1     -50.222  15.521  22.750  0.00  0.00     0.194 C 
ATOM      3  O   UNK d   1     -50.233  15.898  23.475  0.00  0.00    -0.645 OA
BRANCH   2   4
ATOM      4  O   UNK d   1     -50.733  15.777  22.142  0.00  0.00    -0.772 OA
ATOM      5  H   UNK d   1     -50.436  15.911  21.383  0.00  0.00     0.167 HD
ENDBRANCH   2   4
ENDBRANCH   1   2
BRANCH   1   6
ATOM      6  C   UNK d   1     -49.974  14.193  22.251  0.00  0.00     0.084 C 
BRANCH   6   7
ATOM      7  C   UNK d   1     -50.187  13.549  22.709  0.00  0.00     0.259 C 
ATOM      8  N   UNK d   1     -49.810  12.824  22.594  0.00  0.00    -0.320 N 
ATOM      9  H   UNK d   1     -49.215  12.748  22.012  0.00  0.00     0.169 HD
ATOM     10  O   UNK d   1     -50.779  13.624  23.289  0.00  0.00    -0.267 OA
BRANCH   8  11
ATOM     11  C   UNK d   1     -50.021  12.171  23.053  0.00  0.00     0.075 C 
BRANCH  11  12
ATOM     12  C   UNK d   1     -49.524  11.507  23.093  0.00  0.00     0.017 C 
ATOM     13  C   UNK d   1     -48.924  11.399  22.537  0.00  0.00     0.002 C 
ATOM     14  C   UNK d   1     -49.633  10.949  23.696  0.00  0.00     0.002 C 
ENDBRANCH  11  12
ENDBRANCH   8  11
ENDBRANCH   6   7
ENDBRANCH   1   6
BRANCH   1  15
ATOM     15  N   UNK d   1     -48.912  14.930  22.846  0.00  0.00    -0.347 N 
ATOM     16  H   UNK d   1     -48.711  14.754  23.635  0.00  0.00     0.166 HD
BRANCH  15  17
ATOM     17  C   UNK d   0     -48.328  15.152  22.301  0.00  0.00     0.073 C 
BRANCH  17  18
ATOM     18  C   UNK d   0     -47.538  15.061  22.489  0.00  0.00     0.017 C 
ATOM     19  C   UNK d   0     -47.319  14.673  23.184  0.00  0.00     0.002 C 
ATOM     20  C   UNK d   0     -46.959  15.357  21.983  0.00  0.00     0.002 C 
ENDBRANCH  17  18
ENDBRANCH  15  17
ENDBRANCH   1  15
TORSDOF 9
ENDMDL
