MODEL 1
REMARK VINA RESULT:      19.9      0.000      0.000
REMARK  3 active torsions:
REMARK  status: ('A' for Active; 'I' for Inactive)
REMARK    1  A    between atoms: C_2  and  S_1 
REMARK    2  A    between atoms: N_3  and  S_1 
REMARK    3  A    between atoms: C_12  and  N_3 
ROOT
ATOM      1  S   UNL d   1      46.371 -18.111  44.360  0.00  0.00     0.285 S 
ATOM      2  O   UNL d   1      46.197 -18.557  44.939  0.00  0.00    -0.198 OA
ATOM      3  O   UNL d   1      46.539 -17.503  43.910  0.00  0.00    -0.198 OA
ENDROOT
BRANCH   1   4
ATOM      4  C   UNL d   1      46.423 -18.677  43.748  0.00  0.00     0.105 A 
ATOM      5  C   UNL d   1      46.394 -19.486  43.926  0.00  0.00     0.012 A 
ATOM      6  C   UNL d   1      46.445 -20.046  43.320  0.00  0.00     0.001 A 
ATOM      7  C   UNL d   1      46.311 -19.724  44.729  0.00  0.00     0.001 C 
ATOM      8  C   UNL d   1      46.526 -19.794  42.539  0.00  0.00     0.000 A 
ATOM      9  C   UNL d   1      46.557 -18.984  42.349  0.00  0.00     0.001 A 
ATOM     10  C   UNL d   1      46.505 -18.424  42.955  0.00  0.00     0.013 A 
ATOM     11  C   UNL d   1      46.639 -18.738  41.555  0.00  0.00     0.000 C 
ENDBRANCH   1   4
BRANCH   1  12
ATOM     12  N   UNL d   1      46.309 -17.660  44.951  0.00  0.00    -0.158 NA
BRANCH  12  13
ATOM     13  C   UNL d   1      45.991 -17.072  44.767  0.00  0.00     0.095 A 
ATOM     14  C   UNL d   1      46.264 -16.462  44.955  0.00  0.00     0.040 A 
ATOM     15  C   UNL d   1      45.942 -15.891  44.769  0.00  0.00     0.089 A 
ATOM     16  N   UNL d   1      46.094 -15.230  44.882  0.00  0.00    -0.236 NA
ATOM     17  C   UNL d   1      45.364 -15.907  44.405  0.00  0.00     0.049 A 
ATOM     18  C   UNL d   1      45.601 -14.846  44.583  0.00  0.00     0.135 A 
ATOM     19  S   UNL d   1      45.159 -15.266  44.294  0.00  0.00    -0.064 SA
ATOM     20  C   UNL d   1      45.100 -16.524  44.223  0.00  0.00     0.010 A 
ATOM     21  C   UNL d   1      45.414 -17.110  44.405  0.00  0.00     0.021 A 
ENDBRANCH  12  13
ENDBRANCH   1  12
TORSDOF 3
ENDMDL
MODEL 2
REMARK VINA RESULT:      20.6      2.429      4.762
REMARK  3 active torsions:
REMARK  status: ('A' for Active; 'I' for Inactive)
REMARK    1  A    between atoms: C_2  and  S_1 
REMARK    2  A    between atoms: N_3  and  S_1 
REMARK    3  A    between atoms: C_12  and  N_3 
ROOT
ATOM      1  S   UNL d   1      45.605 -13.706  44.445  0.00  0.00     0.285 S 
ATOM      2  O   UNL d   1      46.342 -13.566  44.409  0.00  0.00    -0.198 OA
ATOM      3  O   UNL d   1      44.906 -13.986  44.631  0.00  0.00    -0.198 OA
ENDROOT
BRANCH   1   4
ATOM      4  C   UNL d   1      45.326 -13.183  43.857  0.00  0.00     0.105 A 
ATOM      5  C   UNL d   1      45.831 -12.608  43.539  0.00  0.00     0.012 A 
ATOM      6  C   UNL d   1      45.554 -12.089  42.958  0.00  0.00     0.001 A 
ATOM      7  C   UNL d   1      46.623 -12.562  43.817  0.00  0.00     0.001 C 
ATOM      8  C   UNL d   1      44.774 -12.149  42.697  0.00  0.00     0.000 A 
ATOM      9  C   UNL d   1      44.258 -12.723  43.010  0.00  0.00     0.001 A 
ATOM     10  C   UNL d   1      44.535 -13.241  43.592  0.00  0.00     0.013 A 
ATOM     11  C   UNL d   1      43.469 -12.776  42.741  0.00  0.00     0.000 C 
ENDBRANCH   1   4
BRANCH   1  12
ATOM     12  N   UNL d   1      45.921 -14.151  44.955  0.00  0.00    -0.158 NA
BRANCH  12  13
ATOM     13  C   UNL d   1      45.672 -14.794  44.895  0.00  0.00     0.095 A 
ATOM     14  C   UNL d   1      46.103 -15.335  44.952  0.00  0.00     0.040 A 
ATOM     15  C   UNL d   1      45.846 -15.963  44.891  0.00  0.00     0.089 A 
ATOM     16  N   UNL d   1      46.149 -16.580  44.924  0.00  0.00    -0.236 NA
ATOM     17  C   UNL d   1      45.181 -16.070  44.777  0.00  0.00     0.049 A 
ATOM     18  C   UNL d   1      45.659 -17.061  44.828  0.00  0.00     0.135 A 
ATOM     19  S   UNL d   1      45.072 -16.742  44.739  0.00  0.00    -0.064 SA
ATOM     20  C   UNL d   1      44.759 -15.520  44.722  0.00  0.00     0.010 A 
ATOM     21  C   UNL d   1      45.004 -14.879  44.781  0.00  0.00     0.021 A 
ENDBRANCH  12  13
ENDBRANCH   1  12
TORSDOF 3
ENDMDL
MODEL 3
REMARK VINA RESULT:      22.0      7.541      8.238
REMARK  3 active torsions:
REMARK  status: ('A' for Active; 'I' for Inactive)
REMARK    1  A    between atoms: C_2  and  S_1 
REMARK    2  A    between atoms: N_3  and  S_1 
REMARK    3  A    between atoms: C_12  and  N_3 
ROOT
ATOM      1  S   UNL d   1      44.613 -15.698  36.978  0.00  0.00     0.285 S 
ATOM      2  O   UNL d   1      44.727 -16.129  37.582  0.00  0.00    -0.198 OA
ATOM      3  O   UNL d   1      44.329 -15.380  36.330  0.00  0.00    -0.198 OA
ENDROOT
BRANCH   1   4
ATOM      4  C   UNL d   1      45.261 -15.175  37.043  0.00  0.00     0.105 A 
ATOM      5  C   UNL d   1      46.000 -15.391  36.737  0.00  0.00     0.012 A 
ATOM      6  C   UNL d   1      46.642 -14.874  36.801  0.00  0.00     0.001 A 
ATOM      7  C   UNL d   1      46.085 -16.141  36.364  0.00  0.00     0.001 C 
ATOM      8  C   UNL d   1      46.541 -14.144  37.171  0.00  0.00     0.000 A 
ATOM      9  C   UNL d   1      45.803 -13.917  37.481  0.00  0.00     0.001 A 
ATOM     10  C   UNL d   1      45.161 -14.434  37.417  0.00  0.00     0.013 A 
ATOM     11  C   UNL d   1      45.709 -13.175  37.853  0.00  0.00     0.000 C 
ENDBRANCH   1   4
BRANCH   1  12
ATOM     12  N   UNL d   1      44.057 -16.196  36.979  0.00  0.00    -0.158 NA
BRANCH  12  13
ATOM     13  C   UNL d   1      43.451 -15.876  36.877  0.00  0.00     0.095 A 
ATOM     14  C   UNL d   1      42.904 -16.241  36.657  0.00  0.00     0.040 A 
ATOM     15  C   UNL d   1      42.313 -15.914  36.560  0.00  0.00     0.089 A 
ATOM     16  N   UNL d   1      41.700 -16.143  36.349  0.00  0.00    -0.236 NA
ATOM     17  C   UNL d   1      42.251 -15.243  36.673  0.00  0.00     0.049 A 
ATOM     18  C   UNL d   1      41.266 -15.603  36.336  0.00  0.00     0.135 A 
ATOM     19  S   UNL d   1      41.609 -15.058  36.535  0.00  0.00    -0.064 SA
ATOM     20  C   UNL d   1      42.807 -14.888  36.893  0.00  0.00     0.010 A 
ATOM     21  C   UNL d   1      43.410 -15.205  36.995  0.00  0.00     0.021 A 
ENDBRANCH  12  13
ENDBRANCH   1  12
TORSDOF 3
ENDMDL
