MODEL 1
REMARK VINA RESULT:      58.6      0.000      0.000
REMARK  3 active torsions:
REMARK  status: ('A' for Active; 'I' for Inactive)
REMARK    1  A    between atoms: N_2  and  S_1 
REMARK    2  A    between atoms: C_3  and  S_1 
REMARK    3  A    between atoms: O_16  and  C_9 
ROOT
ATOM      1  S   UNL d   1      59.325  49.486  50.904  0.00  0.00     0.274 S 
ATOM      2  O   UNL d   1      59.409  49.505  51.725  0.00  0.00    -0.199 OA
ATOM      3  O   UNL d   1      59.233  49.469  50.080  0.00  0.00    -0.199 OA
ENDROOT
BRANCH   1   4
ATOM      4  N   UNL d   1      58.502  49.563  50.986  0.00  0.00    -0.214 N 
ATOM      5  C   UNL d   1      58.090  49.629  51.697  0.00  0.00     0.157 A 
ATOM      6  N   UNL d   1      57.288  49.693  51.519  0.00  0.00    -0.226 NA
ATOM      7  C   UNL d   1      58.417  49.633  52.454  0.00  0.00     0.041 C 
ATOM      8  C   UNL d   1      57.203  49.665  50.698  0.00  0.00     0.100 A 
ATOM      9  C   UNL d   1      57.949  49.585  50.372  0.00  0.00     0.094 A 
ATOM     10  C   UNL d   1      56.537  49.703  50.212  0.00  0.00     0.021 A 
ATOM     11  C   UNL d   1      58.039  49.543  49.550  0.00  0.00     0.020 A 
ATOM     12  C   UNL d   1      57.381  49.580  49.057  0.00  0.00     0.002 A 
ATOM     13  C   UNL d   1      56.626  49.660  49.390  0.00  0.00     0.002 A 
ENDBRANCH   1   4
BRANCH   1  14
ATOM     14  C   UNL d   1      60.144  49.411  50.822  0.00  0.00     0.126 A 
ATOM     15  C   UNL d   1      60.485  49.394  50.072  0.00  0.00     0.015 A 
ATOM     16  C   UNL d   1      61.303  49.318  49.991  0.00  0.00     0.001 A 
ATOM     17  C   UNL d   1      61.635  49.303  49.249  0.00  0.00     0.000 C 
ATOM     18  C   UNL d   1      61.780  49.259  50.666  0.00  0.00     0.002 A 
ATOM     19  C   UNL d   1      61.439  49.276  51.416  0.00  0.00     0.025 A 
ATOM     20  C   UNL d   1      62.586  49.185  50.583  0.00  0.00     0.000 C 
ATOM     21  C   UNL d   1      60.621  49.352  51.493  0.00  0.00     0.106 A 
BRANCH  21  22
ATOM     22  O   UNL d   1      60.279  49.368  52.239  0.00  0.00    -0.327 OA
ATOM     23  C   UNL d   1      60.683  49.701  52.863  0.00  0.00     0.181 C 
ENDBRANCH  21  22
ENDBRANCH   1  14
TORSDOF 3
ENDMDL
