MODEL 1
REMARK VINA RESULT:      28.4      0.000      0.000
REMARK  1 active torsions:
REMARK  status: ('A' for Active; 'I' for Inactive)
REMARK    1  A    between atoms: N_11  and  C_4 
ROOT
ATOM      1  N   UNL d   1      46.144 -17.990  43.207  0.00  0.00    -0.195 N 
ATOM      2  C   UNL d   1      46.305 -18.773  42.982  0.00  0.00     0.168 A 
ATOM      3  C   UNL d   1      46.391 -18.971  42.193  0.00  0.00     0.073 A 
ATOM      4  C   UNL d   1      46.062 -17.812  44.000  0.00  0.00     0.153 A 
ATOM      5  N   UNL d   1      46.155 -17.600  41.855  0.00  0.00    -0.143 NA
ATOM      6  C   UNL d   1      46.315 -18.383  41.630  0.00  0.00     0.185 A 
ATOM      7  N   UNL d   1      46.378 -19.355  43.557  0.00  0.00    -0.227 NA
ATOM      8  C   UNL d   1      46.549 -19.745  41.971  0.00  0.00     0.007 A 
ATOM      9  N   UNL d   1      46.400 -18.568  40.827  0.00  0.00    -0.225 NA
ATOM     10  C   UNL d   1      46.133 -18.384  44.572  0.00  0.00     0.057 A 
ATOM     11  C   UNL d   1      46.635 -19.944  41.182  0.00  0.00     0.019 A 
ATOM     12  C   UNL d   1      46.294 -19.167  44.347  0.00  0.00     0.086 A 
ATOM     13  C   UNL d   1      46.560 -19.351  40.603  0.00  0.00     0.083 A 
ATOM     14  C   UNL d   1      46.623 -20.330  42.549  0.00  0.00     0.000 C 
ATOM     15  C   UNL d   1      46.370 -19.770  44.947  0.00  0.00     0.021 C 
ATOM     16  C   UNL d   1      46.645 -19.541  39.815  0.00  0.00     0.021 C 
ENDROOT
BRANCH   4  17
ATOM     17  N   UNL d   1      45.896 -17.002  44.223  0.00  0.00    -0.285 N 
ATOM     18  C   UNL d   1      45.210 -16.825  44.711  0.00  0.00     0.108 A 
ATOM     19  C   UNL d   1      45.049 -16.023  44.930  0.00  0.00     0.142 A 
ATOM     20  O   UNL d   1      45.564 -15.396  44.668  0.00  0.00    -0.300 OA
ATOM     21  C   UNL d   1      46.239 -15.577  44.185  0.00  0.00     0.142 A 
ATOM     22  C   UNL d   1      46.400 -16.379  43.967  0.00  0.00     0.108 A 
ENDBRANCH   4  17
TORSDOF 1
ENDMDL
