MODEL 1
REMARK VINA RESULT:      -6.0      0.000      0.000
REMARK  7 active torsions:
REMARK  status: ('A' for Active; 'I' for Inactive)
REMARK    1  A    between atoms: C_2  and  P_1 
REMARK    2  A    between atoms: O_3  and  P_1 
REMARK    3  A    between atoms: C_4  and  P_1 
REMARK    4  A    between atoms: C_12  and  C_2 
REMARK    5  A    between atoms: C_13  and  O_3 
REMARK    6  A    between atoms: N_7  and  C_6 
REMARK    7  A    between atoms: C_15  and  C_13 
ROOT
ATOM      1  P   UNL d   1     -48.899  12.518  22.796  0.00  0.00     0.307 P 
ATOM      2  O   UNL d   1     -48.448  11.788  22.721  0.00  0.00    -0.277 OA
ENDROOT
BRANCH   1   3
ATOM      3  C   UNL d   1     -49.632  12.075  22.815  0.00  0.00     0.253 C 
ATOM      4  O   UNL d   1     -50.209  12.218  22.243  0.00  0.00    -0.281 OA
BRANCH   3   5
ATOM      5  C   UNL d   1     -49.763  11.508  23.399  0.00  0.00     0.044 C 
ATOM      6  C   UNL d   1     -50.526  11.385  23.688  0.00  0.00     0.004 C 
ATOM      7  C   UNL d   1     -49.137  11.068  23.693  0.00  0.00     0.004 C 
ENDBRANCH   3   5
ENDBRANCH   1   3
BRANCH   1   8
ATOM      8  O   UNL d   1     -48.161  12.938  22.775  0.00  0.00    -0.279 OA
BRANCH   8   9
ATOM      9  C   UNL d   1     -47.421  12.517  22.713  0.00  0.00     0.124 C 
BRANCH   9  10
ATOM     10  C   UNL d   1     -46.710  12.905  22.587  0.00  0.00     0.025 A 
ATOM     11  C   UNL d   1     -46.470  13.504  23.101  0.00  0.00     0.002 A 
ATOM     12  C   UNL d   1     -45.751  13.900  22.978  0.00  0.00     0.000 A 
ATOM     13  C   UNL d   1     -45.275  13.694  22.338  0.00  0.00     0.000 A 
ATOM     14  C   UNL d   1     -45.519  13.091  21.822  0.00  0.00     0.000 A 
ATOM     15  C   UNL d   1     -46.234  12.699  21.947  0.00  0.00     0.002 A 
ENDBRANCH   9  10
ENDBRANCH   8   9
ENDBRANCH   1   8
BRANCH   1  16
ATOM     16  C   UNL d   1     -49.317  13.261  22.870  0.00  0.00     0.061 A 
ATOM     17  C   UNL d   1     -49.540  13.660  22.186  0.00  0.00     0.007 A 
ATOM     18  C   UNL d   1     -49.942  14.373  22.237  0.00  0.00     0.018 A 
ATOM     19  C   UNL d   1     -50.122  14.691  22.977  0.00  0.00     0.064 A 
ATOM     20  C   UNL d   1     -49.899  14.292  23.661  0.00  0.00     0.018 A 
ATOM     21  C   UNL d   1     -49.495  13.574  23.606  0.00  0.00     0.007 A 
BRANCH  19  22
ATOM     22  N   UNL d   1     -50.543  15.439  23.020  0.00  0.00    -0.301 N 
ATOM     23  C   UNL d   1     -50.454  15.918  23.692  0.00  0.00     0.100 C 
ATOM     24  C   UNL d   1     -51.035  15.687  22.401  0.00  0.00     0.100 C 
ENDBRANCH  19  22
ENDBRANCH   1  16
TORSDOF 7
ENDMDL
MODEL 2
REMARK VINA RESULT:      -5.9      1.361      3.711
REMARK  7 active torsions:
REMARK  status: ('A' for Active; 'I' for Inactive)
REMARK    1  A    between atoms: C_2  and  P_1 
REMARK    2  A    between atoms: O_3  and  P_1 
REMARK    3  A    between atoms: C_4  and  P_1 
REMARK    4  A    between atoms: C_12  and  C_2 
REMARK    5  A    between atoms: C_13  and  O_3 
REMARK    6  A    between atoms: N_7  and  C_6 
REMARK    7  A    between atoms: C_15  and  C_13 
ROOT
ATOM      1  P   UNL d   1     -48.547  12.753  23.195  0.00  0.00     0.307 P 
ATOM      2  O   UNL d   1     -49.347  12.527  23.422  0.00  0.00    -0.277 OA
ENDROOT
BRANCH   1   3
ATOM      3  C   UNL d   1     -48.296  11.935  23.230  0.00  0.00     0.253 C 
ATOM      4  O   UNL d   1     -47.511  11.757  23.414  0.00  0.00    -0.281 OA
BRANCH   3   5
ATOM      5  C   UNL d   1     -48.831  11.326  23.080  0.00  0.00     0.044 C 
ATOM      6  C   UNL d   1     -48.923  11.038  22.313  0.00  0.00     0.004 C 
ATOM      7  C   UNL d   1     -49.271  11.007  23.693  0.00  0.00     0.004 C 
ENDBRANCH   3   5
ENDBRANCH   1   3
BRANCH   1   8
ATOM      8  O   UNL d   1     -48.818  13.558  23.167  0.00  0.00    -0.279 OA
BRANCH   8   9
ATOM      9  C   UNL d   1     -49.581  13.773  23.483  0.00  0.00     0.124 C 
BRANCH   9  10
ATOM     10  C   UNL d   1     -49.942  14.485  23.298  0.00  0.00     0.025 A 
ATOM     11  C   UNL d   1     -50.520  14.514  22.710  0.00  0.00     0.002 A 
ATOM     12  C   UNL d   1     -50.889  15.232  22.518  0.00  0.00     0.000 A 
ATOM     13  C   UNL d   1     -50.676  15.920  22.919  0.00  0.00     0.000 A 
ATOM     14  C   UNL d   1     -50.094  15.889  23.510  0.00  0.00     0.000 A 
ATOM     15  C   UNL d   1     -49.729  15.173  23.698  0.00  0.00     0.002 A 
ENDBRANCH   9  10
ENDBRANCH   8   9
ENDBRANCH   1   8
BRANCH   1  16
ATOM     16  C   UNL d   1     -47.764  13.010  22.969  0.00  0.00     0.061 A 
ATOM     17  C   UNL d   1     -47.550  12.982  22.175  0.00  0.00     0.007 A 
ATOM     18  C   UNL d   1     -46.803  13.225  21.940  0.00  0.00     0.018 A 
ATOM     19  C   UNL d   1     -46.264  13.499  22.502  0.00  0.00     0.064 A 
ATOM     20  C   UNL d   1     -46.477  13.527  23.296  0.00  0.00     0.018 A 
ATOM     21  C   UNL d   1     -47.230  13.282  23.530  0.00  0.00     0.007 A 
BRANCH  19  22
ATOM     22  N   UNL d   1     -45.483  13.751  22.245  0.00  0.00    -0.301 N 
ATOM     23  C   UNL d   1     -45.000  13.220  21.831  0.00  0.00     0.100 C 
ATOM     24  C   UNL d   1     -45.210  14.517  22.407  0.00  0.00     0.100 C 
ENDBRANCH  19  22
ENDBRANCH   1  16
TORSDOF 7
ENDMDL
MODEL 3
REMARK VINA RESULT:      -5.1      1.525      2.799
REMARK  7 active torsions:
REMARK  status: ('A' for Active; 'I' for Inactive)
REMARK    1  A    between atoms: C_2  and  P_1 
REMARK    2  A    between atoms: O_3  and  P_1 
REMARK    3  A    between atoms: C_4  and  P_1 
REMARK    4  A    between atoms: C_12  and  C_2 
REMARK    5  A    between atoms: C_13  and  O_3 
REMARK    6  A    between atoms: N_7  and  C_6 
REMARK    7  A    between atoms: C_15  and  C_13 
ROOT
ATOM      1  P   UNL d   1     -47.952  14.188  22.697  0.00  0.00     0.307 P 
ATOM      2  O   UNL d   1     -47.332  14.777  22.581  0.00  0.00    -0.277 OA
ENDROOT
BRANCH   1   3
ATOM      3  C   UNL d   1     -48.540  14.807  22.764  0.00  0.00     0.253 C 
ATOM      4  O   UNL d   1     -49.081  14.788  23.387  0.00  0.00    -0.281 OA
BRANCH   3   5
ATOM      5  C   UNL d   1     -48.569  15.419  22.213  0.00  0.00     0.044 C 
ATOM      6  C   UNL d   1     -49.257  15.547  21.776  0.00  0.00     0.004 C 
ATOM      7  C   UNL d   1     -47.915  15.900  22.098  0.00  0.00     0.004 C 
ENDBRANCH   3   5
ENDBRANCH   1   3
BRANCH   1   8
ATOM      8  O   UNL d   1     -47.352  13.591  22.627  0.00  0.00    -0.279 OA
BRANCH   8   9
ATOM      9  C   UNL d   1     -46.533  13.773  22.784  0.00  0.00     0.124 C 
BRANCH   9  10
ATOM     10  C   UNL d   1     -45.934  13.229  22.653  0.00  0.00     0.025 A 
ATOM     11  C   UNL d   1     -45.877  12.556  23.126  0.00  0.00     0.002 A 
ATOM     12  C   UNL d   1     -45.273  12.002  22.997  0.00  0.00     0.000 A 
ATOM     13  C   UNL d   1     -44.727  12.127  22.393  0.00  0.00     0.000 A 
ATOM     14  C   UNL d   1     -44.786  12.805  21.918  0.00  0.00     0.000 A 
ATOM     15  C   UNL d   1     -45.388  13.354  22.048  0.00  0.00     0.002 A 
ENDBRANCH   9  10
ENDBRANCH   8   9
ENDBRANCH   1   8
BRANCH   1  16
ATOM     16  C   UNL d   1     -48.542  13.580  22.808  0.00  0.00     0.061 A 
ATOM     17  C   UNL d   1     -48.799  13.412  23.572  0.00  0.00     0.007 A 
ATOM     18  C   UNL d   1     -49.365  12.832  23.698  0.00  0.00     0.018 A 
ATOM     19  C   UNL d   1     -49.677  12.416  23.057  0.00  0.00     0.064 A 
ATOM     20  C   UNL d   1     -49.420  12.584  22.294  0.00  0.00     0.018 A 
ATOM     21  C   UNL d   1     -48.851  13.168  22.170  0.00  0.00     0.007 A 
BRANCH  19  22
ATOM     22  N   UNL d   1     -50.270  11.809  23.200  0.00  0.00    -0.301 N 
ATOM     23  C   UNL d   1     -51.063  11.965  23.015  0.00  0.00     0.100 C 
ATOM     24  C   UNL d   1     -50.057  11.074  23.518  0.00  0.00     0.100 C 
ENDBRANCH  19  22
ENDBRANCH   1  16
TORSDOF 7
ENDMDL
MODEL 4
REMARK VINA RESULT:      -4.9      1.783      2.852
REMARK  7 active torsions:
REMARK  status: ('A' for Active; 'I' for Inactive)
REMARK    1  A    between atoms: C_2  and  P_1 
REMARK    2  A    between atoms: O_3  and  P_1 
REMARK    3  A    between atoms: C_4  and  P_1 
REMARK    4  A    between atoms: C_12  and  C_2 
REMARK    5  A    between atoms: C_13  and  O_3 
REMARK    6  A    between atoms: N_7  and  C_6 
REMARK    7  A    between atoms: C_15  and  C_13 
ROOT
ATOM      1  P   UNL d   1     -47.449  13.674  22.945  0.00  0.00     0.307 P 
ATOM      2  O   UNL d   1     -46.651  13.983  23.052  0.00  0.00    -0.277 OA
ENDROOT
BRANCH   1   3
ATOM      3  C   UNL d   1     -47.760  14.471  22.893  0.00  0.00     0.253 C 
ATOM      4  O   UNL d   1     -48.443  14.668  23.311  0.00  0.00    -0.281 OA
BRANCH   3   5
ATOM      5  C   UNL d   1     -47.382  15.038  22.431  0.00  0.00     0.044 C 
ATOM      6  C   UNL d   1     -47.829  15.555  21.968  0.00  0.00     0.004 C 
ATOM      7  C   UNL d   1     -46.564  15.090  22.430  0.00  0.00     0.004 C 
ENDBRANCH   3   5
ENDBRANCH   1   3
BRANCH   1   8
ATOM      8  O   UNL d   1     -47.118  12.893  22.999  0.00  0.00    -0.279 OA
BRANCH   8   9
ATOM      9  C   UNL d   1     -46.338  12.770  23.323  0.00  0.00     0.124 C 
BRANCH   9  10
ATOM     10  C   UNL d   1     -45.980  12.033  23.324  0.00  0.00     0.025 A 
ATOM     11  C   UNL d   1     -45.252  11.927  22.951  0.00  0.00     0.002 A 
ATOM     12  C   UNL d   1     -44.885  11.183  22.949  0.00  0.00     0.000 A 
ATOM     13  C   UNL d   1     -45.250  10.547  23.323  0.00  0.00     0.000 A 
ATOM     14  C   UNL d   1     -45.983  10.655  23.698  0.00  0.00     0.000 A 
ATOM     15  C   UNL d   1     -46.345  11.396  23.698  0.00  0.00     0.002 A 
ENDBRANCH   9  10
ENDBRANCH   8   9
ENDBRANCH   1   8
BRANCH   1  16
ATOM     16  C   UNL d   1     -48.227  13.336  22.841  0.00  0.00     0.061 A 
ATOM     17  C   UNL d   1     -48.447  13.072  22.093  0.00  0.00     0.007 A 
ATOM     18  C   UNL d   1     -49.190  12.744  21.974  0.00  0.00     0.018 A 
ATOM     19  C   UNL d   1     -49.717  12.680  22.606  0.00  0.00     0.064 A 
ATOM     20  C   UNL d   1     -49.496  12.944  23.354  0.00  0.00     0.018 A 
ATOM     21  C   UNL d   1     -48.748  13.273  23.470  0.00  0.00     0.007 A 
BRANCH  19  22
ATOM     22  N   UNL d   1     -50.493  12.336  22.472  0.00  0.00    -0.301 N 
ATOM     23  C   UNL d   1     -50.778  11.758  22.995  0.00  0.00     0.100 C 
ATOM     24  C   UNL d   1     -50.958  12.574  21.828  0.00  0.00     0.100 C 
ENDBRANCH  19  22
ENDBRANCH   1  16
TORSDOF 7
ENDMDL
MODEL 5
REMARK VINA RESULT:      -4.9      1.749      4.316
REMARK  7 active torsions:
REMARK  status: ('A' for Active; 'I' for Inactive)
REMARK    1  A    between atoms: C_2  and  P_1 
REMARK    2  A    between atoms: O_3  and  P_1 
REMARK    3  A    between atoms: C_4  and  P_1 
REMARK    4  A    between atoms: C_12  and  C_2 
REMARK    5  A    between atoms: C_13  and  O_3 
REMARK    6  A    between atoms: N_7  and  C_6 
REMARK    7  A    between atoms: C_15  and  C_13 
ROOT
ATOM      1  P   UNL d   1     -48.204  14.052  22.709  0.00  0.00     0.307 P 
ATOM      2  O   UNL d   1     -48.996  14.386  22.770  0.00  0.00    -0.277 OA
ENDROOT
BRANCH   1   3
ATOM      3  C   UNL d   1     -47.871  14.834  22.606  0.00  0.00     0.253 C 
ATOM      4  O   UNL d   1     -47.065  14.954  22.735  0.00  0.00    -0.281 OA
BRANCH   3   5
ATOM      5  C   UNL d   1     -48.350  15.466  22.380  0.00  0.00     0.044 C 
ATOM      6  C   UNL d   1     -48.355  15.718  21.595  0.00  0.00     0.004 C 
ATOM      7  C   UNL d   1     -48.820  15.844  22.934  0.00  0.00     0.004 C 
ENDBRANCH   3   5
ENDBRANCH   1   3
BRANCH   1   8
ATOM      8  O   UNL d   1     -48.555  13.285  22.813  0.00  0.00    -0.279 OA
BRANCH   8   9
ATOM      9  C   UNL d   1     -49.375  13.149  22.616  0.00  0.00     0.124 C 
BRANCH   9  10
ATOM     10  C   UNL d   1     -49.815  12.559  22.974  0.00  0.00     0.025 A 
ATOM     11  C   UNL d   1     -50.612  12.685  23.146  0.00  0.00     0.002 A 
ATOM     12  C   UNL d   1     -51.063  12.090  23.509  0.00  0.00     0.000 A 
ATOM     13  C   UNL d   1     -50.712  11.369  23.698  0.00  0.00     0.000 A 
ATOM     14  C   UNL d   1     -49.909  11.244  23.524  0.00  0.00     0.000 A 
ATOM     15  C   UNL d   1     -49.464  11.838  23.163  0.00  0.00     0.002 A 
ENDBRANCH   9  10
ENDBRANCH   8   9
ENDBRANCH   1   8
BRANCH   1  16
ATOM     16  C   UNL d   1     -47.432  13.688  22.652  0.00  0.00     0.061 A 
ATOM     17  C   UNL d   1     -47.178  13.409  21.921  0.00  0.00     0.007 A 
ATOM     18  C   UNL d   1     -46.441  13.058  21.847  0.00  0.00     0.018 A 
ATOM     19  C   UNL d   1     -45.953  12.984  22.509  0.00  0.00     0.064 A 
ATOM     20  C   UNL d   1     -46.207  13.264  23.240  0.00  0.00     0.018 A 
ATOM     21  C   UNL d   1     -46.949  13.617  23.311  0.00  0.00     0.007 A 
BRANCH  19  22
ATOM     22  N   UNL d   1     -45.181  12.614  22.421  0.00  0.00    -0.301 N 
ATOM     23  C   UNL d   1     -44.655  12.902  21.848  0.00  0.00     0.100 C 
ATOM     24  C   UNL d   1     -44.959  11.977  22.902  0.00  0.00     0.100 C 
ENDBRANCH  19  22
ENDBRANCH   1  16
TORSDOF 7
ENDMDL
MODEL 6
REMARK VINA RESULT:      -3.4      1.780      4.163
REMARK  7 active torsions:
REMARK  status: ('A' for Active; 'I' for Inactive)
REMARK    1  A    between atoms: C_2  and  P_1 
REMARK    2  A    between atoms: O_3  and  P_1 
REMARK    3  A    between atoms: C_4  and  P_1 
REMARK    4  A    between atoms: C_12  and  C_2 
REMARK    5  A    between atoms: C_13  and  O_3 
REMARK    6  A    between atoms: N_7  and  C_6 
REMARK    7  A    between atoms: C_15  and  C_13 
ROOT
ATOM      1  P   UNL d   1     -47.405  14.115  22.609  0.00  0.00     0.307 P 
ATOM      2  O   UNL d   1     -47.264  14.945  22.424  0.00  0.00    -0.277 OA
ENDROOT
BRANCH   1   3
ATOM      3  C   UNL d   1     -46.637  13.905  22.294  0.00  0.00     0.253 C 
ATOM      4  O   UNL d   1     -46.578  13.304  21.732  0.00  0.00    -0.281 OA
BRANCH   3   5
ATOM      5  C   UNL d   1     -45.958  14.298  22.549  0.00  0.00     0.044 C 
ATOM      6  C   UNL d   1     -45.381  14.516  22.002  0.00  0.00     0.004 C 
ATOM      7  C   UNL d   1     -45.858  14.471  23.343  0.00  0.00     0.004 C 
ENDBRANCH   3   5
ENDBRANCH   1   3
BRANCH   1   8
ATOM      8  O   UNL d   1     -48.163  14.346  22.916  0.00  0.00    -0.279 OA
BRANCH   8   9
ATOM      9  C   UNL d   1     -48.467  15.132  22.783  0.00  0.00     0.124 C 
BRANCH   9  10
ATOM     10  C   UNL d   1     -49.258  15.317  22.895  0.00  0.00     0.025 A 
ATOM     11  C   UNL d   1     -49.497  15.711  23.579  0.00  0.00     0.002 A 
ATOM     12  C   UNL d   1     -50.296  15.900  23.697  0.00  0.00     0.000 A 
ATOM     13  C   UNL d   1     -50.853  15.692  23.127  0.00  0.00     0.000 A 
ATOM     14  C   UNL d   1     -50.611  15.295  22.439  0.00  0.00     0.000 A 
ATOM     15  C   UNL d   1     -49.815  15.109  22.325  0.00  0.00     0.002 A 
ENDBRANCH   9  10
ENDBRANCH   8   9
ENDBRANCH   1   8
BRANCH   1  16
ATOM     16  C   UNL d   1     -47.576  13.301  22.806  0.00  0.00     0.061 A 
ATOM     17  C   UNL d   1     -47.989  12.840  22.264  0.00  0.00     0.007 A 
ATOM     18  C   UNL d   1     -48.162  12.057  22.435  0.00  0.00     0.018 A 
ATOM     19  C   UNL d   1     -47.920  11.730  23.153  0.00  0.00     0.064 A 
ATOM     20  C   UNL d   1     -47.506  12.191  23.696  0.00  0.00     0.018 A 
ATOM     21  C   UNL d   1     -47.334  12.979  23.520  0.00  0.00     0.007 A 
BRANCH  19  22
ATOM     22  N   UNL d   1     -48.105  10.908  23.324  0.00  0.00    -0.301 N 
ATOM     23  C   UNL d   1     -47.490  10.381  23.503  0.00  0.00     0.100 C 
ATOM     24  C   UNL d   1     -48.889  10.638  23.312  0.00  0.00     0.100 C 
ENDBRANCH  19  22
ENDBRANCH   1  16
TORSDOF 7
ENDMDL
MODEL 7
REMARK VINA RESULT:      -3.2      1.946      3.794
REMARK  7 active torsions:
REMARK  status: ('A' for Active; 'I' for Inactive)
REMARK    1  A    between atoms: C_2  and  P_1 
REMARK    2  A    between atoms: O_3  and  P_1 
REMARK    3  A    between atoms: C_4  and  P_1 
REMARK    4  A    between atoms: C_12  and  C_2 
REMARK    5  A    between atoms: C_13  and  O_3 
REMARK    6  A    between atoms: N_7  and  C_6 
REMARK    7  A    between atoms: C_15  and  C_13 
ROOT
ATOM      1  P   UNL d   1     -47.131  11.826  23.270  0.00  0.00     0.307 P 
ATOM      2  O   UNL d   1     -47.424  11.038  23.462  0.00  0.00    -0.277 OA
ENDROOT
BRANCH   1   3
ATOM      3  C   UNL d   1     -46.345  11.609  23.533  0.00  0.00     0.253 C 
ATOM      4  O   UNL d   1     -45.793  12.199  23.697  0.00  0.00    -0.281 OA
BRANCH   3   5
ATOM      5  C   UNL d   1     -46.139  10.816  23.623  0.00  0.00     0.044 C 
ATOM      6  C   UNL d   1     -46.728  10.243  23.691  0.00  0.00     0.004 C 
ATOM      7  C   UNL d   1     -45.349  10.597  23.646  0.00  0.00     0.004 C 
ENDBRANCH   3   5
ENDBRANCH   1   3
BRANCH   1   8
ATOM      8  O   UNL d   1     -47.918  12.021  23.014  0.00  0.00    -0.279 OA
BRANCH   8   9
ATOM      9  C   UNL d   1     -48.597  11.644  23.367  0.00  0.00     0.124 C 
BRANCH   9  10
ATOM     10  C   UNL d   1     -49.362  11.821  23.133  0.00  0.00     0.025 A 
ATOM     11  C   UNL d   1     -49.547  11.867  22.331  0.00  0.00     0.002 A 
ATOM     12  C   UNL d   1     -50.320  12.046  22.087  0.00  0.00     0.000 A 
ATOM     13  C   UNL d   1     -50.906  12.178  22.652  0.00  0.00     0.000 A 
ATOM     14  C   UNL d   1     -50.717  12.131  23.459  0.00  0.00     0.000 A 
ATOM     15  C   UNL d   1     -49.948  11.953  23.698  0.00  0.00     0.002 A 
ENDBRANCH   9  10
ENDBRANCH   8   9
ENDBRANCH   1   8
BRANCH   1  16
ATOM     16  C   UNL d   1     -46.872  12.616  23.069  0.00  0.00     0.061 A 
ATOM     17  C   UNL d   1     -46.744  12.802  22.278  0.00  0.00     0.007 A 
ATOM     18  C   UNL d   1     -46.496  13.555  22.067  0.00  0.00     0.018 A 
ATOM     19  C   UNL d   1     -46.375  14.127  22.649  0.00  0.00     0.064 A 
ATOM     20  C   UNL d   1     -46.503  13.940  23.441  0.00  0.00     0.018 A 
ATOM     21  C   UNL d   1     -46.752  13.182  23.650  0.00  0.00     0.007 A 
BRANCH  19  22
ATOM     22  N   UNL d   1     -46.115  14.913  22.418  0.00  0.00    -0.301 N 
ATOM     23  C   UNL d   1     -45.318  15.037  22.224  0.00  0.00     0.100 C 
ATOM     24  C   UNL d   1     -46.649  15.545  22.386  0.00  0.00     0.100 C 
ENDBRANCH  19  22
ENDBRANCH   1  16
TORSDOF 7
ENDMDL
