MODEL 1
REMARK VINA RESULT:      71.3      0.000      0.000
REMARK  3 active torsions:
REMARK  status: ('A' for Active; 'I' for Inactive)
REMARK       I    between atoms: C_3  and  N_1 
REMARK       I    between atoms: C_2  and  N_7 
REMARK    1  A    between atoms: C_4  and  C_2 
REMARK    2  A    between atoms: C_6  and  C_3 
REMARK    3  A    between atoms: N_7  and  C_15 
ROOT
ATOM      1  N   UNL d   1      14.255  17.659  -5.500  0.00  0.00    -0.273 N 
ATOM      2  C   UNL d   1      13.747  18.070  -6.009  0.00  0.00     0.271 C 
ATOM      3  C   UNL d   1      14.148  16.853  -5.363  0.00  0.00     0.067 A 
ATOM      4  C   UNL d   1      14.656  16.450  -4.856  0.00  0.00     0.018 A 
ATOM      5  C   UNL d   1      13.531  16.457  -5.737  0.00  0.00     0.019 A 
ATOM      6  O   UNL d   1      13.124  17.679  -6.389  0.00  0.00    -0.266 OA
ATOM      7  C   UNL d   1      13.925  15.240  -5.097  0.00  0.00     0.085 A 
ATOM      8  C   UNL d   1      14.547  15.644  -4.721  0.00  0.00     0.021 A 
ATOM      9  C   UNL d   1      14.877  18.051  -5.120  0.00  0.00     0.083 A 
ATOM     10  C   UNL d   1      13.419  15.654  -5.606  0.00  0.00     0.021 A 
ATOM     11  C   UNL d   1      15.269  16.842  -4.483  0.00  0.00     0.003 A 
ATOM     12  C   UNL d   1      15.382  17.649  -4.616  0.00  0.00     0.019 A 
ENDROOT
BRANCH   7  13
ATOM     13  N   UNL d   1      13.820  14.442  -4.961  0.00  0.00    -0.208 NA
ATOM     14  C   UNL d   1      13.306  14.187  -4.371  0.00  0.00     0.282 C 
ATOM     15  O   UNL d   1      12.894  14.733  -3.912  0.00  0.00    -0.265 OA
BRANCH  14  16
ATOM     16  C   UNL d   1      13.198  13.390  -4.231  0.00  0.00     0.096 A 
ATOM     17  C   UNL d   1      13.337  13.072  -3.473  0.00  0.00     0.065 A 
ATOM     18 CL   UNL d   1      13.586  13.572  -2.867  0.00  0.00    -0.082 Cl
ATOM     19  C   UNL d   1      13.228  12.272  -3.332  0.00  0.00     0.012 A 
ATOM     20  C   UNL d   1      12.979  11.779  -3.948  0.00  0.00     0.003 A 
ATOM     21  C   UNL d   1      12.841  12.097  -4.701  0.00  0.00     0.030 A 
ATOM     22  C   UNL d   1      12.951  12.903  -4.839  0.00  0.00     0.146 A 
ATOM     23  F   UNL d   1      12.809  13.208  -5.598  0.00  0.00    -0.204 F 
ENDBRANCH  14  16
ENDBRANCH   7  13
BRANCH   2  24
ATOM     24  C   UNL d   1      13.864  18.881  -6.139  0.00  0.00     0.086 A 
ATOM     25  S   UNL d   1      13.257  19.451  -6.227  0.00  0.00    -0.082 SA
ATOM     26  C   UNL d   1      13.628  20.180  -6.345  0.00  0.00     0.036 A 
ATOM     27  C   UNL d   1      14.446  20.077  -6.332  0.00  0.00     0.008 A 
ATOM     28  C   UNL d   1      14.591  19.271  -6.204  0.00  0.00     0.012 A 
ENDBRANCH   2  24
TORSDOF 3
ENDMDL
