MODEL 1
REMARK VINA RESULT:      -7.6      0.000      0.000
REMARK  7 active torsions:
REMARK  status: ('A' for Active; 'I' for Inactive)
REMARK    1  A    between atoms: N_4  and  S_1 
REMARK    2  A    between atoms: C_2  and  N_4 
REMARK    3  A    between atoms: C_3  and  C_2 
REMARK    4  A    between atoms: N_5  and  C_3 
REMARK    5  A    between atoms: C_7  and  C_3 
REMARK    6  A    between atoms: C_9  and  N_6 
REMARK    7  A    between atoms: O_26  and  C_22 
ROOT
ATOM      1  N   UNL d   1      52.712  32.801  53.449  0.00  0.00    -0.300 N 
ATOM      2  N   UNL d   1      51.375  33.623  52.891  0.00  0.00    -0.301 N 
ATOM      3  C   UNL d   1      52.002  32.803  53.885  0.00  0.00     0.100 A 
ATOM      4  C   UNL d   1      52.736  33.213  52.741  0.00  0.00     0.100 A 
ATOM      5  C   UNL d   1      51.339  33.209  53.612  0.00  0.00     0.100 A 
ATOM      6  C   UNL d   1      52.081  33.621  52.458  0.00  0.00     0.100 A 
ENDROOT
BRANCH   1   7
ATOM      7  C   UNL d   1      53.371  32.397  53.724  0.00  0.00     0.089 C 
BRANCH   7   8
ATOM      8  C   UNL d   1      53.504  31.618  53.494  0.00  0.00     0.110 C 
ATOM      9  C   UNL d   1      54.051  31.452  52.898  0.00  0.00     0.023 C 
BRANCH   8  10
ATOM     10  N   UNL d   1      53.096  31.009  53.857  0.00  0.00    -0.161 NA
BRANCH  10  11
ATOM     11  S   UNL d   1      53.229  30.226  53.642  0.00  0.00     0.266 S 
ATOM     12  O   UNL d   1      53.298  30.074  54.455  0.00  0.00    -0.203 OA
ATOM     13  O   UNL d   1      53.384  29.459  53.910  0.00  0.00    -0.203 OA
ATOM     14  C   UNL d   1      53.173  30.308  52.827  0.00  0.00     0.165 C 
ENDBRANCH  10  11
ENDBRANCH   8  10
ENDBRANCH   7   8
BRANCH   7  15
ATOM     15  C   UNL d   1      53.900  32.771  54.231  0.00  0.00     0.047 A 
ATOM     16  S   UNL d   1      54.610  33.139  54.013  0.00  0.00    -0.085 SA
ATOM     17  C   UNL d   1      54.959  33.437  54.701  0.00  0.00     0.035 A 
ATOM     18  C   UNL d   1      54.481  33.261  55.339  0.00  0.00     0.007 A 
ATOM     19  C   UNL d   1      53.820  32.845  55.051  0.00  0.00     0.009 A 
ENDBRANCH   7  15
ENDBRANCH   1   7
BRANCH   2  20
ATOM     20  C   UNL d   1      50.709  34.030  52.618  0.00  0.00     0.064 A 
ATOM     21  C   UNL d   1      50.505  33.995  51.825  0.00  0.00     0.020 A 
ATOM     22  C   UNL d   1      49.838  34.403  51.554  0.00  0.00     0.026 A 
ATOM     23  C   UNL d   1      49.378  34.845  52.085  0.00  0.00     0.094 A 
ATOM     24  C   UNL d   1      49.599  34.869  52.884  0.00  0.00     0.026 A 
ATOM     25  C   UNL d   1      50.267  34.461  53.155  0.00  0.00     0.020 A 
BRANCH  23  26
ATOM     26  O   UNL d   1      48.708  35.257  51.820  0.00  0.00    -0.328 OA
ATOM     27  C   UNL d   1      48.223  34.901  51.258  0.00  0.00     0.181 C 
ENDBRANCH  23  26
ENDBRANCH   2  20
TORSDOF 7
ENDMDL
MODEL 2
REMARK VINA RESULT:      -7.4      1.182      2.228
REMARK  7 active torsions:
REMARK  status: ('A' for Active; 'I' for Inactive)
REMARK    1  A    between atoms: N_4  and  S_1 
REMARK    2  A    between atoms: C_2  and  N_4 
REMARK    3  A    between atoms: C_3  and  C_2 
REMARK    4  A    between atoms: N_5  and  C_3 
REMARK    5  A    between atoms: C_7  and  C_3 
REMARK    6  A    between atoms: C_9  and  N_6 
REMARK    7  A    between atoms: O_26  and  C_22 
ROOT
ATOM      1  N   UNL d   1      52.227  32.916  53.198  0.00  0.00    -0.300 N 
ATOM      2  N   UNL d   1      50.887  33.827  52.814  0.00  0.00    -0.301 N 
ATOM      3  C   UNL d   1      51.519  32.833  53.629  0.00  0.00     0.100 A 
ATOM      4  C   UNL d   1      52.248  33.456  52.582  0.00  0.00     0.100 A 
ATOM      5  C   UNL d   1      50.854  33.282  53.442  0.00  0.00     0.100 A 
ATOM      6  C   UNL d   1      51.591  33.910  52.385  0.00  0.00     0.100 A 
ENDROOT
BRANCH   1   7
ATOM      7  C   UNL d   1      52.887  32.467  53.387  0.00  0.00     0.089 C 
BRANCH   7   8
ATOM      8  C   UNL d   1      53.534  32.817  53.757  0.00  0.00     0.110 C 
ATOM      9  C   UNL d   1      54.196  33.032  53.314  0.00  0.00     0.023 C 
BRANCH   8  10
ATOM     10  N   UNL d   1      53.520  32.951  54.564  0.00  0.00    -0.161 NA
BRANCH  10  11
ATOM     11  S   UNL d   1      54.183  33.243  54.954  0.00  0.00     0.266 S 
ATOM     12  O   UNL d   1      54.077  32.614  55.486  0.00  0.00    -0.203 OA
ATOM     13  O   UNL d   1      54.701  33.146  55.591  0.00  0.00    -0.203 OA
ATOM     14  C   UNL d   1      54.344  33.883  54.467  0.00  0.00     0.165 C 
ENDBRANCH  10  11
ENDBRANCH   8  10
ENDBRANCH   7   8
BRANCH   7  15
ATOM     15  C   UNL d   1      52.903  31.664  53.207  0.00  0.00     0.047 A 
ATOM     16  S   UNL d   1      52.568  31.055  53.657  0.00  0.00    -0.085 SA
ATOM     17  C   UNL d   1      52.719  30.342  53.267  0.00  0.00     0.035 A 
ATOM     18  C   UNL d   1      53.141  30.498  52.584  0.00  0.00     0.007 A 
ATOM     19  C   UNL d   1      53.257  31.320  52.543  0.00  0.00     0.009 A 
ENDBRANCH   7  15
ENDBRANCH   1   7
BRANCH   2  20
ATOM     20  C   UNL d   1      50.219  34.278  52.626  0.00  0.00     0.064 A 
ATOM     21  C   UNL d   1      49.894  34.780  53.186  0.00  0.00     0.020 A 
ATOM     22  C   UNL d   1      49.226  35.230  52.996  0.00  0.00     0.026 A 
ATOM     23  C   UNL d   1      48.888  35.171  52.241  0.00  0.00     0.094 A 
ATOM     24  C   UNL d   1      49.230  34.658  51.686  0.00  0.00     0.026 A 
ATOM     25  C   UNL d   1      49.899  34.207  51.876  0.00  0.00     0.020 A 
BRANCH  23  26
ATOM     26  O   UNL d   1      48.217  35.619  52.043  0.00  0.00    -0.328 OA
ATOM     27  C   UNL d   1      47.807  36.001  52.645  0.00  0.00     0.181 C 
ENDBRANCH  23  26
ENDBRANCH   2  20
TORSDOF 7
ENDMDL
MODEL 3
REMARK VINA RESULT:      -6.3      2.040      4.902
REMARK  7 active torsions:
REMARK  status: ('A' for Active; 'I' for Inactive)
REMARK    1  A    between atoms: N_4  and  S_1 
REMARK    2  A    between atoms: C_2  and  N_4 
REMARK    3  A    between atoms: C_3  and  C_2 
REMARK    4  A    between atoms: N_5  and  C_3 
REMARK    5  A    between atoms: C_7  and  C_3 
REMARK    6  A    between atoms: C_9  and  N_6 
REMARK    7  A    between atoms: O_26  and  C_22 
ROOT
ATOM      1  N   UNL d   1      52.210  33.238  53.120  0.00  0.00    -0.300 N 
ATOM      2  N   UNL d   1      52.636  31.657  53.428  0.00  0.00    -0.301 N 
ATOM      3  C   UNL d   1      51.768  32.774  53.653  0.00  0.00     0.100 A 
ATOM      4  C   UNL d   1      52.859  32.897  52.753  0.00  0.00     0.100 A 
ATOM      5  C   UNL d   1      51.975  31.992  53.807  0.00  0.00     0.100 A 
ATOM      6  C   UNL d   1      53.076  32.118  52.899  0.00  0.00     0.100 A 
ENDROOT
BRANCH   1   7
ATOM      7  C   UNL d   1      52.001  34.016  52.969  0.00  0.00     0.089 C 
BRANCH   7   8
ATOM      8  C   UNL d   1      52.477  34.633  53.233  0.00  0.00     0.110 C 
ATOM      9  C   UNL d   1      52.985  35.015  52.707  0.00  0.00     0.023 C 
BRANCH   8  10
ATOM     10  N   UNL d   1      52.446  34.866  54.017  0.00  0.00    -0.161 NA
BRANCH  10  11
ATOM     11  S   UNL d   1      52.929  35.472  54.295  0.00  0.00     0.266 S 
ATOM     12  O   UNL d   1      52.236  35.801  54.612  0.00  0.00    -0.203 OA
ATOM     13  O   UNL d   1      52.962  36.183  54.715  0.00  0.00    -0.203 OA
ATOM     14  C   UNL d   1      53.649  35.200  54.008  0.00  0.00     0.165 C 
ENDBRANCH  10  11
ENDBRANCH   8  10
ENDBRANCH   7   8
BRANCH   7  15
ATOM     15  C   UNL d   1      51.311  34.181  52.551  0.00  0.00     0.047 A 
ATOM     16  S   UNL d   1      50.555  34.283  52.876  0.00  0.00    -0.085 SA
ATOM     17  C   UNL d   1      50.034  34.439  52.253  0.00  0.00     0.035 A 
ATOM     18  C   UNL d   1      50.451  34.437  51.551  0.00  0.00     0.007 A 
ATOM     19  C   UNL d   1      51.247  34.277  51.732  0.00  0.00     0.009 A 
ENDBRANCH   7  15
ENDBRANCH   1   7
BRANCH   2  20
ATOM     20  C   UNL d   1      52.845  30.872  53.584  0.00  0.00     0.064 A 
ATOM     21  C   UNL d   1      52.514  30.266  53.141  0.00  0.00     0.020 A 
ATOM     22  C   UNL d   1      52.724  29.481  53.299  0.00  0.00     0.026 A 
ATOM     23  C   UNL d   1      53.267  29.310  53.903  0.00  0.00     0.094 A 
ATOM     24  C   UNL d   1      53.592  29.936  54.340  0.00  0.00     0.026 A 
ATOM     25  C   UNL d   1      53.382  30.722  54.182  0.00  0.00     0.020 A 
BRANCH  23  26
ATOM     26  O   UNL d   1      53.482  28.525  54.067  0.00  0.00    -0.328 OA
ATOM     27  C   UNL d   1      53.582  28.300  54.852  0.00  0.00     0.181 C 
ENDBRANCH  23  26
ENDBRANCH   2  20
TORSDOF 7
ENDMDL
MODEL 4
REMARK VINA RESULT:      -6.2      1.429      2.117
REMARK  7 active torsions:
REMARK  status: ('A' for Active; 'I' for Inactive)
REMARK    1  A    between atoms: N_4  and  S_1 
REMARK    2  A    between atoms: C_2  and  N_4 
REMARK    3  A    between atoms: C_3  and  C_2 
REMARK    4  A    between atoms: N_5  and  C_3 
REMARK    5  A    between atoms: C_7  and  C_3 
REMARK    6  A    between atoms: C_9  and  N_6 
REMARK    7  A    between atoms: O_26  and  C_22 
ROOT
ATOM      1  N   UNL d   1      51.402  34.003  52.995  0.00  0.00    -0.300 N 
ATOM      2  N   UNL d   1      49.971  34.474  52.286  0.00  0.00    -0.301 N 
ATOM      3  C   UNL d   1      51.379  34.227  52.193  0.00  0.00     0.100 A 
ATOM      4  C   UNL d   1      50.704  34.020  53.425  0.00  0.00     0.100 A 
ATOM      5  C   UNL d   1      50.673  34.461  51.839  0.00  0.00     0.100 A 
ATOM      6  C   UNL d   1      49.994  34.252  53.083  0.00  0.00     0.100 A 
ENDROOT
BRANCH   1   7
ATOM      7  C   UNL d   1      52.106  33.770  53.344  0.00  0.00     0.089 C 
BRANCH   7   8
ATOM      8  C   UNL d   1      52.300  32.972  53.397  0.00  0.00     0.110 C 
ATOM      9  C   UNL d   1      52.042  32.527  54.042  0.00  0.00     0.023 C 
BRANCH   8  10
ATOM     10  N   UNL d   1      52.748  32.621  52.810  0.00  0.00    -0.161 NA
BRANCH  10  11
ATOM     11  S   UNL d   1      52.938  31.821  52.846  0.00  0.00     0.266 S 
ATOM     12  O   UNL d   1      52.484  31.739  52.156  0.00  0.00    -0.203 OA
ATOM     13  O   UNL d   1      52.850  31.079  52.492  0.00  0.00    -0.203 OA
ATOM     14  C   UNL d   1      53.399  31.832  53.526  0.00  0.00     0.165 C 
ENDBRANCH  10  11
ENDBRANCH   8  10
ENDBRANCH   7   8
BRANCH   7  15
ATOM     15  C   UNL d   1      52.623  34.337  53.644  0.00  0.00     0.047 A 
ATOM     16  S   UNL d   1      52.736  34.522  54.444  0.00  0.00    -0.085 SA
ATOM     17  C   UNL d   1      53.304  35.121  54.485  0.00  0.00     0.035 A 
ATOM     18  C   UNL d   1      53.545  35.311  53.727  0.00  0.00     0.007 A 
ATOM     19  C   UNL d   1      53.123  34.824  53.201  0.00  0.00     0.009 A 
ENDBRANCH   7  15
ENDBRANCH   1   7
BRANCH   2  20
ATOM     20  C   UNL d   1      49.262  34.709  51.929  0.00  0.00     0.064 A 
ATOM     21  C   UNL d   1      49.052  34.407  51.197  0.00  0.00     0.020 A 
ATOM     22  C   UNL d   1      48.343  34.643  50.843  0.00  0.00     0.026 A 
ATOM     23  C   UNL d   1      47.847  35.185  51.229  0.00  0.00     0.094 A 
ATOM     24  C   UNL d   1      48.075  35.482  51.969  0.00  0.00     0.026 A 
ATOM     25  C   UNL d   1      48.785  35.245  52.324  0.00  0.00     0.020 A 
BRANCH  23  26
ATOM     26  O   UNL d   1      47.134  35.427  50.880  0.00  0.00    -0.328 OA
ATOM     27  C   UNL d   1      46.447  35.407  51.332  0.00  0.00     0.181 C 
ENDBRANCH  23  26
ENDBRANCH   2  20
TORSDOF 7
ENDMDL
MODEL 5
REMARK VINA RESULT:      -5.7      1.740      4.705
REMARK  7 active torsions:
REMARK  status: ('A' for Active; 'I' for Inactive)
REMARK    1  A    between atoms: N_4  and  S_1 
REMARK    2  A    between atoms: C_2  and  N_4 
REMARK    3  A    between atoms: C_3  and  C_2 
REMARK    4  A    between atoms: N_5  and  C_3 
REMARK    5  A    between atoms: C_7  and  C_3 
REMARK    6  A    between atoms: C_9  and  N_6 
REMARK    7  A    between atoms: O_26  and  C_22 
ROOT
ATOM      1  N   UNL d   1      52.277  33.238  53.210  0.00  0.00    -0.300 N 
ATOM      2  N   UNL d   1      52.668  31.643  53.487  0.00  0.00    -0.301 N 
ATOM      3  C   UNL d   1      52.942  32.894  52.845  0.00  0.00     0.100 A 
ATOM      4  C   UNL d   1      51.821  32.773  53.708  0.00  0.00     0.100 A 
ATOM      5  C   UNL d   1      53.139  32.105  52.979  0.00  0.00     0.100 A 
ATOM      6  C   UNL d   1      52.007  31.985  53.850  0.00  0.00     0.100 A 
ENDROOT
BRANCH   1   7
ATOM      7  C   UNL d   1      52.084  34.024  53.074  0.00  0.00     0.089 C 
BRANCH   7   8
ATOM      8  C   UNL d   1      51.480  34.218  52.550  0.00  0.00     0.110 C 
ATOM      9  C   UNL d   1      51.656  34.378  51.760  0.00  0.00     0.023 C 
BRANCH   8  10
ATOM     10  N   UNL d   1      50.706  34.251  52.813  0.00  0.00    -0.161 NA
BRANCH  10  11
ATOM     11  S   UNL d   1      50.099  34.480  52.307  0.00  0.00     0.266 S 
ATOM     12  O   UNL d   1      49.755  34.838  52.973  0.00  0.00    -0.203 OA
ATOM     13  O   UNL d   1      49.378  34.879  52.238  0.00  0.00    -0.203 OA
ATOM     14  C   UNL d   1      50.383  34.149  51.611  0.00  0.00     0.165 C 
ENDBRANCH  10  11
ENDBRANCH   8  10
ENDBRANCH   7   8
BRANCH   7  15
ATOM     15  C   UNL d   1      52.497  34.621  53.462  0.00  0.00     0.047 A 
ATOM     16  S   UNL d   1      52.373  34.874  54.242  0.00  0.00    -0.085 SA
ATOM     17  C   UNL d   1      52.910  35.483  54.396  0.00  0.00     0.035 A 
ATOM     18  C   UNL d   1      53.364  35.612  53.729  0.00  0.00     0.007 A 
ATOM     19  C   UNL d   1      53.109  35.077  53.145  0.00  0.00     0.009 A 
ENDBRANCH   7  15
ENDBRANCH   1   7
BRANCH   2  20
ATOM     20  C   UNL d   1      52.866  30.851  53.622  0.00  0.00     0.064 A 
ATOM     21  C   UNL d   1      52.633  30.275  53.087  0.00  0.00     0.020 A 
ATOM     22  C   UNL d   1      52.832  29.483  53.224  0.00  0.00     0.026 A 
ATOM     23  C   UNL d   1      53.266  29.276  53.901  0.00  0.00     0.094 A 
ATOM     24  C   UNL d   1      53.493  29.872  54.431  0.00  0.00     0.026 A 
ATOM     25  C   UNL d   1      53.294  30.665  54.294  0.00  0.00     0.020 A 
BRANCH  23  26
ATOM     26  O   UNL d   1      53.469  28.484  54.045  0.00  0.00    -0.328 OA
ATOM     27  C   UNL d   1      53.631  28.253  54.818  0.00  0.00     0.181 C 
ENDBRANCH  23  26
ENDBRANCH   2  20
TORSDOF 7
ENDMDL
