MODEL 1
REMARK VINA RESULT:      12.6      0.000      0.000
REMARK  0 active torsions:
REMARK  status: ('A' for Active; 'I' for Inactive)
ROOT
ATOM      1  C   UNL d   1      57.495  49.705  50.481  0.00  0.00     0.020 A 
ATOM      2  N   UNL d   1      56.067  49.703  50.369  0.00  0.00    -0.242 NA
ATOM      3  C   UNL d   1      57.554  49.703  49.660  0.00  0.00     0.003 A 
ATOM      4  C   UNL d   1      58.170  49.706  50.952  0.00  0.00     0.013 A 
ATOM      5  C   UNL d   1      58.304  49.703  49.309  0.00  0.00     0.001 A 
ATOM      6  C   UNL d   1      58.911  49.706  50.600  0.00  0.00     0.058 A 
ATOM      7  C   UNL d   1      58.978  49.704  49.776  0.00  0.00     0.011 A 
ATOM      8  C   UNL d   1      56.746  49.705  50.837  0.00  0.00     0.099 A 
ATOM      9 CL   UNL d   1      59.587  49.708  51.067  0.00  0.00    -0.082 Cl
ATOM     10  C   UNL d   1      56.134  49.702  49.545  0.00  0.00     0.099 A 
ATOM     11  C   UNL d   1      56.880  49.701  49.185  0.00  0.00     0.021 A 
ENDROOT
TORSDOF 0
ENDMDL
MODEL 2
REMARK VINA RESULT:      13.3      1.644      2.601
REMARK  0 active torsions:
REMARK  status: ('A' for Active; 'I' for Inactive)
ROOT
ATOM      1  C   UNL d   1      58.041  49.707  49.932  0.00  0.00     0.020 A 
ATOM      2  N   UNL d   1      59.433  49.707  50.274  0.00  0.00    -0.242 NA
ATOM      3  C   UNL d   1      57.850  49.707  50.733  0.00  0.00     0.003 A 
ATOM      4  C   UNL d   1      57.451  49.706  49.358  0.00  0.00     0.013 A 
ATOM      5  C   UNL d   1      57.054  49.707  50.959  0.00  0.00     0.001 A 
ATOM      6  C   UNL d   1      56.663  49.706  49.586  0.00  0.00     0.058 A 
ATOM      7  C   UNL d   1      56.464  49.707  50.389  0.00  0.00     0.011 A 
ATOM      8  C   UNL d   1      58.838  49.706  49.703  0.00  0.00     0.099 A 
ATOM      9 CL   UNL d   1      56.072  49.706  49.016  0.00  0.00    -0.082 Cl
ATOM     10  C   UNL d   1      59.233  49.707  51.076  0.00  0.00     0.099 A 
ATOM     11  C   UNL d   1      58.438  49.707  51.311  0.00  0.00     0.021 A 
ENDROOT
TORSDOF 0
ENDMDL
MODEL 3
REMARK VINA RESULT:      14.0      2.119      3.182
REMARK  0 active torsions:
REMARK  status: ('A' for Active; 'I' for Inactive)
ROOT
ATOM      1  C   UNL d   1      59.694  49.705  51.375  0.00  0.00     0.020 A 
ATOM      2  N   UNL d   1      60.795  49.705  52.293  0.00  0.00    -0.242 NA
ATOM      3  C   UNL d   1      60.226  49.705  50.747  0.00  0.00     0.003 A 
ATOM      4  C   UNL d   1      58.882  49.704  51.241  0.00  0.00     0.013 A 
ATOM      5  C   UNL d   1      59.934  49.705  49.971  0.00  0.00     0.001 A 
ATOM      6  C   UNL d   1      58.598  49.704  50.472  0.00  0.00     0.058 A 
ATOM      7  C   UNL d   1      59.125  49.704  49.835  0.00  0.00     0.011 A 
ATOM      8  C   UNL d   1      59.982  49.705  52.153  0.00  0.00     0.099 A 
ATOM      9 CL   UNL d   1      57.788  49.704  50.334  0.00  0.00    -0.082 Cl
ATOM     10  C   UNL d   1      61.323  49.706  51.656  0.00  0.00     0.099 A 
ATOM     11  C   UNL d   1      61.040  49.705  50.877  0.00  0.00     0.021 A 
ENDROOT
TORSDOF 0
ENDMDL
MODEL 4
REMARK VINA RESULT:      14.4      1.522      2.198
REMARK  0 active torsions:
REMARK  status: ('A' for Active; 'I' for Inactive)
ROOT
ATOM      1  C   UNL d   1      59.429  49.700  51.213  0.00  0.00     0.020 A 
ATOM      2  N   UNL d   1      58.087  49.702  50.710  0.00  0.00    -0.242 NA
ATOM      3  C   UNL d   1      59.712  49.704  50.440  0.00  0.00     0.003 A 
ATOM      4  C   UNL d   1      59.947  49.697  51.852  0.00  0.00     0.013 A 
ATOM      5  C   UNL d   1      60.530  49.704  50.310  0.00  0.00     0.001 A 
ATOM      6  C   UNL d   1      60.757  49.698  51.719  0.00  0.00     0.058 A 
ATOM      7  C   UNL d   1      61.049  49.702  50.945  0.00  0.00     0.011 A 
ATOM      8  C   UNL d   1      58.610  49.699  51.347  0.00  0.00     0.099 A 
ATOM      9 CL   UNL d   1      61.276  49.695  52.355  0.00  0.00    -0.082 Cl
ATOM     10  C   UNL d   1      58.379  49.706  49.936  0.00  0.00     0.099 A 
ATOM     11  C   UNL d   1      59.196  49.706  49.797  0.00  0.00     0.021 A 
ENDROOT
TORSDOF 0
ENDMDL
