MODEL 1
REMARK VINA RESULT:       3.7      0.000      0.000
REMARK  3 active torsions:
REMARK  status: ('A' for Active; 'I' for Inactive)
REMARK    1  A    between atoms: C_5  and  C_1 
REMARK    2  A    between atoms: C_4  and  C_2 
REMARK       I    between atoms: N_8  and  C_4 
REMARK    3  A    between atoms: C_10  and  N_8 
ROOT
ATOM      1  C   UNL d   1     -43.264-122.665 -50.448  0.00  0.00     0.118 A 
ATOM      2  C   UNL d   1     -43.368-123.079 -49.740  0.00  0.00     0.103 A 
ATOM      3  N   UNL d   1     -44.009-122.581 -50.787  0.00  0.00    -0.126 NA
ATOM      4  O   UNL d   1     -44.568-122.932 -50.304  0.00  0.00    -0.211 OA
ATOM      5  C   UNL d   1     -44.167-123.241 -49.652  0.00  0.00     0.131 A 
ATOM      6  C   UNL d   1     -44.506-123.647 -49.015  0.00  0.00     0.029 C 
ENDROOT
BRANCH   2   7
ATOM      7  C   UNL d   1     -42.763-123.288 -49.214  0.00  0.00     0.283 C 
ATOM      8  N   UNL d   1     -42.753-122.967 -48.455  0.00  0.00    -0.204 NA
ATOM      9  O   UNL d   1     -42.184-123.813 -49.461  0.00  0.00    -0.265 OA
BRANCH   8  10
ATOM     10  C   UNL d   1     -42.153-123.175 -47.933  0.00  0.00     0.130 A 
ATOM     11  C   UNL d   1     -41.964-122.779 -47.240  0.00  0.00     0.243 A 
ATOM     12  S   UNL d   1     -41.326-123.172 -46.882  0.00  0.00    -0.044 SA
ATOM     13  O   UNL d   1     -42.335-122.112 -46.944  0.00  0.00    -0.278 OA
ATOM     14  C   UNL d   1     -41.123-123.810 -47.358  0.00  0.00     0.040 A 
ATOM     15  C   UNL d   1     -41.638-123.814 -48.015  0.00  0.00     0.030 A 
ENDBRANCH   8  10
ENDBRANCH   2   7
BRANCH   1  16
ATOM     16  C   UNL d   1     -42.557-122.392 -50.757  0.00  0.00     0.058 A 
ATOM     17  C   UNL d   1     -42.357-121.587 -50.702  0.00  0.00     0.142 A 
ATOM     18  F   UNL d   1     -42.881-121.068 -50.331  0.00  0.00    -0.204 F 
ATOM     19  C   UNL d   1     -41.647-121.325 -51.015  0.00  0.00     0.030 A 
ATOM     20  C   UNL d   1     -41.127-121.847 -51.385  0.00  0.00     0.003 A 
ATOM     21  C   UNL d   1     -41.330-122.654 -51.440  0.00  0.00     0.012 A 
ATOM     22  C   UNL d   1     -42.041-122.921 -51.127  0.00  0.00     0.061 A 
ATOM     23 CL   UNL d   1     -41.991-123.736 -51.313  0.00  0.00    -0.082 Cl
ENDBRANCH   1  16
TORSDOF 3
ENDMDL
