MODEL 1
REMARK VINA RESULT:      75.1      0.000      0.000
REMARK  5 active torsions:
REMARK  status: ('A' for Active; 'I' for Inactive)
REMARK    1  A    between atoms: N_3  and  C_1 
REMARK    2  A    between atoms: C_12  and  N_2 
REMARK       I    between atoms: C_5  and  N_3 
REMARK    3  A    between atoms: C_8  and  C_5 
REMARK    4  A    between atoms: C_15  and  C_12 
REMARK    5  A    between atoms: O_22  and  C_15 
ROOT
ATOM      1  C   UNL d   1     -48.507  30.158  34.274  0.00  0.00     0.183 A 
ATOM      2  N   UNL d   1     -47.903  30.476  34.734  0.00  0.00    -0.280 N 
ATOM      3  S   UNL d   1     -48.802  30.759  33.790  0.00  0.00    -0.048 SA
ATOM      4  C   UNL d   1     -47.819  31.277  34.540  0.00  0.00     0.072 A 
ATOM      5  C   UNL d   1     -48.377  31.453  33.954  0.00  0.00     0.048 A 
ATOM      6  C   UNL d   1     -47.312  31.867  34.818  0.00  0.00     0.018 A 
ATOM      7  C   UNL d   1     -48.427  32.218  33.645  0.00  0.00     0.008 A 
ATOM      8  C   UNL d   1     -47.361  32.632  34.509  0.00  0.00     0.002 A 
ATOM      9  C   UNL d   1     -47.919  32.807  33.923  0.00  0.00     0.001 A 
ATOM     10  C   UNL d   1     -47.972  33.565  33.615  0.00  0.00     0.000 C 
ENDROOT
BRANCH   1  11
ATOM     11  N   UNL d   1     -48.766  29.372  34.297  0.00  0.00    -0.183 NA
ATOM     12  C   UNL d   1     -49.412  29.143  33.835  0.00  0.00     0.287 C 
ATOM     13  O   UNL d   1     -49.792  29.697  33.355  0.00  0.00    -0.265 OA
BRANCH  12  14
ATOM     14  C   UNL d   1     -49.673  28.370  33.853  0.00  0.00     0.088 A 
ATOM     15  S   UNL d   1     -50.306  28.053  33.415  0.00  0.00    -0.071 SA
ATOM     16  C   UNL d   1     -50.373  27.263  33.602  0.00  0.00     0.087 A 
ATOM     17 CL   UNL d   1     -50.919  26.726  33.306  0.00  0.00    -0.075 Cl
ATOM     18  C   UNL d   1     -49.793  27.089  34.148  0.00  0.00     0.019 A 
ATOM     19  C   UNL d   1     -49.366  27.768  34.300  0.00  0.00     0.013 A 
ENDBRANCH  12  14
ENDBRANCH   1  11
BRANCH   2  20
ATOM     20  C   UNL d   1     -47.316  30.414  35.309  0.00  0.00     0.151 C 
BRANCH  20  21
ATOM     21  C   UNL d   1     -47.318  29.778  35.823  0.00  0.00     0.314 C 
ATOM     22  O   UNL d   1     -46.948  29.080  35.603  0.00  0.00    -0.257 OA
BRANCH  21  23
ATOM     23  O   UNL d   1     -47.684  29.834  36.547  0.00  0.00    -0.295 OA
ATOM     24  C   UNL d   1     -47.255  29.740  37.232  0.00  0.00     0.185 C 
ENDBRANCH  21  23
ENDBRANCH  20  21
ENDBRANCH   2  20
TORSDOF 5
ENDMDL
