MODEL 1
REMARK VINA RESULT:     140.5      0.000      0.000
REMARK  7 active torsions:
REMARK  status: ('A' for Active; 'I' for Inactive)
REMARK    1  A    between atoms: N_2  and  C_1 
REMARK       I    between atoms: C_6  and  N_2 
REMARK    2  A    between atoms: S_3  and  C_12 
REMARK    3  A    between atoms: C_28  and  N_4 
REMARK    4  A    between atoms: C_8  and  C_6 
REMARK    5  A    between atoms: C_15  and  C_11 
REMARK    6  A    between atoms: C_32  and  C_28 
REMARK    7  A    between atoms: O_31  and  C_32 
ROOT
ATOM      1  N   UNL d   1     -55.801-100.192 -42.445  0.00  0.00    -0.184 NA
ATOM      2  C   UNL d   1     -56.521-100.329 -42.820  0.00  0.00     0.281 C 
ATOM      3  O   UNL d   1     -57.013-100.934 -42.554  0.00  0.00    -0.265 OA
ENDROOT
BRANCH   1   4
ATOM      4  C   UNL d   1     -55.579-100.665 -41.806  0.00  0.00     0.182 A 
ATOM      5  N   UNL d   1     -55.238-101.408 -41.860  0.00  0.00    -0.283 N 
ATOM      6  C   UNL d   1     -55.102-101.689 -41.095  0.00  0.00     0.072 A 
ATOM      7  C   UNL d   1     -54.777-102.392 -40.812  0.00  0.00     0.019 A 
ATOM      8  C   UNL d   1     -55.363-101.112 -40.567  0.00  0.00     0.049 A 
ATOM      9  C   UNL d   1     -54.713-102.515 -40.001  0.00  0.00     0.015 A 
ATOM     10  C   UNL d   1     -54.974-101.938 -39.472  0.00  0.00     0.107 A 
ATOM     11  C   UNL d   1     -55.299-101.237 -39.755  0.00  0.00     0.021 A 
ATOM     12  S   UNL d   1     -55.658-100.478 -41.008  0.00  0.00    -0.048 SA
BRANCH   5  13
ATOM     13  C   UNL d   1     -55.057-101.815 -42.556  0.00  0.00     0.108 C 
BRANCH  13  14
ATOM     14  C   UNL d   1     -55.404-101.596 -43.269  0.00  0.00     0.135 C 
BRANCH  14  15
ATOM     15  O   UNL d   1     -55.234-102.010 -43.957  0.00  0.00    -0.325 OA
ATOM     16  C   UNL d   1     -55.656-102.694 -44.155  0.00  0.00     0.182 C 
ENDBRANCH  14  15
ENDBRANCH  13  14
ENDBRANCH   5  13
BRANCH  10  17
ATOM     17  S   UNL d   1     -54.908-102.067 -38.649  0.00  0.00     0.302 S 
ATOM     18  O   UNL d   1     -55.094-101.273 -38.543  0.00  0.00    -0.197 OA
ATOM     19  O   UNL d   1     -54.720-102.867 -38.760  0.00  0.00    -0.197 OA
ATOM     20  N   UNL d   1     -54.849-102.167 -37.834  0.00  0.00    -0.043 N 
ENDBRANCH  10  17
ENDBRANCH   1   4
BRANCH   2  21
ATOM     21  C   UNL d   1     -56.751 -99.860 -43.459  0.00  0.00     0.061 A 
ATOM     22  C   UNL d   1     -56.215 -99.699 -44.081  0.00  0.00     0.025 A 
ATOM     23  C   UNL d   1     -56.444 -99.231 -44.721  0.00  0.00     0.087 A 
ATOM     24  N   UNL d   1     -57.216 -98.916 -44.745  0.00  0.00    -0.245 NA
ATOM     25  C   UNL d   1     -57.745 -99.076 -44.130  0.00  0.00     0.082 A 
ATOM     26  C   UNL d   1     -57.516 -99.544 -43.491  0.00  0.00     0.022 A 
ATOM     27  C   UNL d   1     -58.514 -98.762 -44.156  0.00  0.00     0.019 A 
ATOM     28  C   UNL d   1     -58.044 -99.706 -42.872  0.00  0.00     0.002 A 
ATOM     29  C   UNL d   1     -58.820 -99.384 -42.906  0.00  0.00     0.000 A 
ATOM     30  C   UNL d   1     -59.049 -98.916 -43.545  0.00  0.00     0.002 A 
BRANCH  23  31
ATOM     31  C   UNL d   1     -55.918 -99.073 -45.332  0.00  0.00     0.047 A 
ATOM     32  S   UNL d   1     -55.106 -99.170 -45.216  0.00  0.00    -0.085 SA
ATOM     33  C   UNL d   1     -54.712 -98.975 -45.914  0.00  0.00     0.035 A 
ATOM     34  C   UNL d   1     -55.292 -98.756 -46.460  0.00  0.00     0.007 A 
ATOM     35  C   UNL d   1     -56.034 -98.815 -46.108  0.00  0.00     0.009 A 
ENDBRANCH  23  31
ENDBRANCH   2  21
TORSDOF 7
ENDMDL
