MODEL 1
REMARK VINA RESULT:      15.8      0.000      0.000
REMARK  2 active torsions:
REMARK  status: ('A' for Active; 'I' for Inactive)
REMARK    1  A    between atoms: C_2  and  N_1 
REMARK    2  A    between atoms: C_4  and  C_7 
ROOT
ATOM      1  C   UNL d   1      45.319 -14.632  37.059  0.00  0.00     0.146 A 
ATOM      2  C   UNL d   1      44.503 -14.724  36.982  0.00  0.00     0.027 A 
ATOM      3  C   UNL d   1      44.190 -15.420  36.631  0.00  0.00     0.021 A 
ATOM      4  C   UNL d   1      45.827 -15.224  36.791  0.00  0.00     0.125 A 
ATOM      5  C   UNL d   1      44.701 -16.005  36.367  0.00  0.00     0.003 A 
ATOM      6  C   UNL d   1      45.514 -15.920  36.440  0.00  0.00     0.023 A 
ATOM      7  N   UNL d   1      46.647 -15.133  36.867  0.00  0.00    -0.146 N 
ENDROOT
BRANCH   3   8
ATOM      8  C   UNL d   1      43.377 -15.506  36.558  0.00  0.00     0.103 A 
ATOM      9  N   UNL d   1      42.869 -14.856  36.633  0.00  0.00    -0.145 NA
ATOM     10  N   UNL d   1      42.056 -14.942  36.559  0.00  0.00    -0.106 NA
ATOM     11  C   UNL d   1      41.737 -15.689  36.408  0.00  0.00     0.297 A 
ATOM     12  C   UNL d   1      42.241 -16.347  36.332  0.00  0.00     0.066 A 
ATOM     13  O   UNL d   1      40.921 -15.783  36.333  0.00  0.00    -0.264 OA
ATOM     14  C   UNL d   1      43.058 -16.253  36.407  0.00  0.00     0.024 A 
ATOM     15  C   UNL d   1      43.558 -16.909  36.330  0.00  0.00     0.002 C 
ENDBRANCH   3   8
BRANCH   1  16
ATOM     16  N   UNL d   1      45.628 -13.947  37.405  0.00  0.00    -0.112 N 
ATOM     17  O   UNL d   1      46.333 -13.624  37.124  0.00  0.00    -0.532 OA
ATOM     18  O   UNL d   1      45.230 -13.584  38.030  0.00  0.00    -0.532 OA
ENDBRANCH   1  16
TORSDOF 2
ENDMDL
