MODEL 1
REMARK VINA RESULT:      -8.1      0.000      0.000
REMARK  7 active torsions:
REMARK  status: ('A' for Active; 'I' for Inactive)
REMARK    1  A    between atoms: C_2  and  S_1 
REMARK    2  A    between atoms: N_7  and  S_1 
REMARK    3  A    between atoms: C_5  and  C_6 
REMARK    4  A    between atoms: C_6  and  C_8 
REMARK    5  A    between atoms: C_15  and  N_7 
REMARK    6  A    between atoms: C_8  and  C_12 
REMARK    7  A    between atoms: C_18  and  C_15 
ROOT
ATOM      1  C   UNL d   1      52.906  32.943  53.356  0.00  0.00     0.105 A 
ATOM      2  C   UNL d   1      53.647  33.167  53.612  0.00  0.00     0.012 A 
ATOM      3  C   UNL d   1      52.731  32.128  53.244  0.00  0.00     0.013 A 
ATOM      4  C   UNL d   1      53.311  31.563  53.394  0.00  0.00     0.001 A 
ATOM      5  C   UNL d   1      54.227  32.601  53.763  0.00  0.00     0.001 A 
ATOM      6  C   UNL d   1      54.070  31.808  53.658  0.00  0.00     0.000 A 
ATOM      7  C   UNL d   1      53.812  33.992  53.722  0.00  0.00     0.001 C 
ENDROOT
BRANCH   1   8
ATOM      8  S   UNL d   1      52.327  33.506  53.206  0.00  0.00     0.285 S 
ATOM      9  O   UNL d   1      52.151  33.540  54.015  0.00  0.00    -0.198 OA
ATOM     10  O   UNL d   1      52.506  33.471  52.386  0.00  0.00    -0.198 OA
BRANCH   8  11
ATOM     11  N   UNL d   1      51.736  34.082  53.053  0.00  0.00    -0.153 NA
BRANCH  11  12
ATOM     12  C   UNL d   1      50.979  33.846  52.818  0.00  0.00     0.157 C 
BRANCH  12  13
ATOM     13  C   UNL d   1      50.364  34.396  52.792  0.00  0.00     0.256 C 
ATOM     14  O   UNL d   1      49.778  34.335  52.210  0.00  0.00    -0.281 OA
ENDBRANCH  12  13
ENDBRANCH  11  12
ENDBRANCH   8  11
ENDBRANCH   1   8
BRANCH   4  15
ATOM     15  C   UNL d   1      53.133  30.745  53.281  0.00  0.00     0.006 C 
BRANCH  15  16
ATOM     16  C   UNL d   1      53.324  30.212  53.876  0.00  0.00     0.070 C 
BRANCH  16  17
ATOM     17  C   UNL d   1      53.046  29.428  53.840  0.00  0.00     0.211 C 
ATOM     18  O   UNL d   1      53.268  28.896  54.431  0.00  0.00    -0.644 OA
ATOM     19  O   UNL d   1      52.559  29.189  53.226  0.00  0.00    -0.644 OA
ENDBRANCH  16  17
ENDBRANCH  15  16
ENDBRANCH   4  15
TORSDOF 7
ENDMDL
MODEL 2
REMARK VINA RESULT:      -8.1      1.753      2.676
REMARK  7 active torsions:
REMARK  status: ('A' for Active; 'I' for Inactive)
REMARK    1  A    between atoms: C_2  and  S_1 
REMARK    2  A    between atoms: N_7  and  S_1 
REMARK    3  A    between atoms: C_5  and  C_6 
REMARK    4  A    between atoms: C_6  and  C_8 
REMARK    5  A    between atoms: C_15  and  N_7 
REMARK    6  A    between atoms: C_8  and  C_12 
REMARK    7  A    between atoms: C_18  and  C_15 
ROOT
ATOM      1  C   UNL d   1      53.427  32.016  53.569  0.00  0.00     0.105 A 
ATOM      2  C   UNL d   1      52.833  32.059  53.012  0.00  0.00     0.012 A 
ATOM      3  C   UNL d   1      53.679  31.266  53.854  0.00  0.00     0.013 A 
ATOM      4  C   UNL d   1      53.322  30.581  53.568  0.00  0.00     0.001 A 
ATOM      5  C   UNL d   1      52.476  31.373  52.726  0.00  0.00     0.001 A 
ATOM      6  C   UNL d   1      52.711  30.640  52.994  0.00  0.00     0.000 A 
ATOM      7  C   UNL d   1      52.587  32.821  52.731  0.00  0.00     0.001 C 
ENDROOT
BRANCH   1   8
ATOM      8  S   UNL d   1      53.783  32.699  53.854  0.00  0.00     0.285 S 
ATOM      9  O   UNL d   1      53.169  32.788  54.404  0.00  0.00    -0.198 OA
ATOM     10  O   UNL d   1      54.404  32.608  53.296  0.00  0.00    -0.198 OA
BRANCH   8  11
ATOM     11  N   UNL d   1      54.147  33.397  54.145  0.00  0.00    -0.153 NA
BRANCH  11  12
ATOM     12  C   UNL d   1      54.674  33.355  54.781  0.00  0.00     0.157 C 
BRANCH  12  13
ATOM     13  C   UNL d   1      54.923  34.046  55.157  0.00  0.00     0.256 C 
ATOM     14  O   UNL d   1      55.650  34.063  55.554  0.00  0.00    -0.281 OA
ENDBRANCH  12  13
ENDBRANCH  11  12
ENDBRANCH   8  11
ENDBRANCH   1   8
BRANCH   4  15
ATOM     15  C   UNL d   1      53.577  29.829  53.857  0.00  0.00     0.006 C 
BRANCH  15  16
ATOM     16  C   UNL d   1      53.049  29.372  54.289  0.00  0.00     0.070 C 
BRANCH  16  17
ATOM     17  C   UNL d   1      53.325  28.728  54.740  0.00  0.00     0.211 C 
ATOM     18  O   UNL d   1      53.180  28.715  55.552  0.00  0.00    -0.644 OA
ATOM     19  O   UNL d   1      53.736  28.117  54.381  0.00  0.00    -0.644 OA
ENDBRANCH  16  17
ENDBRANCH  15  16
ENDBRANCH   4  15
TORSDOF 7
ENDMDL
MODEL 3
REMARK VINA RESULT:      -7.9      1.197      3.865
REMARK  7 active torsions:
REMARK  status: ('A' for Active; 'I' for Inactive)
REMARK    1  A    between atoms: C_2  and  S_1 
REMARK    2  A    between atoms: N_7  and  S_1 
REMARK    3  A    between atoms: C_5  and  C_6 
REMARK    4  A    between atoms: C_6  and  C_8 
REMARK    5  A    between atoms: C_15  and  N_7 
REMARK    6  A    between atoms: C_8  and  C_12 
REMARK    7  A    between atoms: C_18  and  C_15 
ROOT
ATOM      1  C   UNL d   1      53.017  32.956  53.374  0.00  0.00     0.105 A 
ATOM      2  C   UNL d   1      53.486  33.545  53.687  0.00  0.00     0.012 A 
ATOM      3  C   UNL d   1      52.297  33.155  52.988  0.00  0.00     0.013 A 
ATOM      4  C   UNL d   1      52.072  33.946  52.931  0.00  0.00     0.001 A 
ATOM      5  C   UNL d   1      53.261  34.335  53.630  0.00  0.00     0.001 A 
ATOM      6  C   UNL d   1      52.565  34.543  53.258  0.00  0.00     0.000 A 
ATOM      7  C   UNL d   1      54.211  33.331  54.074  0.00  0.00     0.001 C 
ENDROOT
BRANCH   1   8
ATOM      8  S   UNL d   1      53.242  32.168  53.431  0.00  0.00     0.285 S 
ATOM      9  O   UNL d   1      53.043  32.170  54.236  0.00  0.00    -0.198 OA
ATOM     10  O   UNL d   1      53.443  32.166  52.615  0.00  0.00    -0.198 OA
BRANCH   8  11
ATOM     11  N   UNL d   1      53.471  31.362  53.489  0.00  0.00    -0.153 NA
BRANCH  11  12
ATOM     12  C   UNL d   1      52.935  30.764  53.292  0.00  0.00     0.157 C 
BRANCH  12  13
ATOM     13  C   UNL d   1      53.150  29.972  53.381  0.00  0.00     0.256 C 
ATOM     14  O   UNL d   1      52.571  29.380  53.353  0.00  0.00    -0.281 OA
ENDBRANCH  12  13
ENDBRANCH  11  12
ENDBRANCH   8  11
ENDBRANCH   1   8
BRANCH   4  15
ATOM     15  C   UNL d   1      51.348  34.144  52.543  0.00  0.00     0.006 C 
BRANCH  15  16
ATOM     16  C   UNL d   1      50.687  34.310  53.001  0.00  0.00     0.070 C 
BRANCH  16  17
ATOM     17  C   UNL d   1      49.977  34.554  52.638  0.00  0.00     0.211 C 
ATOM     18  O   UNL d   1      49.455  35.034  53.060  0.00  0.00    -0.644 OA
ATOM     19  O   UNL d   1      49.802  34.319  51.873  0.00  0.00    -0.644 OA
ENDBRANCH  16  17
ENDBRANCH  15  16
ENDBRANCH   4  15
TORSDOF 7
ENDMDL
MODEL 4
REMARK VINA RESULT:      -7.6      1.525      2.738
REMARK  7 active torsions:
REMARK  status: ('A' for Active; 'I' for Inactive)
REMARK    1  A    between atoms: C_2  and  S_1 
REMARK    2  A    between atoms: N_7  and  S_1 
REMARK    3  A    between atoms: C_5  and  C_6 
REMARK    4  A    between atoms: C_6  and  C_8 
REMARK    5  A    between atoms: C_15  and  N_7 
REMARK    6  A    between atoms: C_8  and  C_12 
REMARK    7  A    between atoms: C_18  and  C_15 
ROOT
ATOM      1  C   UNL d   1      52.737  32.570  53.226  0.00  0.00     0.105 A 
ATOM      2  C   UNL d   1      52.883  31.770  53.176  0.00  0.00     0.012 A 
ATOM      3  C   UNL d   1      53.315  33.082  53.559  0.00  0.00     0.013 A 
ATOM      4  C   UNL d   1      54.026  32.768  53.833  0.00  0.00     0.001 A 
ATOM      5  C   UNL d   1      53.594  31.456  53.451  0.00  0.00     0.001 A 
ATOM      6  C   UNL d   1      54.164  31.941  53.776  0.00  0.00     0.000 A 
ATOM      7  C   UNL d   1      52.292  31.263  52.838  0.00  0.00     0.001 C 
ENDROOT
BRANCH   1   8
ATOM      8  S   UNL d   1      52.028  32.883  52.952  0.00  0.00     0.285 S 
ATOM      9  O   UNL d   1      51.678  32.732  53.689  0.00  0.00    -0.198 OA
ATOM     10  O   UNL d   1      52.383  33.035  52.207  0.00  0.00    -0.198 OA
BRANCH   8  11
ATOM     11  N   UNL d   1      51.304  33.203  52.673  0.00  0.00    -0.153 NA
BRANCH  11  12
ATOM     12  C   UNL d   1      51.035  33.931  52.959  0.00  0.00     0.157 C 
BRANCH  12  13
ATOM     13  C   UNL d   1      50.356  34.274  52.640  0.00  0.00     0.256 C 
ATOM     14  O   UNL d   1      49.971  34.886  53.045  0.00  0.00    -0.281 OA
ENDBRANCH  12  13
ENDBRANCH  11  12
ENDBRANCH   8  11
ENDBRANCH   1   8
BRANCH   4  15
ATOM     15  C   UNL d   1      54.605  33.284  54.168  0.00  0.00     0.006 C 
BRANCH  15  16
ATOM     16  C   UNL d   1      54.727  33.268  54.980  0.00  0.00     0.070 C 
BRANCH  16  17
ATOM     17  C   UNL d   1      55.209  33.843  55.341  0.00  0.00     0.211 C 
ATOM     18  O   UNL d   1      55.039  34.081  56.113  0.00  0.00    -0.644 OA
ATOM     19  O   UNL d   1      55.843  34.166  54.936  0.00  0.00    -0.644 OA
ENDBRANCH  16  17
ENDBRANCH  15  16
ENDBRANCH   4  15
TORSDOF 7
ENDMDL
MODEL 5
REMARK VINA RESULT:      -7.4      1.783      3.935
REMARK  7 active torsions:
REMARK  status: ('A' for Active; 'I' for Inactive)
REMARK    1  A    between atoms: C_2  and  S_1 
REMARK    2  A    between atoms: N_7  and  S_1 
REMARK    3  A    between atoms: C_5  and  C_6 
REMARK    4  A    between atoms: C_6  and  C_8 
REMARK    5  A    between atoms: C_15  and  N_7 
REMARK    6  A    between atoms: C_8  and  C_12 
REMARK    7  A    between atoms: C_18  and  C_15 
ROOT
ATOM      1  C   UNL d   1      53.227  32.570  53.532  0.00  0.00     0.105 A 
ATOM      2  C   UNL d   1      53.017  31.819  53.294  0.00  0.00     0.012 A 
ATOM      3  C   UNL d   1      52.731  33.222  53.345  0.00  0.00     0.013 A 
ATOM      4  C   UNL d   1      52.035  33.095  52.921  0.00  0.00     0.001 A 
ATOM      5  C   UNL d   1      52.322  31.692  52.870  0.00  0.00     0.001 A 
ATOM      6  C   UNL d   1      51.831  32.316  52.682  0.00  0.00     0.000 A 
ATOM      7  C   UNL d   1      53.526  31.168  53.489  0.00  0.00     0.001 C 
ENDROOT
BRANCH   1   8
ATOM      8  S   UNL d   1      53.920  32.696  53.954  0.00  0.00     0.285 S 
ATOM      9  O   UNL d   1      53.519  32.531  54.661  0.00  0.00    -0.198 OA
ATOM     10  O   UNL d   1      54.326  32.863  53.238  0.00  0.00    -0.198 OA
BRANCH   8  11
ATOM     11  N   UNL d   1      54.628  32.825  54.386  0.00  0.00    -0.153 NA
BRANCH  11  12
ATOM     12  C   UNL d   1      54.721  33.514  54.834  0.00  0.00     0.157 C 
BRANCH  12  13
ATOM     13  C   UNL d   1      55.447  33.682  55.188  0.00  0.00     0.256 C 
ATOM     14  O   UNL d   1      55.555  34.396  55.594  0.00  0.00    -0.281 OA
ENDBRANCH  12  13
ENDBRANCH  11  12
ENDBRANCH   8  11
ENDBRANCH   1   8
BRANCH   4  15
ATOM     15  C   UNL d   1      51.538  33.752  52.734  0.00  0.00     0.006 C 
BRANCH  15  16
ATOM     16  C   UNL d   1      50.742  33.716  52.934  0.00  0.00     0.070 C 
BRANCH  16  17
ATOM     17  C   UNL d   1      50.230  34.339  52.727  0.00  0.00     0.211 C 
ATOM     18  O   UNL d   1      50.053  34.916  53.290  0.00  0.00    -0.644 OA
ATOM     19  O   UNL d   1      49.907  34.378  51.975  0.00  0.00    -0.644 OA
ENDBRANCH  16  17
ENDBRANCH  15  16
ENDBRANCH   4  15
TORSDOF 7
ENDMDL
MODEL 6
REMARK VINA RESULT:      -7.4      1.713      3.602
REMARK  7 active torsions:
REMARK  status: ('A' for Active; 'I' for Inactive)
REMARK    1  A    between atoms: C_2  and  S_1 
REMARK    2  A    between atoms: N_7  and  S_1 
REMARK    3  A    between atoms: C_5  and  C_6 
REMARK    4  A    between atoms: C_6  and  C_8 
REMARK    5  A    between atoms: C_15  and  N_7 
REMARK    6  A    between atoms: C_8  and  C_12 
REMARK    7  A    between atoms: C_18  and  C_15 
ROOT
ATOM      1  C   UNL d   1      52.598  33.046  53.282  0.00  0.00     0.105 A 
ATOM      2  C   UNL d   1      52.201  33.680  52.957  0.00  0.00     0.012 A 
ATOM      3  C   UNL d   1      53.151  33.174  53.902  0.00  0.00     0.013 A 
ATOM      4  C   UNL d   1      53.287  33.939  54.175  0.00  0.00     0.001 A 
ATOM      5  C   UNL d   1      52.336  34.445  53.230  0.00  0.00     0.001 A 
ATOM      6  C   UNL d   1      52.870  34.583  53.831  0.00  0.00     0.000 A 
ATOM      7  C   UNL d   1      51.644  33.539  52.331  0.00  0.00     0.001 C 
ENDROOT
BRANCH   1   8
ATOM      8  S   UNL d   1      52.463  32.284  53.009  0.00  0.00     0.285 S 
ATOM      9  O   UNL d   1      53.123  32.345  52.511  0.00  0.00    -0.198 OA
ATOM     10  O   UNL d   1      51.795  32.222  53.514  0.00  0.00    -0.198 OA
BRANCH   8  11
ATOM     11  N   UNL d   1      52.325  31.504  52.730  0.00  0.00    -0.153 NA
BRANCH  11  12
ATOM     12  C   UNL d   1      52.703  30.862  53.091  0.00  0.00     0.157 C 
BRANCH  12  13
ATOM     13  C   UNL d   1      52.546  30.094  52.835  0.00  0.00     0.256 C 
ATOM     14  O   UNL d   1      52.723  29.449  53.325  0.00  0.00    -0.281 OA
ENDBRANCH  12  13
ENDBRANCH  11  12
ENDBRANCH   8  11
ENDBRANCH   1   8
BRANCH   4  15
ATOM     15  C   UNL d   1      53.844  34.064  54.799  0.00  0.00     0.006 C 
BRANCH  15  16
ATOM     16  C   UNL d   1      54.601  33.755  54.721  0.00  0.00     0.070 C 
BRANCH  16  17
ATOM     17  C   UNL d   1      55.180  33.920  55.296  0.00  0.00     0.211 C 
ATOM     18  O   UNL d   1      55.895  34.259  55.059  0.00  0.00    -0.644 OA
ATOM     19  O   UNL d   1      55.042  33.748  56.085  0.00  0.00    -0.644 OA
ENDBRANCH  16  17
ENDBRANCH  15  16
ENDBRANCH   4  15
TORSDOF 7
ENDMDL
