MODEL 1
REMARK VINA RESULT:      15.5      0.000      0.000
REMARK  2 active torsions:
REMARK  status: ('A' for Active; 'I' for Inactive)
REMARK    1  A    between atoms: S_8  and  C_4 
REMARK    2  A    between atoms: C_12  and  S_8 
ROOT
ATOM      1  C   UNL d   1      44.049 -15.426  36.622  0.00  0.00     0.141 A 
ATOM      2  O   UNL d   1      44.228 -14.631  36.749  0.00  0.00    -0.303 OA
ATOM      3  C   UNL d   1      44.745 -15.864  36.709  0.00  0.00     0.110 A 
ATOM      4  C   UNL d   1      43.344 -15.804  36.439  0.00  0.00     0.137 A 
ATOM      5  C   UNL d   1      45.352 -15.340  36.890  0.00  0.00     0.043 A 
ATOM      6  C   UNL d   1      45.039 -14.576  36.915  0.00  0.00     0.102 A 
ATOM      7  N   UNL d   1      43.329 -16.628  36.342  0.00  0.00    -0.215 NA
ATOM      8  N   UNL d   1      44.725 -16.681  36.612  0.00  0.00    -0.222 NA
ATOM      9  C   UNL d   1      44.019 -17.059  36.429  0.00  0.00     0.200 A 
ATOM     10  C   UNL d   1      46.159 -15.463  37.035  0.00  0.00     0.004 A 
ATOM     11  C   UNL d   1      45.527 -13.930  37.086  0.00  0.00     0.025 A 
ATOM     12  C   UNL d   1      46.647 -14.816  37.206  0.00  0.00     0.000 A 
ATOM     13  C   UNL d   1      46.331 -14.057  37.230  0.00  0.00     0.002 A 
ENDROOT
BRANCH   4  14
ATOM     14  S   UNL d   1      42.641 -15.371  36.350  0.00  0.00    -0.066 SA
BRANCH  14  15
ATOM     15  C   UNL d   1      41.961 -15.611  36.752  0.00  0.00     0.031 C 
ATOM     16  C   UNL d   1      41.447 -16.154  36.405  0.00  0.00     0.007 C 
ATOM     17  C   UNL d   1      41.798 -15.307  37.496  0.00  0.00     0.007 C 
ENDBRANCH  14  15
ENDBRANCH   4  14
TORSDOF 2
ENDMDL
MODEL 2
REMARK VINA RESULT:      16.8      0.990      3.301
REMARK  2 active torsions:
REMARK  status: ('A' for Active; 'I' for Inactive)
REMARK    1  A    between atoms: S_8  and  C_4 
REMARK    2  A    between atoms: C_12  and  S_8 
ROOT
ATOM      1  C   UNL d   1      44.232 -15.270  36.802  0.00  0.00     0.141 A 
ATOM      2  O   UNL d   1      43.624 -14.721  36.897  0.00  0.00    -0.303 OA
ATOM      3  C   UNL d   1      43.896 -15.991  36.575  0.00  0.00     0.110 A 
ATOM      4  C   UNL d   1      45.045 -15.205  36.894  0.00  0.00     0.137 A 
ATOM      5  C   UNL d   1      43.082 -15.886  36.529  0.00  0.00     0.043 A 
ATOM      6  C   UNL d   1      42.908 -15.104  36.728  0.00  0.00     0.102 A 
ATOM      7  N   UNL d   1      45.532 -15.864  36.758  0.00  0.00    -0.215 NA
ATOM      8  N   UNL d   1      44.383 -16.641  36.441  0.00  0.00    -0.222 NA
ATOM      9  C   UNL d   1      45.196 -16.576  36.533  0.00  0.00     0.200 A 
ATOM     10  C   UNL d   1      42.471 -16.410  36.330  0.00  0.00     0.004 A 
ATOM     11  C   UNL d   1      42.124 -14.838  36.729  0.00  0.00     0.025 A 
ATOM     12  C   UNL d   1      41.687 -16.144  36.332  0.00  0.00     0.000 A 
ATOM     13  C   UNL d   1      41.518 -15.363  36.530  0.00  0.00     0.002 A 
ENDROOT
BRANCH   4  14
ATOM     14  S   UNL d   1      45.390 -14.485  37.122  0.00  0.00    -0.066 SA
BRANCH  14  15
ATOM     15  C   UNL d   1      46.211 -14.400  37.096  0.00  0.00     0.031 C 
ATOM     16  C   UNL d   1      46.602 -14.392  36.370  0.00  0.00     0.007 C 
ATOM     17  C   UNL d   1      46.636 -14.323  37.794  0.00  0.00     0.007 C 
ENDBRANCH  14  15
ENDBRANCH   4  14
TORSDOF 2
ENDMDL
MODEL 3
REMARK VINA RESULT:      18.1      7.829      8.354
REMARK  2 active torsions:
REMARK  status: ('A' for Active; 'I' for Inactive)
REMARK    1  A    between atoms: S_8  and  C_4 
REMARK    2  A    between atoms: C_12  and  S_8 
ROOT
ATOM      1  C   UNL d   1      45.684 -14.830  44.729  0.00  0.00     0.141 A 
ATOM      2  O   UNL d   1      46.380 -14.401  44.620  0.00  0.00    -0.303 OA
ATOM      3  C   UNL d   1      45.058 -14.292  44.795  0.00  0.00     0.110 A 
ATOM      4  C   UNL d   1      45.542 -15.636  44.775  0.00  0.00     0.137 A 
ATOM      5  C   UNL d   1      45.368 -13.534  44.727  0.00  0.00     0.043 A 
ATOM      6  C   UNL d   1      46.185 -13.595  44.619  0.00  0.00     0.102 A 
ATOM      7  N   UNL d   1      44.768 -15.915  44.889  0.00  0.00    -0.215 NA
ATOM      8  N   UNL d   1      44.293 -14.574  44.908  0.00  0.00    -0.222 NA
ATOM      9  C   UNL d   1      44.150 -15.381  44.954  0.00  0.00     0.200 A 
ATOM     10  C   UNL d   1      45.007 -12.789  44.751  0.00  0.00     0.004 A 
ATOM     11  C   UNL d   1      46.647 -12.913  44.534  0.00  0.00     0.025 A 
ATOM     12  C   UNL d   1      45.469 -12.107  44.665  0.00  0.00     0.000 A 
ATOM     13  C   UNL d   1      46.282 -12.172  44.558  0.00  0.00     0.002 A 
ENDROOT
BRANCH   4  14
ATOM     14  S   UNL d   1      46.164 -16.181  44.710  0.00  0.00    -0.066 SA
BRANCH  14  15
ATOM     15  C   UNL d   1      46.014 -16.939  44.418  0.00  0.00     0.031 C 
ATOM     16  C   UNL d   1      45.988 -17.071  43.605  0.00  0.00     0.007 C 
ATOM     17  C   UNL d   1      45.891 -17.560  44.940  0.00  0.00     0.007 C 
ENDBRANCH  14  15
ENDBRANCH   4  14
TORSDOF 2
ENDMDL
MODEL 4
REMARK VINA RESULT:      18.1      7.833      8.360
REMARK  2 active torsions:
REMARK  status: ('A' for Active; 'I' for Inactive)
REMARK    1  A    between atoms: S_8  and  C_4 
REMARK    2  A    between atoms: C_12  and  S_8 
ROOT
ATOM      1  C   UNL d   1      46.133 -17.661  44.240  0.00  0.00     0.141 A 
ATOM      2  O   UNL d   1      46.231 -18.172  44.879  0.00  0.00    -0.303 OA
ATOM      3  C   UNL d   1      46.218 -18.099  43.543  0.00  0.00     0.110 A 
ATOM      4  C   UNL d   1      45.978 -16.856  44.204  0.00  0.00     0.137 A 
ATOM      5  C   UNL d   1      46.368 -18.879  43.753  0.00  0.00     0.043 A 
ATOM      6  C   UNL d   1      46.377 -18.931  44.577  0.00  0.00     0.102 A 
ATOM      7  N   UNL d   1      45.906 -16.480  43.467  0.00  0.00    -0.215 NA
ATOM      8  N   UNL d   1      46.146 -17.721  42.815  0.00  0.00    -0.222 NA
ATOM      9  C   UNL d   1      45.991 -16.916  42.779  0.00  0.00     0.200 A 
ATOM     10  C   UNL d   1      46.499 -19.557  43.293  0.00  0.00     0.004 A 
ATOM     11  C   UNL d   1      46.517 -19.657  44.949  0.00  0.00     0.025 A 
ATOM     12  C   UNL d   1      46.639 -20.283  43.665  0.00  0.00     0.000 A 
ATOM     13  C   UNL d   1      46.647 -20.330  44.487  0.00  0.00     0.002 A 
ENDROOT
BRANCH   4  14
ATOM     14  S   UNL d   1      45.891 -16.409  44.898  0.00  0.00    -0.066 SA
BRANCH  14  15
ATOM     15  C   UNL d   1      45.522 -15.671  44.864  0.00  0.00     0.031 C 
ATOM     16  C   UNL d   1      44.701 -15.618  44.887  0.00  0.00     0.007 C 
ATOM     17  C   UNL d   1      45.978 -14.990  44.808  0.00  0.00     0.007 C 
ENDBRANCH  14  15
ENDBRANCH   4  14
TORSDOF 2
ENDMDL
