MODEL 1
REMARK VINA RESULT:      75.8      0.000      0.000
REMARK  4 active torsions:
REMARK  status: ('A' for Active; 'I' for Inactive)
REMARK    1  A    between atoms: C_7  and  C_2 
REMARK    2  A    between atoms: C_9  and  C_4 
REMARK    3  A    between atoms: C_15  and  C_7 
REMARK    4  A    between atoms: N_8  and  C_9 
ROOT
ATOM      1  C   UNL d   1     -55.553-100.869 -44.472  0.00  0.00     0.108 A 
ATOM      2  C   UNL d   1     -56.020 -99.613 -44.460  0.00  0.00     0.139 A 
ATOM      3  O   UNL d   1     -55.940-100.303 -44.003  0.00  0.00    -0.304 OA
ATOM      4  C   UNL d   1     -55.324-101.645 -44.323  0.00  0.00     0.079 A 
ATOM      5  C   UNL d   1     -55.398-100.529 -45.210  0.00  0.00     0.064 A 
ATOM      6  C   UNL d   1     -55.686 -99.756 -45.200  0.00  0.00     0.220 A 
ATOM      7  C   UNL d   1     -55.014-100.967 -45.794  0.00  0.00     0.009 A 
ATOM      8  C   UNL d   1     -54.944-102.076 -44.905  0.00  0.00     0.199 A 
ATOM      9  O   UNL d   1     -55.646 -99.215 -45.827  0.00  0.00    -0.284 OA
ATOM     10  C   UNL d   1     -54.786-101.745 -45.641  0.00  0.00     0.042 A 
ATOM     11  O   UNL d   1     -54.716-102.854 -44.751  0.00  0.00    -0.286 OA
ENDROOT
BRANCH   2  12
ATOM     12  C   UNL d   1     -56.374 -98.908 -44.211  0.00  0.00     0.028 C 
BRANCH  12  13
ATOM     13  C   UNL d   1     -57.185 -98.884 -44.049  0.00  0.00     0.002 A 
ATOM     14  C   UNL d   1     -57.449 -98.962 -43.271  0.00  0.00     0.000 A 
ATOM     15  C   UNL d   1     -58.254 -98.938 -43.104  0.00  0.00     0.000 A 
ATOM     16  C   UNL d   1     -58.801 -98.835 -43.721  0.00  0.00     0.000 A 
ATOM     17  C   UNL d   1     -58.537 -98.757 -44.498  0.00  0.00     0.000 A 
ATOM     18  C   UNL d   1     -59.609 -98.811 -43.556  0.00  0.00     0.000 C 
ATOM     19  C   UNL d   1     -57.727 -98.782 -44.660  0.00  0.00     0.000 A 
ENDBRANCH  12  13
ENDBRANCH   2  12
BRANCH   4  20
ATOM     20  C   UNL d   1     -55.478-101.981 -43.593  0.00  0.00     0.086 C 
BRANCH  20  21
ATOM     21  N   UNL d   1     -55.282-101.649 -42.855  0.00  0.00    -0.300 N 
ATOM     22  C   UNL d   1     -55.482-102.059 -42.174  0.00  0.00     0.100 A 
ATOM     23  C   UNL d   1     -55.292-101.740 -41.439  0.00  0.00     0.100 A 
ATOM     24  N   UNL d   1     -54.907-101.020 -41.405  0.00  0.00    -0.299 N 
ATOM     25  C   UNL d   1     -54.714-100.623 -42.094  0.00  0.00     0.100 A 
ATOM     26  C   UNL d   1     -54.717-100.700 -40.680  0.00  0.00     0.100 C 
ATOM     27  C   UNL d   1     -54.905-100.944 -42.816  0.00  0.00     0.100 A 
ENDBRANCH  20  21
ENDBRANCH   4  20
TORSDOF 4
ENDMDL
