MODEL 1
REMARK VINA RESULT:      -7.9      0.000      0.000
REMARK  3 active torsions:
REMARK  status: ('A' for Active; 'I' for Inactive)
REMARK       I    between atoms: C_4  and  N_1 
REMARK    1  A    between atoms: N_3  and  C_2 
REMARK    2  A    between atoms: C_9  and  C_4 
REMARK    3  A    between atoms: N_10  and  C_5 
ROOT
ATOM      1  C   UNL d   1     -48.979  12.495  22.362  0.00  0.00     0.143 A 
ATOM      2  C   UNL d   1     -49.097  13.154  22.884  0.00  0.00     0.086 A 
ATOM      3  C   UNL d   1     -48.364  11.959  22.548  0.00  0.00     0.030 A 
ATOM      4  C   UNL d   1     -47.901  12.084  23.217  0.00  0.00     0.058 A 
ATOM      5  C   UNL d   1     -48.620  13.249  23.538  0.00  0.00     0.019 A 
ATOM      6  C   UNL d   1     -48.023  12.709  23.698  0.00  0.00     0.006 A 
ENDROOT
BRANCH   4   7
ATOM      7  C   UNL d   1     -47.301  11.535  23.372  0.00  0.00     0.265 C 
ATOM      8  N   UNL d   1     -46.508  11.751  23.190  0.00  0.00    -0.275 N 
ATOM      9  C   UNL d   1     -45.841  11.280  23.305  0.00  0.00     0.067 A 
ATOM     10  C   UNL d   1     -46.267  12.473  22.866  0.00  0.00     0.067 A 
ATOM     11  C   UNL d   1     -45.206  11.697  23.060  0.00  0.00     0.019 A 
ATOM     12  C   UNL d   1     -45.629  10.303  23.681  0.00  0.00     0.019 C 
ATOM     13  C   UNL d   1     -45.447  12.440  22.784  0.00  0.00     0.018 A 
ATOM     14  C   UNL d   1     -45.044  13.088  22.471  0.00  0.00     0.002 A 
ATOM     15  C   UNL d   1     -45.463  13.746  22.250  0.00  0.00     0.000 A 
ATOM     16  C   UNL d   1     -46.272  13.784  22.329  0.00  0.00     0.002 A 
ATOM     17  C   UNL d   1     -46.682  13.141  22.640  0.00  0.00     0.018 A 
ATOM     18  O   UNL d   1     -47.458  10.785  23.698  0.00  0.00    -0.267 OA
ENDBRANCH   4   7
BRANCH   1  19
ATOM     19  N   UNL d   1     -49.463  12.393  21.691  0.00  0.00    -0.112 N 
ATOM     20  O   UNL d   1     -50.178  11.940  21.746  0.00  0.00    -0.532 OA
ATOM     21  O   UNL d   1     -49.255  12.731  20.963  0.00  0.00    -0.532 OA
ENDBRANCH   1  19
BRANCH   2  22
ATOM     22  N   UNL d   1     -49.703  13.700  22.718  0.00  0.00    -0.302 N 
ATOM     23  C   UNL d   1     -49.594  14.336  22.174  0.00  0.00     0.080 A 
ATOM     24  C   UNL d   1     -50.209  14.866  22.025  0.00  0.00     0.019 A 
ATOM     25  C   UNL d   1     -50.930  14.781  22.402  0.00  0.00     0.003 A 
ATOM     26  C   UNL d   1     -51.064  14.163  22.942  0.00  0.00     0.019 A 
ATOM     27  C   UNL d   1     -50.452  13.631  23.094  0.00  0.00     0.080 A 
ENDBRANCH   2  22
TORSDOF 3
ENDMDL
MODEL 2
REMARK VINA RESULT:      -7.5      1.566      4.514
REMARK  3 active torsions:
REMARK  status: ('A' for Active; 'I' for Inactive)
REMARK       I    between atoms: C_4  and  N_1 
REMARK    1  A    between atoms: N_3  and  C_2 
REMARK    2  A    between atoms: C_9  and  C_4 
REMARK    3  A    between atoms: N_10  and  C_5 
ROOT
ATOM      1  C   UNL d   1     -46.837  13.769  22.478  0.00  0.00     0.143 A 
ATOM      2  C   UNL d   1     -46.590  13.086  22.037  0.00  0.00     0.086 A 
ATOM      3  C   UNL d   1     -47.637  14.004  22.412  0.00  0.00     0.030 A 
ATOM      4  C   UNL d   1     -48.151  13.576  21.932  0.00  0.00     0.058 A 
ATOM      5  C   UNL d   1     -47.125  12.685  21.571  0.00  0.00     0.019 A 
ATOM      6  C   UNL d   1     -47.905  12.936  21.524  0.00  0.00     0.006 A 
ENDROOT
BRANCH   4   7
ATOM      7  C   UNL d   1     -48.936  13.835  21.889  0.00  0.00     0.265 C 
ATOM      8  N   UNL d   1     -49.524  13.393  22.299  0.00  0.00    -0.275 N 
ATOM      9  C   UNL d   1     -50.329  13.565  22.321  0.00  0.00     0.067 A 
ATOM     10  C   UNL d   1     -49.388  12.712  22.748  0.00  0.00     0.067 A 
ATOM     11  C   UNL d   1     -50.684  13.008  22.769  0.00  0.00     0.019 A 
ATOM     12  C   UNL d   1     -50.981  14.310  21.918  0.00  0.00     0.019 C 
ATOM     13  C   UNL d   1     -50.119  12.468  23.046  0.00  0.00     0.018 A 
ATOM     14  C   UNL d   1     -50.159  11.795  23.520  0.00  0.00     0.002 A 
ATOM     15  C   UNL d   1     -49.480  11.385  23.686  0.00  0.00     0.000 A 
ATOM     16  C   UNL d   1     -48.757  11.621  23.396  0.00  0.00     0.002 A 
ATOM     17  C   UNL d   1     -48.708  12.292  22.921  0.00  0.00     0.018 A 
ATOM     18  O   UNL d   1     -49.158  14.512  21.458  0.00  0.00    -0.267 OA
ENDBRANCH   4   7
BRANCH   1  19
ATOM     19  N   UNL d   1     -46.295  14.183  22.956  0.00  0.00    -0.112 N 
ATOM     20  O   UNL d   1     -45.962  14.916  22.687  0.00  0.00    -0.532 OA
ATOM     21  O   UNL d   1     -46.072  13.888  23.698  0.00  0.00    -0.532 OA
ENDBRANCH   1  19
BRANCH   2  22
ATOM     22  N   UNL d   1     -45.799  12.834  22.088  0.00  0.00    -0.302 N 
ATOM     23  C   UNL d   1     -45.552  12.245  22.639  0.00  0.00     0.080 A 
ATOM     24  C   UNL d   1     -44.762  12.011  22.672  0.00  0.00     0.019 A 
ATOM     25  C   UNL d   1     -44.208  12.346  22.171  0.00  0.00     0.003 A 
ATOM     26  C   UNL d   1     -44.424  12.928  21.618  0.00  0.00     0.019 A 
ATOM     27  C   UNL d   1     -45.214  13.165  21.582  0.00  0.00     0.080 A 
ENDBRANCH   2  22
TORSDOF 3
ENDMDL
MODEL 3
REMARK VINA RESULT:      -7.1      1.068      1.901
REMARK  3 active torsions:
REMARK  status: ('A' for Active; 'I' for Inactive)
REMARK       I    between atoms: C_4  and  N_1 
REMARK    1  A    between atoms: N_3  and  C_2 
REMARK    2  A    between atoms: C_9  and  C_4 
REMARK    3  A    between atoms: N_10  and  C_5 
ROOT
ATOM      1  C   UNL d   1     -48.421  13.278  22.175  0.00  0.00     0.143 A 
ATOM      2  C   UNL d   1     -48.635  13.361  22.993  0.00  0.00     0.086 A 
ATOM      3  C   UNL d   1     -47.607  13.305  21.984  0.00  0.00     0.030 A 
ATOM      4  C   UNL d   1     -47.049  13.409  22.580  0.00  0.00     0.058 A 
ATOM      5  C   UNL d   1     -48.058  13.464  23.559  0.00  0.00     0.019 A 
ATOM      6  C   UNL d   1     -47.266  13.487  23.344  0.00  0.00     0.006 A 
ENDROOT
BRANCH   4   7
ATOM      7  C   UNL d   1     -46.252  13.432  22.356  0.00  0.00     0.265 C 
ATOM      8  N   UNL d   1     -45.767  12.773  22.551  0.00  0.00    -0.275 N 
ATOM      9  C   UNL d   1     -44.965  12.695  22.375  0.00  0.00     0.067 A 
ATOM     10  C   UNL d   1     -46.014  12.093  22.952  0.00  0.00     0.067 A 
ATOM     11  C   UNL d   1     -44.723  11.990  22.658  0.00  0.00     0.019 A 
ATOM     12  C   UNL d   1     -44.212  13.276  21.888  0.00  0.00     0.019 C 
ATOM     13  C   UNL d   1     -45.357  11.598  23.020  0.00  0.00     0.018 A 
ATOM     14  C   UNL d   1     -45.435  10.870  23.399  0.00  0.00     0.002 A 
ATOM     15  C   UNL d   1     -46.156  10.654  23.698  0.00  0.00     0.000 A 
ATOM     16  C   UNL d   1     -46.808  11.137  23.634  0.00  0.00     0.002 A 
ATOM     17  C   UNL d   1     -46.739  11.866  23.257  0.00  0.00     0.018 A 
ATOM     18  O   UNL d   1     -45.923  14.079  21.950  0.00  0.00    -0.267 OA
ENDBRANCH   4   7
BRANCH   1  19
ATOM     19  N   UNL d   1     -49.007  13.173  21.592  0.00  0.00    -0.112 N 
ATOM     20  O   UNL d   1     -49.235  12.392  21.353  0.00  0.00    -0.532 OA
ATOM     21  O   UNL d   1     -49.374  13.826  21.238  0.00  0.00    -0.532 OA
ENDBRANCH   1  19
BRANCH   2  22
ATOM     22  N   UNL d   1     -49.439  13.337  23.206  0.00  0.00    -0.302 N 
ATOM     23  C   UNL d   1     -49.909  14.037  23.254  0.00  0.00     0.080 A 
ATOM     24  C   UNL d   1     -50.705  13.989  23.468  0.00  0.00     0.019 A 
ATOM     25  C   UNL d   1     -51.047  13.265  23.636  0.00  0.00     0.003 A 
ATOM     26  C   UNL d   1     -50.607  12.561  23.596  0.00  0.00     0.019 A 
ATOM     27  C   UNL d   1     -49.811  12.604  23.383  0.00  0.00     0.080 A 
ENDBRANCH   2  22
TORSDOF 3
ENDMDL
MODEL 4
REMARK VINA RESULT:      -6.5      8.471     10.209
REMARK  3 active torsions:
REMARK  status: ('A' for Active; 'I' for Inactive)
REMARK       I    between atoms: C_4  and  N_1 
REMARK    1  A    between atoms: N_3  and  C_2 
REMARK    2  A    between atoms: C_9  and  C_4 
REMARK    3  A    between atoms: N_10  and  C_5 
ROOT
ATOM      1  C   UNL d   1     -38.935  14.123  18.196  0.00  0.00     0.143 A 
ATOM      2  C   UNL d   1     -38.602  14.888  18.037  0.00  0.00     0.086 A 
ATOM      3  C   UNL d   1     -38.902  13.842  18.983  0.00  0.00     0.030 A 
ATOM      4  C   UNL d   1     -38.555  14.305  19.568  0.00  0.00     0.058 A 
ATOM      5  C   UNL d   1     -38.265  15.321  18.639  0.00  0.00     0.019 A 
ATOM      6  C   UNL d   1     -38.245  15.022  19.404  0.00  0.00     0.006 A 
ENDROOT
BRANCH   4   7
ATOM      7  C   UNL d   1     -38.538  13.997  20.337  0.00  0.00     0.265 C 
ATOM      8  N   UNL d   1     -39.103  14.283  20.891  0.00  0.00    -0.275 N 
ATOM      9  C   UNL d   1     -39.172  14.044  21.677  0.00  0.00     0.067 A 
ATOM     10  C   UNL d   1     -39.684  14.852  20.738  0.00  0.00     0.067 A 
ATOM     11  C   UNL d   1     -39.776  14.451  22.002  0.00  0.00     0.019 A 
ATOM     12  C   UNL d   1     -38.678  13.359  22.332  0.00  0.00     0.019 C 
ATOM     13  C   UNL d   1     -40.109  14.959  21.438  0.00  0.00     0.018 A 
ATOM     14  C   UNL d   1     -40.731  15.500  21.455  0.00  0.00     0.002 A 
ATOM     15  C   UNL d   1     -40.914  15.916  20.785  0.00  0.00     0.000 A 
ATOM     16  C   UNL d   1     -40.498  15.815  20.092  0.00  0.00     0.002 A 
ATOM     17  C   UNL d   1     -39.875  15.277  20.066  0.00  0.00     0.018 A 
ATOM     18  O   UNL d   1     -37.986  13.421  20.573  0.00  0.00    -0.267 OA
ENDBRANCH   4   7
BRANCH   1  19
ATOM     19  N   UNL d   1     -39.281  13.676  17.583  0.00  0.00    -0.112 N 
ATOM     20  O   UNL d   1     -40.109  13.750  17.416  0.00  0.00    -0.532 OA
ATOM     21  O   UNL d   1     -38.823  13.155  17.129  0.00  0.00    -0.532 OA
ENDBRANCH   1  19
BRANCH   2  22
ATOM     22  N   UNL d   1     -38.624  15.187  17.261  0.00  0.00    -0.302 N 
ATOM     23  C   UNL d   1     -39.292  15.610  16.964  0.00  0.00     0.080 A 
ATOM     24  C   UNL d   1     -39.293  15.898  16.191  0.00  0.00     0.019 A 
ATOM     25  C   UNL d   1     -38.647  15.778  15.703  0.00  0.00     0.003 A 
ATOM     26  C   UNL d   1     -37.975  15.365  15.970  0.00  0.00     0.019 A 
ATOM     27  C   UNL d   1     -37.972  15.075  16.743  0.00  0.00     0.080 A 
ENDBRANCH   2  22
TORSDOF 3
ENDMDL
MODEL 5
REMARK VINA RESULT:      -6.2      8.378     10.440
REMARK  3 active torsions:
REMARK  status: ('A' for Active; 'I' for Inactive)
REMARK       I    between atoms: C_4  and  N_1 
REMARK    1  A    between atoms: N_3  and  C_2 
REMARK    2  A    between atoms: C_9  and  C_4 
REMARK    3  A    between atoms: N_10  and  C_5 
ROOT
ATOM      1  C   UNL d   1     -40.050  15.146  18.639  0.00  0.00     0.143 A 
ATOM      2  C   UNL d   1     -39.475  15.145  19.264  0.00  0.00     0.086 A 
ATOM      3  C   UNL d   1     -39.767  15.170  17.852  0.00  0.00     0.030 A 
ATOM      4  C   UNL d   1     -38.956  15.191  17.710  0.00  0.00     0.058 A 
ATOM      5  C   UNL d   1     -38.680  15.166  19.089  0.00  0.00     0.019 A 
ATOM      6  C   UNL d   1     -38.427  15.190  18.307  0.00  0.00     0.006 A 
ENDROOT
BRANCH   4   7
ATOM      7  C   UNL d   1     -38.710  15.214  16.920  0.00  0.00     0.265 C 
ATOM      8  N   UNL d   1     -38.425  14.503  16.572  0.00  0.00    -0.275 N 
ATOM      9  C   UNL d   1     -38.157  14.418  15.796  0.00  0.00     0.067 A 
ATOM     10  C   UNL d   1     -38.368  13.770  16.951  0.00  0.00     0.067 A 
ATOM     11  C   UNL d   1     -37.940  13.657  15.697  0.00  0.00     0.019 A 
ATOM     12  C   UNL d   1     -38.036  15.043  14.939  0.00  0.00     0.019 C 
ATOM     13  C   UNL d   1     -38.062  13.236  16.401  0.00  0.00     0.018 A 
ATOM     14  C   UNL d   1     -37.941  12.450  16.622  0.00  0.00     0.002 A 
ATOM     15  C   UNL d   1     -38.125  12.218  17.376  0.00  0.00     0.000 A 
ATOM     16  C   UNL d   1     -38.427  12.740  17.923  0.00  0.00     0.002 A 
ATOM     17  C   UNL d   1     -38.550  13.526  17.710  0.00  0.00     0.018 A 
ATOM     18  O   UNL d   1     -38.735  15.912  16.467  0.00  0.00    -0.267 OA
ENDBRANCH   4   7
BRANCH   1  19
ATOM     19  N   UNL d   1     -40.865  15.124  18.813  0.00  0.00    -0.112 N 
ATOM     20  O   UNL d   1     -41.305  15.845  18.884  0.00  0.00    -0.532 OA
ATOM     21  O   UNL d   1     -41.256  14.400  18.919  0.00  0.00    -0.532 OA
ENDBRANCH   1  19
BRANCH   2  22
ATOM     22  N   UNL d   1     -39.734  15.121  20.054  0.00  0.00    -0.302 N 
ATOM     23  C   UNL d   1     -39.892  15.825  20.494  0.00  0.00     0.080 A 
ATOM     24  C   UNL d   1     -40.148  15.778  21.276  0.00  0.00     0.019 A 
ATOM     25  C   UNL d   1     -40.252  15.050  21.636  0.00  0.00     0.003 A 
ATOM     26  C   UNL d   1     -40.104  14.341  21.226  0.00  0.00     0.019 A 
ATOM     27  C   UNL d   1     -39.848  14.385  20.443  0.00  0.00     0.080 A 
ENDBRANCH   2  22
TORSDOF 3
ENDMDL
MODEL 6
REMARK VINA RESULT:      -6.1      8.403      9.760
REMARK  3 active torsions:
REMARK  status: ('A' for Active; 'I' for Inactive)
REMARK       I    between atoms: C_4  and  N_1 
REMARK    1  A    between atoms: N_3  and  C_2 
REMARK    2  A    between atoms: C_9  and  C_4 
REMARK    3  A    between atoms: N_10  and  C_5 
ROOT
ATOM      1  C   UNL d   1     -40.272  14.934  20.472  0.00  0.00     0.143 A 
ATOM      2  C   UNL d   1     -39.533  15.300  20.673  0.00  0.00     0.086 A 
ATOM      3  C   UNL d   1     -40.524  14.981  19.676  0.00  0.00     0.030 A 
ATOM      4  C   UNL d   1     -40.057  15.372  19.122  0.00  0.00     0.058 A 
ATOM      5  C   UNL d   1     -39.095  15.680  20.101  0.00  0.00     0.019 A 
ATOM      6  C   UNL d   1     -39.364  15.711  19.326  0.00  0.00     0.006 A 
ENDROOT
BRANCH   4   7
ATOM      7  C   UNL d   1     -40.335  15.399  18.342  0.00  0.00     0.265 C 
ATOM      8  N   UNL d   1     -39.990  14.878  17.779  0.00  0.00    -0.275 N 
ATOM      9  C   UNL d   1     -40.193  14.826  16.982  0.00  0.00     0.067 A 
ATOM     10  C   UNL d   1     -39.390  14.330  17.933  0.00  0.00     0.067 A 
ATOM     11  C   UNL d   1     -39.733  14.264  16.651  0.00  0.00     0.019 A 
ATOM     12  C   UNL d   1     -40.883  15.300  16.318  0.00  0.00     0.019 C 
ATOM     13  C   UNL d   1     -39.227  13.942  17.223  0.00  0.00     0.018 A 
ATOM     14  C   UNL d   1     -38.644  13.358  17.204  0.00  0.00     0.002 A 
ATOM     15  C   UNL d   1     -38.243  13.176  17.885  0.00  0.00     0.000 A 
ATOM     16  C   UNL d   1     -38.399  13.555  18.588  0.00  0.00     0.002 A 
ATOM     17  C   UNL d   1     -38.979  14.140  18.615  0.00  0.00     0.018 A 
ATOM     18  O   UNL d   1     -40.937  15.922  18.104  0.00  0.00    -0.267 OA
ENDBRANCH   4   7
BRANCH   1  19
ATOM     19  N   UNL d   1     -40.724  14.545  21.054  0.00  0.00    -0.112 N 
ATOM     20  O   UNL d   1     -41.362  14.949  21.440  0.00  0.00    -0.532 OA
ATOM     21  O   UNL d   1     -40.559  13.760  21.264  0.00  0.00    -0.532 OA
ENDBRANCH   1  19
BRANCH   2  22
ATOM     22  N   UNL d   1     -39.264  15.266  21.460  0.00  0.00    -0.302 N 
ATOM     23  C   UNL d   1     -38.833  14.603  21.756  0.00  0.00     0.080 A 
ATOM     24  C   UNL d   1     -38.576  14.591  22.540  0.00  0.00     0.019 A 
ATOM     25  C   UNL d   1     -38.734  15.220  23.039  0.00  0.00     0.003 A 
ATOM     26  C   UNL d   1     -39.157  15.886  22.773  0.00  0.00     0.019 A 
ATOM     27  C   UNL d   1     -39.416  15.901  21.990  0.00  0.00     0.080 A 
ENDBRANCH   2  22
TORSDOF 3
ENDMDL
MODEL 7
REMARK VINA RESULT:      -6.1      1.176      4.176
REMARK  3 active torsions:
REMARK  status: ('A' for Active; 'I' for Inactive)
REMARK       I    between atoms: C_4  and  N_1 
REMARK    1  A    between atoms: N_3  and  C_2 
REMARK    2  A    between atoms: C_9  and  C_4 
REMARK    3  A    between atoms: N_10  and  C_5 
ROOT
ATOM      1  C   UNL d   1     -46.874  12.621  22.830  0.00  0.00     0.143 A 
ATOM      2  C   UNL d   1     -46.677  12.903  22.054  0.00  0.00     0.086 A 
ATOM      3  C   UNL d   1     -47.680  12.462  22.991  0.00  0.00     0.030 A 
ATOM      4  C   UNL d   1     -48.245  12.580  22.404  0.00  0.00     0.058 A 
ATOM      5  C   UNL d   1     -47.261  13.010  21.496  0.00  0.00     0.019 A 
ATOM      6  C   UNL d   1     -48.044  12.846  21.679  0.00  0.00     0.006 A 
ENDROOT
BRANCH   4   7
ATOM      7  C   UNL d   1     -49.033  12.413  22.596  0.00  0.00     0.265 C 
ATOM      8  N   UNL d   1     -49.550  13.058  22.752  0.00  0.00    -0.275 N 
ATOM      9  C   UNL d   1     -50.348  13.000  22.951  0.00  0.00     0.067 A 
ATOM     10  C   UNL d   1     -49.341  13.858  22.732  0.00  0.00     0.067 A 
ATOM     11  C   UNL d   1     -50.626  13.742  23.051  0.00  0.00     0.019 A 
ATOM     12  C   UNL d   1     -51.062  12.220  23.099  0.00  0.00     0.019 C 
ATOM     13  C   UNL d   1     -50.019  14.290  22.920  0.00  0.00     0.018 A 
ATOM     14  C   UNL d   1     -49.981  15.114  22.944  0.00  0.00     0.002 A 
ATOM     15  C   UNL d   1     -49.279  15.483  22.782  0.00  0.00     0.000 A 
ATOM     16  C   UNL d   1     -48.607  15.063  22.596  0.00  0.00     0.002 A 
ATOM     17  C   UNL d   1     -48.636  14.240  22.570  0.00  0.00     0.018 A 
ATOM     18  O   UNL d   1     -49.324  11.634  22.638  0.00  0.00    -0.267 OA
ENDBRANCH   4   7
BRANCH   1  19
ATOM     19  N   UNL d   1     -46.281  12.510  23.405  0.00  0.00    -0.112 N 
ATOM     20  O   UNL d   1     -45.842  13.174  23.698  0.00  0.00    -0.532 OA
ATOM     21  O   UNL d   1     -46.111  11.753  23.698  0.00  0.00    -0.532 OA
ENDBRANCH   1  19
BRANCH   2  22
ATOM     22  N   UNL d   1     -45.881  13.069  21.873  0.00  0.00    -0.302 N 
ATOM     23  C   UNL d   1     -45.532  13.818  22.041  0.00  0.00     0.080 A 
ATOM     24  C   UNL d   1     -44.741  13.960  21.853  0.00  0.00     0.019 A 
ATOM     25  C   UNL d   1     -44.287  13.377  21.500  0.00  0.00     0.003 A 
ATOM     26  C   UNL d   1     -44.607  12.630  21.323  0.00  0.00     0.019 A 
ATOM     27  C   UNL d   1     -45.397  12.484  21.511  0.00  0.00     0.080 A 
ENDBRANCH   2  22
TORSDOF 3
ENDMDL
MODEL 8
REMARK VINA RESULT:      -5.7      1.282      4.424
REMARK  3 active torsions:
REMARK  status: ('A' for Active; 'I' for Inactive)
REMARK       I    between atoms: C_4  and  N_1 
REMARK    1  A    between atoms: N_3  and  C_2 
REMARK    2  A    between atoms: C_9  and  C_4 
REMARK    3  A    between atoms: N_10  and  C_5 
ROOT
ATOM      1  C   UNL d   1     -47.376  13.157  22.255  0.00  0.00     0.143 A 
ATOM      2  C   UNL d   1     -47.054  12.939  23.010  0.00  0.00     0.086 A 
ATOM      3  C   UNL d   1     -48.040  13.667  22.251  0.00  0.00     0.030 A 
ATOM      4  C   UNL d   1     -48.355  13.935  22.962  0.00  0.00     0.058 A 
ATOM      5  C   UNL d   1     -47.390  13.222  23.696  0.00  0.00     0.019 A 
ATOM      6  C   UNL d   1     -48.041  13.721  23.664  0.00  0.00     0.006 A 
ENDROOT
BRANCH   4   7
ATOM      7  C   UNL d   1     -49.012  14.437  22.922  0.00  0.00     0.265 C 
ATOM      8  N   UNL d   1     -49.771  14.113  23.087  0.00  0.00    -0.275 N 
ATOM      9  C   UNL d   1     -50.485  14.524  23.074  0.00  0.00     0.067 A 
ATOM     10  C   UNL d   1     -49.925  13.325  23.288  0.00  0.00     0.067 A 
ATOM     11  C   UNL d   1     -51.064  14.009  23.262  0.00  0.00     0.019 A 
ATOM     12  C   UNL d   1     -50.808  15.524  22.879  0.00  0.00     0.019 C 
ATOM     13  C   UNL d   1     -50.740  13.259  23.399  0.00  0.00     0.018 A 
ATOM     14  C   UNL d   1     -51.063  12.529  23.607  0.00  0.00     0.002 A 
ATOM     15  C   UNL d   1     -50.573  11.890  23.698  0.00  0.00     0.000 A 
ATOM     16  C   UNL d   1     -49.768  11.949  23.590  0.00  0.00     0.002 A 
ATOM     17  C   UNL d   1     -49.438  12.675  23.382  0.00  0.00     0.018 A 
ATOM     18  O   UNL d   1     -48.943  15.243  22.727  0.00  0.00    -0.267 OA
ENDBRANCH   4   7
BRANCH   1  19
ATOM     19  N   UNL d   1     -47.037  12.871  21.550  0.00  0.00    -0.112 N 
ATOM     20  O   UNL d   1     -46.404  13.295  21.178  0.00  0.00    -0.532 OA
ATOM     21  O   UNL d   1     -47.311  12.169  21.203  0.00  0.00    -0.532 OA
ENDBRANCH   1  19
BRANCH   2  22
ATOM     22  N   UNL d   1     -46.394  12.433  23.038  0.00  0.00    -0.302 N 
ATOM     23  C   UNL d   1     -45.626  12.688  22.797  0.00  0.00     0.080 A 
ATOM     24  C   UNL d   1     -44.985  12.169  22.834  0.00  0.00     0.019 A 
ATOM     25  C   UNL d   1     -45.086  11.404  23.103  0.00  0.00     0.003 A 
ATOM     26  C   UNL d   1     -45.832  11.127  23.347  0.00  0.00     0.019 A 
ATOM     27  C   UNL d   1     -46.475  11.642  23.312  0.00  0.00     0.080 A 
ENDBRANCH   2  22
TORSDOF 3
ENDMDL
MODEL 9
REMARK VINA RESULT:      -5.3      9.107     10.454
REMARK  3 active torsions:
REMARK  status: ('A' for Active; 'I' for Inactive)
REMARK       I    between atoms: C_4  and  N_1 
REMARK    1  A    between atoms: N_3  and  C_2 
REMARK    2  A    between atoms: C_9  and  C_4 
REMARK    3  A    between atoms: N_10  and  C_5 
ROOT
ATOM      1  C   UNL d   1     -38.782  14.503  19.657  0.00  0.00     0.143 A 
ATOM      2  C   UNL d   1     -38.722  15.313  19.905  0.00  0.00     0.086 A 
ATOM      3  C   UNL d   1     -38.743  14.346  18.836  0.00  0.00     0.030 A 
ATOM      4  C   UNL d   1     -38.649  14.967  18.305  0.00  0.00     0.058 A 
ATOM      5  C   UNL d   1     -38.630  15.905  19.353  0.00  0.00     0.019 A 
ATOM      6  C   UNL d   1     -38.594  15.724  18.553  0.00  0.00     0.006 A 
ENDROOT
BRANCH   4   7
ATOM      7  C   UNL d   1     -38.614  14.777  17.500  0.00  0.00     0.265 C 
ATOM      8  N   UNL d   1     -39.287  14.943  17.023  0.00  0.00    -0.275 N 
ATOM      9  C   UNL d   1     -39.355  14.793  16.215  0.00  0.00     0.067 A 
ATOM     10  C   UNL d   1     -39.992  15.285  17.287  0.00  0.00     0.067 A 
ATOM     11  C   UNL d   1     -40.080  15.035  15.984  0.00  0.00     0.019 A 
ATOM     12  C   UNL d   1     -38.744  14.379  15.443  0.00  0.00     0.019 C 
ATOM     13  C   UNL d   1     -40.493  15.343  16.633  0.00  0.00     0.018 A 
ATOM     14  C   UNL d   1     -41.246  15.666  16.726  0.00  0.00     0.002 A 
ATOM     15  C   UNL d   1     -41.480  15.921  17.459  0.00  0.00     0.000 A 
ATOM     16  C   UNL d   1     -40.991  15.866  18.107  0.00  0.00     0.002 A 
ATOM     17  C   UNL d   1     -40.238  15.544  18.023  0.00  0.00     0.018 A 
ATOM     18  O   UNL d   1     -37.941  14.430  17.154  0.00  0.00    -0.267 OA
ENDBRANCH   4   7
BRANCH   1  19
ATOM     19  N   UNL d   1     -38.877  13.894  20.218  0.00  0.00    -0.112 N 
ATOM     20  O   UNL d   1     -38.200  13.479  20.516  0.00  0.00    -0.532 OA
ATOM     21  O   UNL d   1     -39.631  13.684  20.492  0.00  0.00    -0.532 OA
ENDBRANCH   1  19
BRANCH   2  22
ATOM     22  N   UNL d   1     -38.759  15.493  20.717  0.00  0.00    -0.302 N 
ATOM     23  C   UNL d   1     -38.066  15.524  21.199  0.00  0.00     0.080 A 
ATOM     24  C   UNL d   1     -38.126  15.705  22.002  0.00  0.00     0.019 A 
ATOM     25  C   UNL d   1     -38.856  15.854  22.340  0.00  0.00     0.003 A 
ATOM     26  C   UNL d   1     -39.554  15.830  21.889  0.00  0.00     0.019 A 
ATOM     27  C   UNL d   1     -39.498  15.650  21.085  0.00  0.00     0.080 A 
ENDBRANCH   2  22
TORSDOF 3
ENDMDL
