MODEL 1
REMARK VINA RESULT:       2.2      0.000      0.000
REMARK  6 active torsions:
REMARK  status: ('A' for Active; 'I' for Inactive)
REMARK    1  A    between atoms: O_10  and  C_1 
REMARK    2  A    between atoms: O_9  and  C_6 
REMARK    3  A    between atoms: O_12  and  C_8 
REMARK    4  A    between atoms: C_13  and  O_9 
REMARK    5  A    between atoms: C_19  and  O_10 
REMARK    6  A    between atoms: C_14  and  O_12 
ROOT
ATOM      1  C   UNL d   1      33.230  22.266 -21.851  0.00  0.00     0.161 A 
ATOM      2  C   UNL d   1      33.224  20.938 -22.837  0.00  0.00     0.128 A 
ATOM      3  C   UNL d   1      33.227  20.850 -21.999  0.00  0.00     0.066 A 
ATOM      4  C   UNL d   1      33.229  21.518 -21.518  0.00  0.00     0.222 A 
ATOM      5  O   UNL d   1      33.224  21.691 -23.178  0.00  0.00    -0.303 OA
ATOM      6  C   UNL d   1      33.221  20.272 -23.326  0.00  0.00     0.149 A 
ATOM      7  C   UNL d   1      33.227  22.354 -22.689  0.00  0.00     0.126 A 
ATOM      8  C   UNL d   1      33.221  19.525 -22.985  0.00  0.00     0.128 A 
ATOM      9  C   UNL d   1      33.226  20.098 -21.666  0.00  0.00     0.007 A 
ATOM     10  O   UNL d   1      33.232  21.432 -20.699  0.00  0.00    -0.284 OA
ATOM     11  C   UNL d   1      33.224  19.438 -22.147  0.00  0.00     0.027 A 
ATOM     12  C   UNL d   1      33.227  23.123 -23.028  0.00  0.00     0.029 C 
ENDROOT
BRANCH   1  13
ATOM     13  O   UNL d   1      33.232  22.950 -21.368  0.00  0.00    -0.302 OA
BRANCH  13  14
ATOM     14  C   UNL d   1      32.570  23.122 -20.910  0.00  0.00     0.100 A 
ATOM     15  C   UNL d   1      31.852  23.292 -21.276  0.00  0.00     0.025 A 
ATOM     16  C   UNL d   1      31.187  23.465 -20.816  0.00  0.00     0.002 A 
ATOM     17  C   UNL d   1      31.242  23.467 -19.993  0.00  0.00     0.000 A 
ATOM     18  C   UNL d   1      31.963  23.296 -19.630  0.00  0.00     0.002 A 
ATOM     19  C   UNL d   1      32.628  23.123 -20.089  0.00  0.00     0.025 A 
ENDBRANCH  13  14
ENDBRANCH   1  13
BRANCH   6  20
ATOM     20  O   UNL d   1      33.219  20.357 -24.142  0.00  0.00    -0.269 OA
BRANCH  20  21
ATOM     21  C   UNL d   1      32.529  20.584 -24.531  0.00  0.00     0.300 C 
ATOM     22  O   UNL d   1      31.817  20.204 -24.360  0.00  0.00    -0.259 OA
ATOM     23  C   UNL d   1      32.550  21.192 -25.092  0.00  0.00     0.074 C 
ENDBRANCH  20  21
ENDBRANCH   6  20
BRANCH   8  24
ATOM     24  O   UNL d   1      33.218  18.840 -23.476  0.00  0.00    -0.271 OA
BRANCH  24  25
ATOM     25  C   UNL d   1      33.080  18.094 -23.146  0.00  0.00     0.300 C 
ATOM     26  O   UNL d   1      33.193  17.987 -22.341  0.00  0.00    -0.259 OA
ATOM     27  C   UNL d   1      32.833  17.469 -23.621  0.00  0.00     0.074 C 
ENDBRANCH  24  25
ENDBRANCH   8  24
TORSDOF 6
ENDMDL
