MODEL 1
REMARK VINA RESULT:      47.9      0.000      0.000
REMARK  4 active torsions:
REMARK  status: ('A' for Active; 'I' for Inactive)
REMARK    1  A    between atoms: C_5  and  C_3 
REMARK    2  A    between atoms: S_7  and  C_4 
REMARK    3  A    between atoms: C_10  and  S_7 
REMARK    4  A    between atoms: C_11  and  C_10 
ROOT
ATOM      1  N   UNL d   1     -55.461-102.425 -41.550  0.00  0.00    -0.146 NA
ATOM      2  N   UNL d   1     -55.324-102.128 -42.307  0.00  0.00    -0.141 NA
ATOM      3  C   UNL d   1     -55.224-101.991 -40.884  0.00  0.00     0.121 A 
ATOM      4  C   UNL d   1     -54.955-101.404 -42.411  0.00  0.00     0.132 A 
ATOM      5  C   UNL d   1     -54.850-101.260 -40.986  0.00  0.00     0.025 A 
ATOM      6  C   UNL d   1     -54.715-100.967 -41.743  0.00  0.00     0.029 A 
ENDROOT
BRANCH   4   7
ATOM      7  S   UNL d   1     -54.818-101.107 -43.168  0.00  0.00    -0.066 SA
BRANCH   7   8
ATOM      8  C   UNL d   1     -54.856-100.300 -43.311  0.00  0.00     0.037 C 
BRANCH   8   9
ATOM      9  C   UNL d   1     -55.150-100.026 -44.034  0.00  0.00     0.006 A 
ATOM     10  C   UNL d   1     -55.781 -99.523 -44.045  0.00  0.00     0.001 A 
ATOM     11  C   UNL d   1     -56.078 -99.247 -44.765  0.00  0.00     0.000 A 
ATOM     12  C   UNL d   1     -55.734 -99.484 -45.468  0.00  0.00     0.000 A 
ATOM     13  C   UNL d   1     -55.083-100.003 -45.456  0.00  0.00     0.000 A 
ATOM     14  C   UNL d   1     -54.798-100.269 -44.737  0.00  0.00     0.001 A 
ENDBRANCH   8   9
ENDBRANCH   7   8
ENDBRANCH   4   7
BRANCH   3  15
ATOM     15  C   UNL d   1     -55.360-102.288 -40.127  0.00  0.00     0.101 A 
ATOM     16  N   UNL d   1     -54.743-102.348 -39.600  0.00  0.00    -0.242 NA
ATOM     17  C   UNL d   1     -54.873-102.642 -38.847  0.00  0.00     0.099 A 
ATOM     18  C   UNL d   1     -55.639-102.879 -38.624  0.00  0.00     0.021 A 
ATOM     19  C   UNL d   1     -56.257-102.817 -39.157  0.00  0.00     0.003 A 
ATOM     20  C   UNL d   1     -56.129-102.521 -39.917  0.00  0.00     0.021 A 
ENDBRANCH   3  15
TORSDOF 4
ENDMDL
