MODEL 1
REMARK VINA RESULT:      -7.1      0.000      0.000
REMARK  6 active torsions:
REMARK  status: ('A' for Active; 'I' for Inactive)
REMARK    1  A    between atoms: C_8  and  C_6 
REMARK    2  A    between atoms: C_10  and  C_8 
REMARK       I    between atoms: N_13  and  C_10 
REMARK    3  A    between atoms: C_11  and  C_14 
REMARK    4  A    between atoms: O_20  and  C_11 
REMARK    5  A    between atoms: C_19  and  N_13 
REMARK    6  A    between atoms: C_23  and  O_20 
ROOT
ATOM      1  C   UNL d   1     -47.420  14.412  22.627  0.00  0.00     0.280 C 
ATOM      2  N   UNL d   1     -46.670  14.283  22.950  0.00  0.00    -0.208 NA
ATOM      3  O   UNL d   1     -47.707  15.183  22.559  0.00  0.00    -0.265 OA
ENDROOT
BRANCH   1   4
ATOM      4  C   UNL d   1     -47.878  13.775  22.375  0.00  0.00     0.074 C 
BRANCH   4   5
ATOM      5  C   UNL d   1     -48.662  13.898  22.137  0.00  0.00     0.095 A 
ATOM      6  C   UNL d   1     -49.064  13.471  21.560  0.00  0.00     0.288 A 
ATOM      7  N   UNL d   1     -49.824  13.775  21.502  0.00  0.00    -0.169 N 
ATOM      8  O   UNL d   1     -48.756  12.846  21.117  0.00  0.00    -0.265 OA
ATOM      9  C   UNL d   1     -49.895  14.395  22.047  0.00  0.00     0.200 A 
ATOM     10  N   UNL d   1     -50.545  13.699  21.108  0.00  0.00    -0.138 NA
ATOM     11  N   UNL d   1     -50.660  14.702  21.990  0.00  0.00    -0.197 NA
ATOM     12  S   UNL d   1     -49.174  14.471  22.441  0.00  0.00    -0.043 SA
ATOM     13  C   UNL d   1     -51.064  14.271  21.408  0.00  0.00     0.222 A 
ENDBRANCH   4   5
ENDBRANCH   1   4
BRANCH   2  14
ATOM     14  C   UNL d   1     -46.386  13.512  23.016  0.00  0.00     0.085 A 
ATOM     15  C   UNL d   1     -46.675  13.024  23.619  0.00  0.00     0.019 A 
ATOM     16  C   UNL d   1     -46.401  12.256  23.695  0.00  0.00     0.007 A 
ATOM     17  C   UNL d   1     -45.831  11.966  23.165  0.00  0.00     0.064 A 
ATOM     18  C   UNL d   1     -45.543  12.456  22.562  0.00  0.00     0.007 A 
ATOM     19  C   UNL d   1     -45.821  13.227  22.489  0.00  0.00     0.019 A 
BRANCH  17  20
ATOM     20  C   UNL d   1     -45.551  11.197  23.234  0.00  0.00     0.300 C 
ATOM     21  O   UNL d   1     -46.014  10.564  22.965  0.00  0.00    -0.259 OA
BRANCH  20  22
ATOM     22  O   UNL d   1     -44.813  11.053  23.569  0.00  0.00    -0.271 OA
BRANCH  22  23
ATOM     23  C   UNL d   1     -44.415  10.349  23.397  0.00  0.00     0.126 C 
ATOM     24  C   UNL d   1     -43.656  10.220  23.697  0.00  0.00     0.029 C 
ENDBRANCH  22  23
ENDBRANCH  20  22
ENDBRANCH  17  20
ENDBRANCH   2  14
TORSDOF 6
ENDMDL
MODEL 2
REMARK VINA RESULT:      -6.3      2.030      2.310
REMARK  6 active torsions:
REMARK  status: ('A' for Active; 'I' for Inactive)
REMARK    1  A    between atoms: C_8  and  C_6 
REMARK    2  A    between atoms: C_10  and  C_8 
REMARK       I    between atoms: N_13  and  C_10 
REMARK    3  A    between atoms: C_11  and  C_14 
REMARK    4  A    between atoms: O_20  and  C_11 
REMARK    5  A    between atoms: C_19  and  N_13 
REMARK    6  A    between atoms: C_23  and  O_20 
ROOT
ATOM      1  C   UNL d   1     -48.245  13.910  23.033  0.00  0.00     0.280 C 
ATOM      2  N   UNL d   1     -47.560  14.332  22.840  0.00  0.00    -0.208 NA
ATOM      3  O   UNL d   1     -48.941  14.320  23.201  0.00  0.00    -0.265 OA
ENDROOT
BRANCH   1   4
ATOM      4  C   UNL d   1     -48.232  13.087  23.056  0.00  0.00     0.074 C 
BRANCH   4   5
ATOM      5  C   UNL d   1     -48.929  12.667  23.209  0.00  0.00     0.095 A 
ATOM      6  C   UNL d   1     -48.979  11.869  23.408  0.00  0.00     0.288 A 
ATOM      7  N   UNL d   1     -49.771  11.682  23.511  0.00  0.00    -0.169 N 
ATOM      8  O   UNL d   1     -48.343  11.350  23.489  0.00  0.00    -0.265 OA
ATOM      9  C   UNL d   1     -50.217  12.367  23.376  0.00  0.00     0.200 A 
ATOM     10  N   UNL d   1     -50.293  11.072  23.698  0.00  0.00    -0.138 NA
ATOM     11  N   UNL d   1     -51.015  12.180  23.479  0.00  0.00    -0.197 NA
ATOM     12  S   UNL d   1     -49.695  12.978  23.189  0.00  0.00    -0.043 SA
ATOM     13  C   UNL d   1     -51.064  11.376  23.679  0.00  0.00     0.222 A 
ENDBRANCH   4   5
ENDBRANCH   1   4
BRANCH   2  14
ATOM     14  C   UNL d   1     -46.867  13.919  22.672  0.00  0.00     0.085 A 
ATOM     15  C   UNL d   1     -46.733  13.646  21.903  0.00  0.00     0.019 A 
ATOM     16  C   UNL d   1     -46.048  13.235  21.723  0.00  0.00     0.007 A 
ATOM     17  C   UNL d   1     -45.484  13.092  22.317  0.00  0.00     0.064 A 
ATOM     18  C   UNL d   1     -45.620  13.367  23.087  0.00  0.00     0.007 A 
ATOM     19  C   UNL d   1     -46.309  13.779  23.263  0.00  0.00     0.019 A 
BRANCH  17  20
ATOM     20  C   UNL d   1     -44.794  12.681  22.146  0.00  0.00     0.300 C 
ATOM     21  O   UNL d   1     -44.751  11.868  22.301  0.00  0.00    -0.259 OA
BRANCH  20  22
ATOM     22  O   UNL d   1     -44.147  13.073  21.823  0.00  0.00    -0.271 OA
BRANCH  22  23
ATOM     23  C   UNL d   1     -43.490  12.639  21.567  0.00  0.00     0.126 C 
ATOM     24  C   UNL d   1     -42.818  13.033  21.293  0.00  0.00     0.029 C 
ENDBRANCH  22  23
ENDBRANCH  20  22
ENDBRANCH  17  20
ENDBRANCH   2  14
TORSDOF 6
ENDMDL
MODEL 3
REMARK VINA RESULT:      -6.2      8.064      9.487
REMARK  6 active torsions:
REMARK  status: ('A' for Active; 'I' for Inactive)
REMARK    1  A    between atoms: C_8  and  C_6 
REMARK    2  A    between atoms: C_10  and  C_8 
REMARK       I    between atoms: N_13  and  C_10 
REMARK    3  A    between atoms: C_11  and  C_14 
REMARK    4  A    between atoms: O_20  and  C_11 
REMARK    5  A    between atoms: C_19  and  N_13 
REMARK    6  A    between atoms: C_23  and  O_20 
ROOT
ATOM      1  C   UNL d   1     -40.564  14.746  18.061  0.00  0.00     0.280 C 
ATOM      2  N   UNL d   1     -40.951  15.070  18.715  0.00  0.00    -0.208 NA
ATOM      3  O   UNL d   1     -40.908  14.807  17.313  0.00  0.00    -0.265 OA
ENDROOT
BRANCH   1   4
ATOM      4  C   UNL d   1     -39.840  14.364  18.154  0.00  0.00     0.074 C 
BRANCH   4   5
ATOM      5  C   UNL d   1     -39.373  14.196  17.491  0.00  0.00     0.095 A 
ATOM      6  C   UNL d   1     -38.989  13.484  17.339  0.00  0.00     0.288 A 
ATOM      7  N   UNL d   1     -38.591  13.558  16.625  0.00  0.00    -0.169 N 
ATOM      8  O   UNL d   1     -39.004  12.813  17.819  0.00  0.00    -0.265 OA
ATOM      9  C   UNL d   1     -38.726  14.320  16.332  0.00  0.00     0.200 A 
ATOM     10  N   UNL d   1     -38.106  13.162  16.088  0.00  0.00    -0.138 NA
ATOM     11  N   UNL d   1     -38.325  14.396  15.614  0.00  0.00    -0.197 NA
ATOM     12  S   UNL d   1     -39.211  14.716  16.869  0.00  0.00    -0.043 SA
ATOM     13  C   UNL d   1     -37.940  13.678  15.461  0.00  0.00     0.222 A 
ENDBRANCH   4   5
ENDBRANCH   1   4
BRANCH   2  14
ATOM     14  C   UNL d   1     -40.605  15.007  19.461  0.00  0.00     0.085 A 
ATOM     15  C   UNL d   1     -40.812  14.374  19.952  0.00  0.00     0.019 A 
ATOM     16  C   UNL d   1     -40.475  14.300  20.695  0.00  0.00     0.007 A 
ATOM     17  C   UNL d   1     -39.923  14.863  20.956  0.00  0.00     0.064 A 
ATOM     18  C   UNL d   1     -39.716  15.496  20.462  0.00  0.00     0.007 A 
ATOM     19  C   UNL d   1     -40.057  15.566  19.717  0.00  0.00     0.019 A 
BRANCH  17  20
ATOM     20  C   UNL d   1     -39.580  14.797  21.699  0.00  0.00     0.300 C 
ATOM     21  O   UNL d   1     -39.588  15.446  22.216  0.00  0.00    -0.259 OA
BRANCH  20  22
ATOM     22  O   UNL d   1     -39.228  14.091  21.932  0.00  0.00    -0.271 OA
BRANCH  22  23
ATOM     23  C   UNL d   1     -38.773  14.068  22.623  0.00  0.00     0.126 C 
ATOM     24  C   UNL d   1     -38.453  13.351  22.882  0.00  0.00     0.029 C 
ENDBRANCH  22  23
ENDBRANCH  20  22
ENDBRANCH  17  20
ENDBRANCH   2  14
TORSDOF 6
ENDMDL
MODEL 4
REMARK VINA RESULT:      -5.9      1.281      1.641
REMARK  6 active torsions:
REMARK  status: ('A' for Active; 'I' for Inactive)
REMARK    1  A    between atoms: C_8  and  C_6 
REMARK    2  A    between atoms: C_10  and  C_8 
REMARK       I    between atoms: N_13  and  C_10 
REMARK    3  A    between atoms: C_11  and  C_14 
REMARK    4  A    between atoms: O_20  and  C_11 
REMARK    5  A    between atoms: C_19  and  N_13 
REMARK    6  A    between atoms: C_23  and  O_20 
ROOT
ATOM      1  C   UNL d   1     -47.998  14.107  23.046  0.00  0.00     0.280 C 
ATOM      2  N   UNL d   1     -47.248  14.287  23.343  0.00  0.00    -0.208 NA
ATOM      3  O   UNL d   1     -48.655  14.526  23.317  0.00  0.00    -0.265 OA
ENDROOT
BRANCH   1   4
ATOM      4  C   UNL d   1     -48.089  13.511  22.484  0.00  0.00     0.074 C 
BRANCH   4   5
ATOM      5  C   UNL d   1     -48.821  13.402  22.113  0.00  0.00     0.095 A 
ATOM      6  C   UNL d   1     -49.129  12.683  21.854  0.00  0.00     0.288 A 
ATOM      7  N   UNL d   1     -49.864  12.828  21.520  0.00  0.00    -0.169 N 
ATOM      8  O   UNL d   1     -48.762  11.948  21.920  0.00  0.00    -0.265 OA
ATOM      9  C   UNL d   1     -50.015  13.641  21.571  0.00  0.00     0.200 A 
ATOM     10  N   UNL d   1     -50.511  12.472  21.152  0.00  0.00    -0.138 NA
ATOM     11  N   UNL d   1     -50.755  13.787  21.235  0.00  0.00    -0.197 NA
ATOM     12  S   UNL d   1     -49.368  13.997  21.939  0.00  0.00    -0.043 SA
ATOM     13  C   UNL d   1     -51.064  13.063  20.974  0.00  0.00     0.222 A 
ENDBRANCH   4   5
ENDBRANCH   1   4
BRANCH   2  14
ATOM     14  C   UNL d   1     -46.594  13.866  23.071  0.00  0.00     0.085 A 
ATOM     15  C   UNL d   1     -46.094  14.211  22.509  0.00  0.00     0.019 A 
ATOM     16  C   UNL d   1     -45.442  13.802  22.231  0.00  0.00     0.007 A 
ATOM     17  C   UNL d   1     -45.280  13.038  22.514  0.00  0.00     0.064 A 
ATOM     18  C   UNL d   1     -45.783  12.694  23.077  0.00  0.00     0.007 A 
ATOM     19  C   UNL d   1     -46.437  13.108  23.354  0.00  0.00     0.019 A 
BRANCH  17  20
ATOM     20  C   UNL d   1     -44.628  12.621  22.240  0.00  0.00     0.300 C 
ATOM     21  O   UNL d   1     -44.498  11.844  22.499  0.00  0.00    -0.259 OA
BRANCH  20  22
ATOM     22  O   UNL d   1     -44.104  12.971  21.711  0.00  0.00    -0.271 OA
BRANCH  22  23
ATOM     23  C   UNL d   1     -43.421  12.565  21.481  0.00  0.00     0.126 C 
ATOM     24  C   UNL d   1     -42.811  12.969  21.097  0.00  0.00     0.029 C 
ENDBRANCH  22  23
ENDBRANCH  20  22
ENDBRANCH  17  20
ENDBRANCH   2  14
TORSDOF 6
ENDMDL
MODEL 5
REMARK VINA RESULT:      -5.6      2.318      5.249
REMARK  6 active torsions:
REMARK  status: ('A' for Active; 'I' for Inactive)
REMARK    1  A    between atoms: C_8  and  C_6 
REMARK    2  A    between atoms: C_10  and  C_8 
REMARK       I    between atoms: N_13  and  C_10 
REMARK    3  A    between atoms: C_11  and  C_14 
REMARK    4  A    between atoms: O_20  and  C_11 
REMARK    5  A    between atoms: C_19  and  N_13 
REMARK    6  A    between atoms: C_23  and  O_20 
ROOT
ATOM      1  C   UNL d   1     -47.210  10.958  23.403  0.00  0.00     0.280 C 
ATOM      2  N   UNL d   1     -48.008  11.154  23.318  0.00  0.00    -0.208 NA
ATOM      3  O   UNL d   1     -47.000  10.187  23.611  0.00  0.00    -0.265 OA
ENDROOT
BRANCH   1   4
ATOM      4  C   UNL d   1     -46.627  11.528  23.283  0.00  0.00     0.074 C 
BRANCH   4   5
ATOM      5  C   UNL d   1     -45.828  11.311  23.292  0.00  0.00     0.095 A 
ATOM      6  C   UNL d   1     -45.215  11.710  22.914  0.00  0.00     0.288 A 
ATOM      7  N   UNL d   1     -44.517  11.306  23.067  0.00  0.00    -0.169 N 
ATOM      8  O   UNL d   1     -45.290  12.395  22.461  0.00  0.00    -0.265 OA
ATOM      9  C   UNL d   1     -44.697  10.652  23.543  0.00  0.00     0.200 A 
ATOM     10  N   UNL d   1     -43.704  11.303  22.928  0.00  0.00    -0.138 NA
ATOM     11  N   UNL d   1     -43.995  10.245  23.698  0.00  0.00    -0.197 NA
ATOM     12  S   UNL d   1     -45.510  10.655  23.682  0.00  0.00    -0.043 SA
ATOM     13  C   UNL d   1     -43.378  10.648  23.317  0.00  0.00     0.222 A 
ENDBRANCH   4   5
ENDBRANCH   1   4
BRANCH   2  14
ATOM     14  C   UNL d   1     -48.214  11.925  23.111  0.00  0.00     0.085 A 
ATOM     15  C   UNL d   1     -48.237  12.510  23.696  0.00  0.00     0.019 A 
ATOM     16  C   UNL d   1     -48.440  13.280  23.503  0.00  0.00     0.007 A 
ATOM     17  C   UNL d   1     -48.624  13.474  22.716  0.00  0.00     0.064 A 
ATOM     18  C   UNL d   1     -48.601  12.886  22.131  0.00  0.00     0.007 A 
ATOM     19  C   UNL d   1     -48.396  12.115  22.330  0.00  0.00     0.019 A 
BRANCH  17  20
ATOM     20  C   UNL d   1     -48.828  14.242  22.513  0.00  0.00     0.300 C 
ATOM     21  O   UNL d   1     -48.570  14.561  21.792  0.00  0.00    -0.259 OA
BRANCH  20  22
ATOM     22  O   UNL d   1     -49.288  14.697  23.022  0.00  0.00    -0.271 OA
BRANCH  22  23
ATOM     23  C   UNL d   1     -49.495  15.470  22.808  0.00  0.00     0.126 C 
ATOM     24  C   UNL d   1     -49.975  15.920  23.307  0.00  0.00     0.029 C 
ENDBRANCH  22  23
ENDBRANCH  20  22
ENDBRANCH  17  20
ENDBRANCH   2  14
TORSDOF 6
ENDMDL
MODEL 6
REMARK VINA RESULT:      -5.2      8.567      9.274
REMARK  6 active torsions:
REMARK  status: ('A' for Active; 'I' for Inactive)
REMARK    1  A    between atoms: C_8  and  C_6 
REMARK    2  A    between atoms: C_10  and  C_8 
REMARK       I    between atoms: N_13  and  C_10 
REMARK    3  A    between atoms: C_11  and  C_14 
REMARK    4  A    between atoms: O_20  and  C_11 
REMARK    5  A    between atoms: C_19  and  N_13 
REMARK    6  A    between atoms: C_23  and  O_20 
ROOT
ATOM      1  C   UNL d   1     -38.556  14.063  18.208  0.00  0.00     0.280 C 
ATOM      2  N   UNL d   1     -37.940  13.932  18.744  0.00  0.00    -0.208 NA
ATOM      3  O   UNL d   1     -38.424  13.952  17.401  0.00  0.00    -0.265 OA
ENDROOT
BRANCH   1   4
ATOM      4  C   UNL d   1     -39.297  14.302  18.477  0.00  0.00     0.074 C 
BRANCH   4   5
ATOM      5  C   UNL d   1     -39.831  14.661  17.956  0.00  0.00     0.095 A 
ATOM      6  C   UNL d   1     -40.637  14.500  17.903  0.00  0.00     0.288 A 
ATOM      7  N   UNL d   1     -40.953  14.978  17.316  0.00  0.00    -0.169 N 
ATOM      8  O   UNL d   1     -41.052  13.953  18.360  0.00  0.00    -0.265 OA
ATOM      9  C   UNL d   1     -40.341  15.439  17.002  0.00  0.00     0.200 A 
ATOM     10  N   UNL d   1     -41.649  15.174  16.919  0.00  0.00    -0.138 NA
ATOM     11  N   UNL d   1     -40.659  15.921  16.411  0.00  0.00    -0.197 NA
ATOM     12  S   UNL d   1     -39.645  15.243  17.399  0.00  0.00    -0.043 SA
ATOM     13  C   UNL d   1     -41.470  15.758  16.358  0.00  0.00     0.222 A 
ENDBRANCH   4   5
ENDBRANCH   1   4
BRANCH   2  14
ATOM     14  C   UNL d   1     -38.076  14.045  19.549  0.00  0.00     0.085 A 
ATOM     15  C   UNL d   1     -38.340  13.409  20.008  0.00  0.00     0.019 A 
ATOM     16  C   UNL d   1     -38.478  13.508  20.809  0.00  0.00     0.007 A 
ATOM     17  C   UNL d   1     -38.353  14.250  21.162  0.00  0.00     0.064 A 
ATOM     18  C   UNL d   1     -38.088  14.885  20.700  0.00  0.00     0.007 A 
ATOM     19  C   UNL d   1     -37.950  14.782  19.896  0.00  0.00     0.019 A 
BRANCH  17  20
ATOM     20  C   UNL d   1     -38.489  14.358  21.965  0.00  0.00     0.300 C 
ATOM     21  O   UNL d   1     -38.501  13.702  22.472  0.00  0.00    -0.259 OA
BRANCH  20  22
ATOM     22  O   UNL d   1     -38.612  15.113  22.266  0.00  0.00    -0.271 OA
BRANCH  22  23
ATOM     23  C   UNL d   1     -38.596  15.236  23.085  0.00  0.00     0.126 C 
ATOM     24  C   UNL d   1     -38.936  15.918  23.406  0.00  0.00     0.029 C 
ENDBRANCH  22  23
ENDBRANCH  20  22
ENDBRANCH  17  20
ENDBRANCH   2  14
TORSDOF 6
ENDMDL
MODEL 7
REMARK VINA RESULT:      -4.1      7.962      9.431
REMARK  6 active torsions:
REMARK  status: ('A' for Active; 'I' for Inactive)
REMARK    1  A    between atoms: C_8  and  C_6 
REMARK    2  A    between atoms: C_10  and  C_8 
REMARK       I    between atoms: N_13  and  C_10 
REMARK    3  A    between atoms: C_11  and  C_14 
REMARK    4  A    between atoms: O_20  and  C_11 
REMARK    5  A    between atoms: C_19  and  N_13 
REMARK    6  A    between atoms: C_23  and  O_20 
ROOT
ATOM      1  C   UNL d   1     -38.650  15.511  19.014  0.00  0.00     0.280 C 
ATOM      2  N   UNL d   1     -38.915  15.789  19.747  0.00  0.00    -0.208 NA
ATOM      3  O   UNL d   1     -37.940  15.793  18.705  0.00  0.00    -0.265 OA
ENDROOT
BRANCH   1   4
ATOM      4  C   UNL d   1     -39.094  14.956  18.597  0.00  0.00     0.074 C 
BRANCH   4   5
ATOM      5  C   UNL d   1     -38.867  14.737  17.832  0.00  0.00     0.095 A 
ATOM      6  C   UNL d   1     -38.896  13.975  17.519  0.00  0.00     0.288 A 
ATOM      7  N   UNL d   1     -38.620  14.008  16.746  0.00  0.00    -0.169 N 
ATOM      8  O   UNL d   1     -39.156  13.299  17.913  0.00  0.00    -0.265 OA
ATOM      9  C   UNL d   1     -38.419  14.794  16.578  0.00  0.00     0.200 A 
ATOM     10  N   UNL d   1     -38.468  13.556  16.073  0.00  0.00    -0.138 NA
ATOM     11  N   UNL d   1     -38.142  14.827  15.800  0.00  0.00    -0.197 NA
ATOM     12  S   UNL d   1     -38.571  15.245  17.251  0.00  0.00    -0.043 SA
ATOM     13  C   UNL d   1     -38.171  14.061  15.486  0.00  0.00     0.222 A 
ENDBRANCH   4   5
ENDBRANCH   1   4
BRANCH   2  14
ATOM     14  C   UNL d   1     -39.626  15.506  20.053  0.00  0.00     0.085 A 
ATOM     15  C   UNL d   1     -39.620  14.833  20.535  0.00  0.00     0.019 A 
ATOM     16  C   UNL d   1     -40.319  14.542  20.846  0.00  0.00     0.007 A 
ATOM     17  C   UNL d   1     -41.038  14.923  20.676  0.00  0.00     0.064 A 
ATOM     18  C   UNL d   1     -41.041  15.597  20.193  0.00  0.00     0.007 A 
ATOM     19  C   UNL d   1     -40.337  15.886  19.883  0.00  0.00     0.019 A 
BRANCH  17  20
ATOM     20  C   UNL d   1     -41.744  14.638  20.983  0.00  0.00     0.300 C 
ATOM     21  O   UNL d   1     -42.329  15.170  21.234  0.00  0.00    -0.259 OA
BRANCH  20  22
ATOM     22  O   UNL d   1     -41.873  13.828  21.042  0.00  0.00    -0.271 OA
BRANCH  22  23
ATOM     23  C   UNL d   1     -42.580  13.548  21.370  0.00  0.00     0.126 C 
ATOM     24  C   UNL d   1     -42.826  12.774  21.218  0.00  0.00     0.029 C 
ENDBRANCH  22  23
ENDBRANCH  20  22
ENDBRANCH  17  20
ENDBRANCH   2  14
TORSDOF 6
ENDMDL
