MODEL 1
REMARK VINA RESULT:      64.1      0.000      0.000
REMARK  4 active torsions:
REMARK  status: ('A' for Active; 'I' for Inactive)
REMARK       I    between atoms: N_2  and  C_1 
REMARK    1  A    between atoms: C_4  and  C_1 
REMARK    2  A    between atoms: C_5  and  N_3 
REMARK    3  A    between atoms: O_21  and  C_8 
REMARK    4  A    between atoms: O_22  and  C_15 
ROOT
ATOM      1  C   UNL d   1     -51.018  26.835  33.599  0.00  0.00     0.265 C 
ATOM      2  N   UNL d   1     -50.353  27.160  33.953  0.00  0.00    -0.269 N 
ATOM      3  N   UNL d   1     -49.027  27.810  34.657  0.00  0.00    -0.301 N 
ATOM      4  C   UNL d   1     -50.284  27.974  34.013  0.00  0.00     0.102 A 
ATOM      5  C   UNL d   1     -49.766  26.669  34.242  0.00  0.00     0.102 A 
ATOM      6  C   UNL d   1     -49.100  26.995  34.595  0.00  0.00     0.100 A 
ATOM      7  C   UNL d   1     -49.613  28.299  34.369  0.00  0.00     0.100 A 
ATOM      8  O   UNL d   1     -51.613  27.324  33.307  0.00  0.00    -0.267 OA
ENDROOT
BRANCH   1   9
ATOM      9  C   UNL d   1     -51.090  26.015  33.538  0.00  0.00     0.059 A 
ATOM     10  C   UNL d   1     -51.828  25.656  33.646  0.00  0.00     0.031 A 
ATOM     11  C   UNL d   1     -51.905  24.824  33.585  0.00  0.00     0.116 A 
ATOM     12  C   UNL d   1     -51.246  24.363  33.416  0.00  0.00     0.116 A 
ATOM     13  C   UNL d   1     -50.498  24.723  33.306  0.00  0.00     0.026 A 
ATOM     14  C   UNL d   1     -50.413  25.549  33.365  0.00  0.00     0.007 A 
BRANCH  11  15
ATOM     15  O   UNL d   1     -52.636  24.475  33.693  0.00  0.00    -0.326 OA
ATOM     16  C   UNL d   1     -53.305  24.774  33.310  0.00  0.00     0.181 C 
ENDBRANCH  11  15
BRANCH  12  17
ATOM     17  O   UNL d   1     -51.318  23.544  33.355  0.00  0.00    -0.326 OA
ATOM     18  C   UNL d   1     -52.063  23.191  33.386  0.00  0.00     0.181 C 
ENDBRANCH  12  17
ENDBRANCH   1   9
BRANCH   3  19
ATOM     19  C   UNL d   1     -48.601  28.477  34.898  0.00  0.00     0.064 A 
ATOM     20  C   UNL d   1     -48.324  28.531  35.660  0.00  0.00     0.018 A 
ATOM     21  C   UNL d   1     -47.900  29.192  35.904  0.00  0.00     0.001 A 
ATOM     22  C   UNL d   1     -47.623  29.239  36.678  0.00  0.00     0.000 C 
ATOM     23  C   UNL d   1     -47.754  29.804  35.369  0.00  0.00     0.000 A 
ATOM     24  C   UNL d   1     -48.035  29.746  34.598  0.00  0.00     0.002 A 
ATOM     25  C   UNL d   1     -47.328  30.472  35.606  0.00  0.00     0.000 C 
ATOM     26  C   UNL d   1     -48.461  29.084  34.352  0.00  0.00     0.018 A 
ENDBRANCH   3  19
TORSDOF 4
ENDMDL
