MODEL 1
REMARK VINA RESULT:     -10.4      0.000      0.000
REMARK  2 active torsions:
REMARK  status: ('A' for Active; 'I' for Inactive)
REMARK    1  A    between atoms: C_7  and  C_3 
REMARK    2  A    between atoms: N_9  and  C_8 
ROOT
ATOM      1  N   UNL d   1      52.159  32.835  52.991  0.00  0.00    -0.227 NA
ATOM      2  N   UNL d   1      52.375  34.064  53.667  0.00  0.00    -0.227 NA
ATOM      3  C   UNL d   1      51.919  33.602  53.145  0.00  0.00     0.162 A 
ATOM      4  C   UNL d   1      53.052  33.737  54.010  0.00  0.00     0.085 A 
ATOM      5  C   UNL d   1      52.843  32.500  53.337  0.00  0.00     0.085 A 
ATOM      6  C   UNL d   1      53.291  32.953  53.849  0.00  0.00     0.035 A 
ATOM      7  C   UNL d   1      53.980  32.639  54.206  0.00  0.00     0.003 A 
ATOM      8  C   UNL d   1      53.516  34.207  54.541  0.00  0.00     0.019 A 
ATOM      9  C   UNL d   1      53.075  31.724  53.173  0.00  0.00     0.019 A 
ATOM     10  C   UNL d   1      53.757  31.391  53.518  0.00  0.00     0.002 A 
ATOM     11  C   UNL d   1      54.200  33.872  54.886  0.00  0.00     0.002 A 
ATOM     12  C   UNL d   1      54.205  31.845  54.030  0.00  0.00     0.000 A 
ATOM     13  C   UNL d   1      54.432  33.097  54.723  0.00  0.00     0.000 A 
ENDROOT
BRANCH   3  14
ATOM     14  C   UNL d   1      51.245  33.889  52.786  0.00  0.00     0.036 A 
ATOM     15  C   UNL d   1      50.538  33.935  53.206  0.00  0.00     0.004 A 
ATOM     16  C   UNL d   1      49.856  34.224  52.848  0.00  0.00     0.018 A 
ATOM     17  C   UNL d   1      49.871  34.468  52.071  0.00  0.00     0.064 A 
ATOM     18  C   UNL d   1      50.579  34.425  51.641  0.00  0.00     0.018 A 
ATOM     19  C   UNL d   1      51.253  34.137  52.004  0.00  0.00     0.004 A 
BRANCH  17  20
ATOM     20  N   UNL d   1      49.190  34.757  51.713  0.00  0.00    -0.301 N 
ATOM     21  C   UNL d   1      48.992  34.526  50.950  0.00  0.00     0.100 C 
ATOM     22  C   UNL d   1      48.707  35.278  52.121  0.00  0.00     0.100 C 
ENDBRANCH  17  20
ENDBRANCH   3  14
TORSDOF 2
ENDMDL
MODEL 2
REMARK VINA RESULT:      -8.4      0.959      5.103
REMARK  2 active torsions:
REMARK  status: ('A' for Active; 'I' for Inactive)
REMARK    1  A    between atoms: C_7  and  C_3 
REMARK    2  A    between atoms: N_9  and  C_8 
ROOT
ATOM      1  N   UNL d   1      49.610  35.004  53.130  0.00  0.00    -0.227 NA
ATOM      2  N   UNL d   1      49.641  34.388  51.851  0.00  0.00    -0.227 NA
ATOM      3  C   UNL d   1      49.991  34.513  52.597  0.00  0.00     0.162 A 
ATOM      4  C   UNL d   1      48.925  34.761  51.673  0.00  0.00     0.085 A 
ATOM      5  C   UNL d   1      48.886  35.383  52.954  0.00  0.00     0.085 A 
ATOM      6  C   UNL d   1      48.542  35.261  52.222  0.00  0.00     0.035 A 
ATOM      7  C   UNL d   1      47.818  35.630  52.024  0.00  0.00     0.003 A 
ATOM      8  C   UNL d   1      48.569  34.635  50.915  0.00  0.00     0.019 A 
ATOM      9  C   UNL d   1      48.512  35.876  53.501  0.00  0.00     0.019 A 
ATOM     10  C   UNL d   1      47.790  36.254  53.325  0.00  0.00     0.002 A 
ATOM     11  C   UNL d   1      47.845  35.014  50.740  0.00  0.00     0.002 A 
ATOM     12  C   UNL d   1      47.446  36.132  52.593  0.00  0.00     0.000 A 
ATOM     13  C   UNL d   1      47.470  35.507  51.286  0.00  0.00     0.000 A 
ENDROOT
BRANCH   3  14
ATOM     14  C   UNL d   1      50.696  34.163  52.810  0.00  0.00     0.036 A 
ATOM     15  C   UNL d   1      50.700  33.445  53.214  0.00  0.00     0.004 A 
ATOM     16  C   UNL d   1      51.409  33.089  53.431  0.00  0.00     0.018 A 
ATOM     17  C   UNL d   1      52.119  33.442  53.247  0.00  0.00     0.064 A 
ATOM     18  C   UNL d   1      52.125  34.164  52.840  0.00  0.00     0.018 A 
ATOM     19  C   UNL d   1      51.417  34.513  52.628  0.00  0.00     0.004 A 
BRANCH  17  20
ATOM     20  N   UNL d   1      52.828  33.086  53.463  0.00  0.00    -0.301 N 
ATOM     21  C   UNL d   1      53.090  32.414  53.072  0.00  0.00     0.100 C 
ATOM     22  C   UNL d   1      53.272  33.406  54.072  0.00  0.00     0.100 C 
ENDBRANCH  17  20
ENDBRANCH   3  14
TORSDOF 2
ENDMDL
MODEL 3
REMARK VINA RESULT:      -7.5      1.594      4.219
REMARK  2 active torsions:
REMARK  status: ('A' for Active; 'I' for Inactive)
REMARK    1  A    between atoms: C_7  and  C_3 
REMARK    2  A    between atoms: N_9  and  C_8 
ROOT
ATOM      1  N   UNL d   1      52.388  32.511  53.179  0.00  0.00    -0.227 NA
ATOM      2  N   UNL d   1      53.382  32.757  54.162  0.00  0.00    -0.227 NA
ATOM      3  C   UNL d   1      52.938  32.217  53.709  0.00  0.00     0.162 A 
ATOM      4  C   UNL d   1      53.256  33.567  54.063  0.00  0.00     0.085 A 
ATOM      5  C   UNL d   1      52.257  33.330  53.076  0.00  0.00     0.085 A 
ATOM      6  C   UNL d   1      52.693  33.861  53.520  0.00  0.00     0.035 A 
ATOM      7  C   UNL d   1      52.579  34.686  53.433  0.00  0.00     0.003 A 
ATOM      8  C   UNL d   1      53.708  34.117  54.523  0.00  0.00     0.019 A 
ATOM      9  C   UNL d   1      51.699  33.615  52.537  0.00  0.00     0.019 A 
ATOM     10  C   UNL d   1      51.569  34.432  52.435  0.00  0.00     0.002 A 
ATOM     11  C   UNL d   1      53.576  34.936  54.419  0.00  0.00     0.002 A 
ATOM     12  C   UNL d   1      52.005  34.962  52.879  0.00  0.00     0.000 A 
ATOM     13  C   UNL d   1      53.018  35.221  53.881  0.00  0.00     0.000 A 
ENDROOT
BRANCH   3  14
ATOM     14  C   UNL d   1      53.034  31.410  53.778  0.00  0.00     0.036 A 
ATOM     15  C   UNL d   1      53.222  31.074  54.506  0.00  0.00     0.004 A 
ATOM     16  C   UNL d   1      53.320  30.260  54.580  0.00  0.00     0.018 A 
ATOM     17  C   UNL d   1      53.230  29.775  53.932  0.00  0.00     0.064 A 
ATOM     18  C   UNL d   1      53.040  30.104  53.196  0.00  0.00     0.018 A 
ATOM     19  C   UNL d   1      52.945  30.914  53.130  0.00  0.00     0.004 A 
BRANCH  17  20
ATOM     20  N   UNL d   1      53.328  28.962  54.006  0.00  0.00    -0.301 N 
ATOM     21  C   UNL d   1      53.684  28.646  54.675  0.00  0.00     0.100 C 
ATOM     22  C   UNL d   1      53.067  28.467  53.407  0.00  0.00     0.100 C 
ENDBRANCH  17  20
ENDBRANCH   3  14
TORSDOF 2
ENDMDL
