MODEL 1
REMARK VINA RESULT:      66.4      0.000      0.000
REMARK  7 active torsions:
REMARK  status: ('A' for Active; 'I' for Inactive)
REMARK    1  A    between atoms: C_7  and  C_1 
REMARK    2  A    between atoms: N_5  and  C_2 
REMARK       I    between atoms: C_8  and  N_5 
REMARK    3  A    between atoms: N_9  and  C_7 
REMARK    4  A    between atoms: C_12  and  C_7 
REMARK    5  A    between atoms: C_10  and  C_8 
REMARK    6  A    between atoms: C_26  and  N_11 
REMARK    7  A    between atoms: C_30  and  C_26 
ROOT
ATOM      1  C   UNL d   1      14.600  15.448  -3.202  0.00  0.00     0.068 C 
ENDROOT
BRANCH   1   2
ATOM      2  C   UNL d   1      14.687  15.597  -2.364  0.00  0.00     0.041 A 
ATOM      3  C   UNL d   1      14.719  15.113  -1.713  0.00  0.00     0.115 A 
ATOM      4  S   UNL d   1      14.809  15.603  -1.053  0.00  0.00    -0.068 SA
ATOM      5  C   UNL d   1      14.835  16.390  -1.267  0.00  0.00     0.031 A 
ATOM      6  C   UNL d   1      14.757  16.404  -2.115  0.00  0.00     0.009 A 
ATOM      7  C   UNL d   1      14.920  17.034  -0.766  0.00  0.00     0.007 C 
ATOM      8  C   UNL d   1      14.753  17.079  -2.584  0.00  0.00     0.001 C 
BRANCH   3   9
ATOM      9  N   UNL d   1      14.672  14.297  -1.699  0.00  0.00    -0.200 NA
ATOM     10  C   UNL d   1      14.839  13.899  -0.994  0.00  0.00     0.302 C 
ATOM     11  O   UNL d   1      15.049  14.327  -0.319  0.00  0.00    -0.263 OA
BRANCH  10  12
ATOM     12  C   UNL d   1      14.800  13.077  -0.951  0.00  0.00     0.158 A 
ATOM     13  O   UNL d   1      14.248  12.548  -1.298  0.00  0.00    -0.300 OA
ATOM     14  C   UNL d   1      14.474  11.786  -1.071  0.00  0.00     0.123 A 
ATOM     15  C   UNL d   1      15.141  11.858  -0.604  0.00  0.00     0.029 A 
ATOM     16  C   UNL d   1      15.357  12.646  -0.518  0.00  0.00     0.032 A 
ENDBRANCH  10  12
ENDBRANCH   3   9
ENDBRANCH   1   2
BRANCH   1  17
ATOM     17  N   UNL d   1      14.126  14.777  -3.441  0.00  0.00    -0.301 N 
ATOM     18  C   UNL d   1      14.512  14.064  -3.585  0.00  0.00     0.100 A 
ATOM     19  C   UNL d   1      14.057  13.419  -3.815  0.00  0.00     0.100 A 
ATOM     20  N   UNL d   1      13.220  13.485  -3.901  0.00  0.00    -0.297 N 
ATOM     21  C   UNL d   1      12.867  14.195  -3.754  0.00  0.00     0.100 A 
ATOM     22  C   UNL d   1      13.289  14.843  -3.527  0.00  0.00     0.100 A 
BRANCH  20  23
ATOM     23  C   UNL d   1      12.769  12.812  -4.138  0.00  0.00     0.126 C 
BRANCH  23  24
ATOM     24  C   UNL d   1      13.151  12.080  -4.313  0.00  0.00     0.253 C 
ATOM     25  O   UNL d   1      13.158  11.783  -5.099  0.00  0.00    -0.281 OA
ENDBRANCH  23  24
ENDBRANCH  20  23
ENDBRANCH   1  17
BRANCH   1  26
ATOM     26  C   UNL d   1      14.968  15.943  -3.770  0.00  0.00     0.035 A 
ATOM     27  C   UNL d   1      15.777  16.130  -3.676  0.00  0.00     0.100 A 
ATOM     28  N   UNL d   1      16.147  16.628  -4.247  0.00  0.00    -0.242 NA
ATOM     29  C   UNL d   1      15.686  16.909  -4.879  0.00  0.00     0.099 A 
ATOM     30  C   UNL d   1      14.905  16.725  -4.966  0.00  0.00     0.021 A 
ATOM     31  C   UNL d   1      14.535  16.228  -4.394  0.00  0.00     0.005 A 
ENDBRANCH   1  26
TORSDOF 7
ENDMDL
MODEL 2
REMARK VINA RESULT:      68.9      1.540      3.724
REMARK  7 active torsions:
REMARK  status: ('A' for Active; 'I' for Inactive)
REMARK    1  A    between atoms: C_7  and  C_1 
REMARK    2  A    between atoms: N_5  and  C_2 
REMARK       I    between atoms: C_8  and  N_5 
REMARK    3  A    between atoms: N_9  and  C_7 
REMARK    4  A    between atoms: C_12  and  C_7 
REMARK    5  A    between atoms: C_10  and  C_8 
REMARK    6  A    between atoms: C_26  and  N_11 
REMARK    7  A    between atoms: C_30  and  C_26 
ROOT
ATOM      1  C   UNL d   1      14.157  13.464  -2.729  0.00  0.00     0.068 C 
ENDROOT
BRANCH   1   2
ATOM      2  C   UNL d   1      14.508  13.281  -1.970  0.00  0.00     0.041 A 
ATOM      3  C   UNL d   1      14.755  13.738  -1.346  0.00  0.00     0.115 A 
ATOM      4  S   UNL d   1      15.046  13.222  -0.770  0.00  0.00    -0.068 SA
ATOM      5  C   UNL d   1      14.991  12.443  -1.012  0.00  0.00     0.031 A 
ATOM      6  C   UNL d   1      14.643  12.464  -1.789  0.00  0.00     0.009 A 
ATOM      7  C   UNL d   1      15.224  11.780  -0.590  0.00  0.00     0.007 C 
ATOM      8  C   UNL d   1      14.479  11.810  -2.257  0.00  0.00     0.001 C 
BRANCH   3   9
ATOM      9  N   UNL d   1      14.726  14.553  -1.287  0.00  0.00    -0.200 NA
ATOM     10  C   UNL d   1      15.047  14.916  -0.617  0.00  0.00     0.302 C 
ATOM     11  O   UNL d   1      15.389  14.456  -0.022  0.00  0.00    -0.263 OA
BRANCH  10  12
ATOM     12  C   UNL d   1      15.033  15.736  -0.530  0.00  0.00     0.158 A 
ATOM     13  O   UNL d   1      14.411  16.279  -0.682  0.00  0.00    -0.300 OA
ATOM     14  C   UNL d   1      14.702  17.031  -0.498  0.00  0.00     0.123 A 
ATOM     15  C   UNL d   1      15.474  16.938  -0.244  0.00  0.00     0.029 A 
ATOM     16  C   UNL d   1      15.696  16.147  -0.257  0.00  0.00     0.032 A 
ENDBRANCH  10  12
ENDBRANCH   3   9
ENDBRANCH   1   2
BRANCH   1  17
ATOM     17  N   UNL d   1      14.298  14.243  -3.056  0.00  0.00    -0.301 N 
ATOM     18  C   UNL d   1      15.059  14.550  -3.003  0.00  0.00     0.100 A 
ATOM     19  C   UNL d   1      15.195  15.298  -3.318  0.00  0.00     0.100 A 
ATOM     20  N   UNL d   1      14.574  15.736  -3.683  0.00  0.00    -0.297 N 
ATOM     21  C   UNL d   1      13.837  15.411  -3.722  0.00  0.00     0.100 A 
ATOM     22  C   UNL d   1      13.676  14.681  -3.422  0.00  0.00     0.100 A 
BRANCH  20  23
ATOM     23  C   UNL d   1      14.731  16.503  -4.001  0.00  0.00     0.126 C 
BRANCH  23  24
ATOM     24  C   UNL d   1      15.329  16.608  -4.588  0.00  0.00     0.253 C 
ATOM     25  O   UNL d   1      15.655  17.369  -4.729  0.00  0.00    -0.281 OA
ENDBRANCH  23  24
ENDBRANCH  20  23
ENDBRANCH   1  17
BRANCH   1  26
ATOM     26  C   UNL d   1      13.690  12.900  -3.138  0.00  0.00     0.035 A 
ATOM     27  C   UNL d   1      13.240  12.354  -2.694  0.00  0.00     0.100 A 
ATOM     28  N   UNL d   1      12.771  11.787  -3.105  0.00  0.00    -0.242 NA
ATOM     29  C   UNL d   1      12.780  11.800  -3.937  0.00  0.00     0.099 A 
ATOM     30  C   UNL d   1      13.217  12.329  -4.361  0.00  0.00     0.021 A 
ATOM     31  C   UNL d   1      13.686  12.896  -3.949  0.00  0.00     0.005 A 
ENDBRANCH   1  26
TORSDOF 7
ENDMDL
