MODEL 1
REMARK VINA RESULT:      34.4      0.000      0.000
REMARK  4 active torsions:
REMARK  status: ('A' for Active; 'I' for Inactive)
REMARK    1  A    between atoms: N_2  and  S_1 
REMARK    2  A    between atoms: C_4  and  S_1 
REMARK       I    between atoms: C_3  and  N_7 
REMARK    3  A    between atoms: C_6  and  C_3 
REMARK    4  A    between atoms: N_7  and  C_12 
ROOT
ATOM      1  N   UNL d   1      46.107 -19.055  42.829  0.00  0.00    -0.230 N 
ATOM      2  C   UNL d   1      46.208 -18.565  43.485  0.00  0.00     0.076 A 
ATOM      3  C   UNL d   1      46.092 -17.752  43.422  0.00  0.00     0.037 A 
ATOM      4  C   UNL d   1      46.197 -17.270  44.093  0.00  0.00     0.086 A 
ATOM      5  C   UNL d   1      46.427 -18.895  44.217  0.00  0.00     0.017 A 
ATOM      6  C   UNL d   1      46.531 -18.412  44.883  0.00  0.00     0.003 A 
ATOM      7  C   UNL d   1      46.225 -19.872  42.899  0.00  0.00     0.092 A 
ATOM      8  C   UNL d   1      46.413 -17.600  44.812  0.00  0.00     0.019 A 
ATOM      9  C   UNL d   1      46.443 -20.201  43.623  0.00  0.00     0.020 A 
ATOM     10  C   UNL d   1      46.544 -19.715  44.280  0.00  0.00     0.003 A 
ENDROOT
BRANCH   4  11
ATOM     11  N   UNL d   1      46.081 -16.453  44.030  0.00  0.00    -0.208 NA
ATOM     12  C   UNL d   1      45.476 -16.090  44.450  0.00  0.00     0.282 C 
ATOM     13  O   UNL d   1      44.975 -16.531  44.939  0.00  0.00    -0.265 OA
BRANCH  12  14
ATOM     14  C   UNL d   1      45.351 -15.286  44.396  0.00  0.00     0.096 A 
ATOM     15  C   UNL d   1      44.623 -14.963  44.647  0.00  0.00     0.065 A 
ATOM     16 CL   UNL d   1      44.039 -15.463  44.946  0.00  0.00    -0.082 Cl
ATOM     17  C   UNL d   1      44.494 -14.152  44.594  0.00  0.00     0.012 A 
ATOM     18  C   UNL d   1      45.086 -13.656  44.293  0.00  0.00     0.003 A 
ATOM     19  C   UNL d   1      45.806 -13.976  44.045  0.00  0.00     0.030 A 
ATOM     20  C   UNL d   1      45.932 -14.788  44.099  0.00  0.00     0.146 A 
ATOM     21  F   UNL d   1      46.647 -15.099  43.852  0.00  0.00    -0.204 F 
ENDBRANCH  12  14
ENDBRANCH   4  11
BRANCH   1  22
ATOM     22  S   UNL d   1      45.889 -18.716  42.104  0.00  0.00     0.277 S 
ATOM     23  O   UNL d   1      46.633 -18.353  42.070  0.00  0.00    -0.199 OA
ATOM     24  O   UNL d   1      45.157 -19.077  42.143  0.00  0.00    -0.199 OA
BRANCH  22  25
ATOM     25  C   UNL d   1      45.685 -18.374  41.386  0.00  0.00     0.133 A 
ATOM     26  S   UNL d   1      46.166 -18.326  40.718  0.00  0.00    -0.074 SA
ATOM     27  C   UNL d   1      45.748 -17.943  40.127  0.00  0.00     0.036 A 
ATOM     28  C   UNL d   1      45.001 -17.750  40.421  0.00  0.00     0.008 A 
ATOM     29  C   UNL d   1      44.965 -18.019  41.205  0.00  0.00     0.020 A 
ENDBRANCH  22  25
ENDBRANCH   1  22
TORSDOF 4
ENDMDL
