MODEL 1
REMARK VINA RESULT:      63.3      0.000      0.000
REMARK  8 active torsions:
REMARK  status: ('A' for Active; 'I' for Inactive)
REMARK    1  A    between atoms: C_6  and  C_1 
REMARK    2  A    between atoms: C_7  and  C_3 
REMARK       I    between atoms: N_10  and  C_6 
REMARK    3  A    between atoms: O_12  and  C_7 
REMARK    4  A    between atoms: C_20  and  N_10 
REMARK    5  A    between atoms: C_23  and  O_12 
REMARK    6  A    between atoms: O_21  and  C_14 
REMARK    7  A    between atoms: C_15  and  C_22 
REMARK    8  A    between atoms: C_22  and  C_20 
ROOT
ATOM      1  C   UNL d   1      59.967  49.155  50.696  0.00  0.00     0.075 A 
ATOM      2  C   UNL d   1      59.354  49.088  50.149  0.00  0.00     0.027 A 
ATOM      3  C   UNL d   1      58.676  49.419  50.477  0.00  0.00     0.121 A 
ATOM      4  N   UNL d   1      58.871  49.694  51.240  0.00  0.00    -0.349 N 
ATOM      5  C   UNL d   1      59.667  49.529  51.370  0.00  0.00     0.061 A 
ATOM      6  C   UNL d   1      59.411  48.749  49.400  0.00  0.00     0.002 C 
ATOM      7  C   UNL d   1      60.096  49.707  52.056  0.00  0.00     0.019 C 
ATOM      8  H   UNL d   1      58.356  50.065  51.767  0.00  0.00     0.166 HD
ENDROOT
BRANCH   1   9
ATOM      9  C   UNL d   1      60.740  48.895  50.591  0.00  0.00     0.281 C 
ATOM     10  O   UNL d   1      61.371  49.405  50.733  0.00  0.00    -0.265 OA
ATOM     11  N   UNL d   1      60.889  48.122  50.343  0.00  0.00    -0.206 NA
BRANCH  11  12
ATOM     12  C   UNL d   1      61.661  47.862  50.238  0.00  0.00     0.102 C 
BRANCH  12  13
ATOM     13  C   UNL d   1      61.889  47.515  49.528  0.00  0.00     0.021 C 
BRANCH  13  14
ATOM     14  C   UNL d   1      61.900  46.700  49.449  0.00  0.00     0.002 A 
ATOM     15  C   UNL d   1      61.210  46.253  49.555  0.00  0.00     0.002 A 
ATOM     16  C   UNL d   1      61.222  45.438  49.475  0.00  0.00     0.024 A 
ATOM     17  C   UNL d   1      61.930  45.048  49.286  0.00  0.00     0.094 A 
ATOM     18  C   UNL d   1      62.626  45.482  49.178  0.00  0.00     0.024 A 
ATOM     19  C   UNL d   1      62.609  46.309  49.260  0.00  0.00     0.002 A 
BRANCH  17  20
ATOM     20  O   UNL d   1      61.941  44.227  49.206  0.00  0.00    -0.328 OA
ATOM     21  C   UNL d   1      62.580  43.792  49.500  0.00  0.00     0.181 C 
ENDBRANCH  17  20
ENDBRANCH  13  14
ENDBRANCH  12  13
ENDBRANCH  11  12
ENDBRANCH   1   9
BRANCH   3  22
ATOM     22  C   UNL d   1      57.929  49.473  50.124  0.00  0.00     0.316 C 
ATOM     23  O   UNL d   1      57.856  49.708  49.337  0.00  0.00    -0.257 OA
BRANCH  22  24
ATOM     24  O   UNL d   1      57.262  49.291  50.568  0.00  0.00    -0.270 OA
BRANCH  24  25
ATOM     25  C   UNL d   1      56.553  49.691  50.425  0.00  0.00     0.126 C 
ATOM     26  C   UNL d   1      56.050  49.439  49.828  0.00  0.00     0.029 C 
ENDBRANCH  24  25
ENDBRANCH  22  24
ENDBRANCH   3  22
TORSDOF 8
ENDMDL
MODEL 2
REMARK VINA RESULT:      64.2      1.296      5.172
REMARK  8 active torsions:
REMARK  status: ('A' for Active; 'I' for Inactive)
REMARK    1  A    between atoms: C_6  and  C_1 
REMARK    2  A    between atoms: C_7  and  C_3 
REMARK       I    between atoms: N_10  and  C_6 
REMARK    3  A    between atoms: O_12  and  C_7 
REMARK    4  A    between atoms: C_20  and  N_10 
REMARK    5  A    between atoms: C_23  and  O_12 
REMARK    6  A    between atoms: O_21  and  C_14 
REMARK    7  A    between atoms: C_15  and  C_22 
REMARK    8  A    between atoms: C_22  and  C_20 
ROOT
ATOM      1  C   UNL d   1      61.155  47.320  50.546  0.00  0.00     0.075 A 
ATOM      2  C   UNL d   1      60.889  46.700  51.021  0.00  0.00     0.027 A 
ATOM      3  C   UNL d   1      61.110  45.991  50.669  0.00  0.00     0.121 A 
ATOM      4  N   UNL d   1      61.521  46.172  49.965  0.00  0.00    -0.349 N 
ATOM      5  C   UNL d   1      61.545  46.992  49.895  0.00  0.00     0.061 A 
ATOM      6  C   UNL d   1      60.471  46.778  51.727  0.00  0.00     0.002 C 
ATOM      7  C   UNL d   1      61.899  47.417  49.279  0.00  0.00     0.019 C 
ATOM      8  H   UNL d   1      61.842  45.625  49.438  0.00  0.00     0.166 HD
ENDROOT
BRANCH   1   9
ATOM      9  C   UNL d   1      61.052  48.122  50.695  0.00  0.00     0.281 C 
ATOM     10  O   UNL d   1      61.705  48.606  50.825  0.00  0.00    -0.265 OA
ATOM     11  N   UNL d   1      60.293  48.447  50.714  0.00  0.00    -0.206 NA
BRANCH  11  12
ATOM     12  C   UNL d   1      60.189  49.249  50.862  0.00  0.00     0.102 C 
BRANCH  12  13
ATOM     13  C   UNL d   1      59.731  49.707  50.358  0.00  0.00     0.021 C 
BRANCH  13  14
ATOM     14  C   UNL d   1      58.914  49.700  50.417  0.00  0.00     0.002 A 
ATOM     15  C   UNL d   1      58.541  49.691  51.157  0.00  0.00     0.002 A 
ATOM     16  C   UNL d   1      57.725  49.684  51.216  0.00  0.00     0.024 A 
ATOM     17  C   UNL d   1      57.257  49.685  50.529  0.00  0.00     0.094 A 
ATOM     18  C   UNL d   1      57.617  49.693  49.784  0.00  0.00     0.024 A 
ATOM     19  C   UNL d   1      58.446  49.701  49.730  0.00  0.00     0.002 A 
BRANCH  17  20
ATOM     20  O   UNL d   1      56.435  49.677  50.589  0.00  0.00    -0.328 OA
ATOM     21  C   UNL d   1      56.076  49.596  51.330  0.00  0.00     0.181 C 
ENDBRANCH  17  20
ENDBRANCH  13  14
ENDBRANCH  12  13
ENDBRANCH  11  12
ENDBRANCH   1   9
BRANCH   3  22
ATOM     22  C   UNL d   1      60.959  45.228  50.952  0.00  0.00     0.316 C 
ATOM     23  O   UNL d   1      60.422  45.110  51.566  0.00  0.00    -0.257 OA
BRANCH  22  24
ATOM     24  O   UNL d   1      61.352  44.590  50.614  0.00  0.00    -0.270 OA
BRANCH  24  25
ATOM     25  C   UNL d   1      61.249  43.832  50.929  0.00  0.00     0.126 C 
ATOM     26  C   UNL d   1      61.897  43.343  51.047  0.00  0.00     0.029 C 
ENDBRANCH  24  25
ENDBRANCH  22  24
ENDBRANCH   3  22
TORSDOF 8
ENDMDL
