MODEL 1
REMARK VINA RESULT:      -3.9      0.000      0.000
REMARK  8 active torsions:
REMARK  status: ('A' for Active; 'I' for Inactive)
REMARK    1  A    between atoms: N_10  and  C_4 
REMARK    2  A    between atoms: C_17  and  N_5 
REMARK    3  A    between atoms: C_16  and  N_10 
REMARK    4  A    between atoms: C_11  and  S_19 
REMARK    5  A    between atoms: C_20  and  C_16 
REMARK    6  A    between atoms: C_21  and  C_17 
REMARK    7  A    between atoms: S_19  and  C_26 
REMARK    8  A    between atoms: C_26  and  C_21 
ROOT
ATOM      1  C   UNL d   1     -39.359  14.843  18.955  0.00  0.00     0.191 A 
ATOM      2  C   UNL d   1     -40.124  14.554  19.059  0.00  0.00     0.174 A 
ATOM      3  N   UNL d   1     -39.064  15.076  19.694  0.00  0.00    -0.042 NA
ATOM      4  C   UNL d   1     -39.670  14.920  20.248  0.00  0.00     0.722 A 
ATOM      5  N   UNL d   1     -40.359  14.596  19.933  0.00  0.00    -0.132 N 
ATOM      6  N   UNL d   1     -39.024  14.860  18.203  0.00  0.00    -0.239 N 
ATOM      7  C   UNL d   1     -39.455  14.583  17.527  0.00  0.00     0.358 A 
ATOM      8  N   UNL d   1     -40.220  14.293  17.631  0.00  0.00    -0.152 NA
ATOM      9  C   UNL d   1     -40.555  14.281  18.412  0.00  0.00     0.303 A 
ATOM     10  O   UNL d   1     -39.121  14.596  16.755  0.00  0.00    -0.244 OA
ATOM     11  O   UNL d   1     -41.320  13.991  18.516  0.00  0.00    -0.263 OA
ATOM     12  C   UNL d   1     -38.258  15.150  18.099  0.00  0.00     0.105 C 
ENDROOT
BRANCH   5  13
ATOM     13  C   UNL d   1     -41.117  14.307  20.024  0.00  0.00     0.099 C 
BRANCH  13  14
ATOM     14  C   UNL d   1     -41.302  13.883  20.703  0.00  0.00     0.027 C 
BRANCH  14  15
ATOM     15  C   UNL d   1     -42.075  13.664  20.846  0.00  0.00     0.040 C 
BRANCH  15  16
ATOM     16  S   UNL d   1     -42.231  12.985  21.294  0.00  0.00    -0.048 SA
BRANCH  16  17
ATOM     17  C   UNL d   1     -42.999  12.840  21.559  0.00  0.00     0.194 A 
ATOM     18  N   UNL d   1     -43.176  12.130  21.938  0.00  0.00    -0.220 NA
ATOM     19  C   UNL d   1     -43.935  11.994  22.197  0.00  0.00     0.103 A 
ATOM     20  C   UNL d   1     -44.525  12.562  22.081  0.00  0.00     0.041 A 
ATOM     21  C   UNL d   1     -44.350  13.278  21.698  0.00  0.00     0.103 A 
ATOM     22  N   UNL d   1     -43.579  13.412  21.438  0.00  0.00    -0.220 NA
ENDBRANCH  16  17
ENDBRANCH  15  16
ENDBRANCH  14  15
ENDBRANCH  13  14
ENDBRANCH   5  13
BRANCH   4  23
ATOM     23  N   UNL d   1     -39.615  15.068  21.057  0.00  0.00    -0.137 N 
ATOM     24  C   UNL d   1     -40.031  15.685  21.394  0.00  0.00     0.118 C 
BRANCH  23  25
ATOM     25  C   UNL d   1     -39.140  14.592  21.533  0.00  0.00     0.098 C 
BRANCH  25  26
ATOM     26  C   UNL d   1     -38.839  14.886  22.242  0.00  0.00     0.018 A 
ATOM     27  C   UNL d   1     -38.893  14.430  22.934  0.00  0.00     0.002 A 
ATOM     28  C   UNL d   1     -38.595  14.719  23.642  0.00  0.00     0.000 A 
ATOM     29  C   UNL d   1     -38.239  15.468  23.665  0.00  0.00     0.000 A 
ATOM     30  C   UNL d   1     -38.187  15.922  22.970  0.00  0.00     0.000 A 
ATOM     31  C   UNL d   1     -38.486  15.629  22.264  0.00  0.00     0.002 A 
ENDBRANCH  25  26
ENDBRANCH  23  25
ENDBRANCH   4  23
TORSDOF 8
ENDMDL
MODEL 2
REMARK VINA RESULT:      -1.6      1.777      3.775
REMARK  8 active torsions:
REMARK  status: ('A' for Active; 'I' for Inactive)
REMARK    1  A    between atoms: N_10  and  C_4 
REMARK    2  A    between atoms: C_17  and  N_5 
REMARK    3  A    between atoms: C_16  and  N_10 
REMARK    4  A    between atoms: C_11  and  S_19 
REMARK    5  A    between atoms: C_20  and  C_16 
REMARK    6  A    between atoms: C_21  and  C_17 
REMARK    7  A    between atoms: S_19  and  C_26 
REMARK    8  A    between atoms: C_26  and  C_21 
ROOT
ATOM      1  C   UNL d   1     -39.984  15.202  17.970  0.00  0.00     0.191 A 
ATOM      2  C   UNL d   1     -39.372  15.411  18.482  0.00  0.00     0.174 A 
ATOM      3  N   UNL d   1     -40.619  14.917  18.422  0.00  0.00    -0.042 NA
ATOM      4  C   UNL d   1     -40.374  14.958  19.220  0.00  0.00     0.722 A 
ATOM      5  N   UNL d   1     -39.615  15.253  19.340  0.00  0.00    -0.132 N 
ATOM      6  N   UNL d   1     -39.892  15.296  17.157  0.00  0.00    -0.239 N 
ATOM      7  C   UNL d   1     -39.171  15.607  16.833  0.00  0.00     0.358 A 
ATOM      8  N   UNL d   1     -38.559  15.815  17.345  0.00  0.00    -0.152 NA
ATOM      9  C   UNL d   1     -38.667  15.713  18.182  0.00  0.00     0.303 A 
ATOM     10  O   UNL d   1     -39.067  15.707  16.005  0.00  0.00    -0.244 OA
ATOM     11  O   UNL d   1     -38.055  15.922  18.694  0.00  0.00    -0.263 OA
ATOM     12  C   UNL d   1     -40.504  15.088  16.645  0.00  0.00     0.105 C 
ENDROOT
BRANCH   5  13
ATOM     13  C   UNL d   1     -39.001  15.463  19.837  0.00  0.00     0.099 C 
BRANCH  13  14
ATOM     14  C   UNL d   1     -38.623  14.876  20.270  0.00  0.00     0.027 C 
BRANCH  14  15
ATOM     15  C   UNL d   1     -38.529  14.963  21.076  0.00  0.00     0.040 C 
BRANCH  15  16
ATOM     16  S   UNL d   1     -37.948  14.525  21.470  0.00  0.00    -0.048 SA
BRANCH  16  17
ATOM     17  C   UNL d   1     -38.126  14.166  22.191  0.00  0.00     0.194 A 
ATOM     18  N   UNL d   1     -38.379  14.623  22.828  0.00  0.00    -0.220 NA
ATOM     19  C   UNL d   1     -38.554  14.261  23.535  0.00  0.00     0.103 A 
ATOM     20  C   UNL d   1     -38.478  13.442  23.616  0.00  0.00     0.041 A 
ATOM     21  C   UNL d   1     -38.224  12.978  22.977  0.00  0.00     0.103 A 
ATOM     22  N   UNL d   1     -38.048  13.349  22.261  0.00  0.00    -0.220 NA
ENDBRANCH  16  17
ENDBRANCH  15  16
ENDBRANCH  14  15
ENDBRANCH  13  14
ENDBRANCH   5  13
BRANCH   4  23
ATOM     23  N   UNL d   1     -40.835  14.729  19.864  0.00  0.00    -0.137 N 
ATOM     24  C   UNL d   1     -41.198  15.290  20.333  0.00  0.00     0.118 C 
BRANCH  23  25
ATOM     25  C   UNL d   1     -40.932  13.930  20.039  0.00  0.00     0.098 C 
BRANCH  25  26
ATOM     26  C   UNL d   1     -41.567  13.682  20.503  0.00  0.00     0.018 A 
ATOM     27  C   UNL d   1     -42.289  13.485  20.143  0.00  0.00     0.002 A 
ATOM     28  C   UNL d   1     -42.923  13.238  20.602  0.00  0.00     0.000 A 
ATOM     29  C   UNL d   1     -42.842  13.186  21.426  0.00  0.00     0.000 A 
ATOM     30  C   UNL d   1     -42.117  13.385  21.783  0.00  0.00     0.000 A 
ATOM     31  C   UNL d   1     -41.485  13.632  21.320  0.00  0.00     0.002 A 
ENDBRANCH  25  26
ENDBRANCH  23  25
ENDBRANCH   4  23
TORSDOF 8
ENDMDL
