MODEL 1
REMARK VINA RESULT:      -9.6      0.000      0.000
REMARK  5 active torsions:
REMARK  status: ('A' for Active; 'I' for Inactive)
REMARK    1  A    between atoms: O_4  and  C_1 
REMARK    2  A    between atoms: C_11  and  C_2 
REMARK    3  A    between atoms: C_5  and  O_4 
REMARK    4  A    between atoms: C_7  and  C_5 
REMARK    5  A    between atoms: N_10  and  C_11 
ROOT
ATOM      1  C   UNL d   1      53.052  32.973  53.949  0.00  0.00     0.122 A 
ATOM      2  C   UNL d   1      52.622  33.480  53.449  0.00  0.00     0.043 A 
ATOM      3  C   UNL d   1      53.612  33.288  54.477  0.00  0.00     0.105 A 
ATOM      4  C   UNL d   1      53.737  34.115  54.498  0.00  0.00     0.030 A 
ATOM      5  C   UNL d   1      53.299  34.612  53.992  0.00  0.00     0.059 A 
ATOM      6  C   UNL d   1      52.741  34.268  53.469  0.00  0.00     0.015 A 
ATOM      7  N   UNL d   1      54.030  32.800  54.963  0.00  0.00    -0.242 NA
ATOM      8 CL   UNL d   1      53.420  35.415  54.012  0.00  0.00    -0.082 Cl
ATOM      9  C   UNL d   1      54.277  34.439  55.005  0.00  0.00     0.004 A 
ATOM     10  C   UNL d   1      54.587  33.131  55.485  0.00  0.00     0.099 A 
ATOM     11  C   UNL d   1      54.705  33.919  55.505  0.00  0.00     0.021 A 
ENDROOT
BRANCH   1  12
ATOM     12  O   UNL d   1      52.931  32.166  53.928  0.00  0.00    -0.271 OA
BRANCH  12  13
ATOM     13  C   UNL d   1      53.351  31.686  53.421  0.00  0.00     0.306 C 
ATOM     14  O   UNL d   1      53.896  32.047  52.906  0.00  0.00    -0.258 OA
BRANCH  13  15
ATOM     15  C   UNL d   1      53.236  30.882  53.423  0.00  0.00     0.093 A 
ATOM     16  S   UNL d   1      52.841  30.472  52.866  0.00  0.00    -0.081 SA
ATOM     17  C   UNL d   1      52.854  29.666  53.080  0.00  0.00     0.036 A 
ATOM     18  C   UNL d   1      53.263  29.602  53.774  0.00  0.00     0.008 A 
ATOM     19  C   UNL d   1      53.508  30.393  53.992  0.00  0.00     0.012 A 
ENDBRANCH  13  15
ENDBRANCH  12  13
ENDBRANCH   1  12
BRANCH   2  20
ATOM     20  C   UNL d   1      52.052  33.171  52.910  0.00  0.00     0.082 C 
BRANCH  20  21
ATOM     21  N   UNL d   1      51.341  33.604  52.768  0.00  0.00    -0.300 N 
ATOM     22  C   UNL d   1      51.266  34.004  52.045  0.00  0.00     0.100 A 
ATOM     23  C   UNL d   1      50.578  34.428  51.899  0.00  0.00     0.100 A 
ATOM     24  N   UNL d   1      49.972  34.451  52.470  0.00  0.00    -0.299 N 
ATOM     25  C   UNL d   1      50.081  34.050  53.164  0.00  0.00     0.100 A 
ATOM     26  C   UNL d   1      49.270  34.875  52.339  0.00  0.00     0.100 C 
ATOM     27  C   UNL d   1      50.751  33.627  53.326  0.00  0.00     0.100 A 
ENDBRANCH  20  21
ENDBRANCH   2  20
TORSDOF 5
ENDMDL
MODEL 2
REMARK VINA RESULT:      -8.0      1.683      3.564
REMARK  5 active torsions:
REMARK  status: ('A' for Active; 'I' for Inactive)
REMARK    1  A    between atoms: O_4  and  C_1 
REMARK    2  A    between atoms: C_11  and  C_2 
REMARK    3  A    between atoms: C_5  and  O_4 
REMARK    4  A    between atoms: C_7  and  C_5 
REMARK    5  A    between atoms: N_10  and  C_11 
ROOT
ATOM      1  C   UNL d   1      52.592  33.459  53.648  0.00  0.00     0.122 A 
ATOM      2  C   UNL d   1      52.991  32.776  53.389  0.00  0.00     0.043 A 
ATOM      3  C   UNL d   1      52.970  33.990  54.164  0.00  0.00     0.105 A 
ATOM      4  C   UNL d   1      53.751  33.831  54.417  0.00  0.00     0.030 A 
ATOM      5  C   UNL d   1      54.140  33.144  54.150  0.00  0.00     0.059 A 
ATOM      6  C   UNL d   1      53.735  32.625  53.630  0.00  0.00     0.015 A 
ATOM      7  N   UNL d   1      52.586  34.652  54.416  0.00  0.00    -0.242 NA
ATOM      8 CL   UNL d   1      54.898  32.989  54.395  0.00  0.00    -0.082 Cl
ATOM      9  C   UNL d   1      54.134  34.337  54.918  0.00  0.00     0.004 A 
ATOM     10  C   UNL d   1      52.979  35.173  54.932  0.00  0.00     0.099 A 
ATOM     11  C   UNL d   1      53.723  35.022  55.173  0.00  0.00     0.021 A 
ENDROOT
BRANCH   1  12
ATOM     12  O   UNL d   1      51.828  33.614  53.401  0.00  0.00    -0.271 OA
BRANCH  12  13
ATOM     13  C   UNL d   1      51.680  34.050  52.729  0.00  0.00     0.306 C 
ATOM     14  O   UNL d   1      52.333  34.328  52.294  0.00  0.00    -0.258 OA
BRANCH  13  15
ATOM     15  C   UNL d   1      50.917  34.204  52.497  0.00  0.00     0.093 A 
ATOM     16  S   UNL d   1      50.663  34.238  51.743  0.00  0.00    -0.081 SA
ATOM     17  C   UNL d   1      49.848  34.409  51.752  0.00  0.00     0.036 A 
ATOM     18  C   UNL d   1      49.618  34.478  52.523  0.00  0.00     0.008 A 
ATOM     19  C   UNL d   1      50.316  34.344  53.002  0.00  0.00     0.012 A 
ENDBRANCH  13  15
ENDBRANCH  12  13
ENDBRANCH   1  12
BRANCH   2  20
ATOM     20  C   UNL d   1      52.616  32.231  52.866  0.00  0.00     0.082 C 
BRANCH  20  21
ATOM     21  N   UNL d   1      52.654  31.405  53.036  0.00  0.00    -0.300 N 
ATOM     22  C   UNL d   1      53.252  30.959  52.671  0.00  0.00     0.100 A 
ATOM     23  C   UNL d   1      53.296  30.154  52.830  0.00  0.00     0.100 A 
ATOM     24  N   UNL d   1      52.749  29.800  53.349  0.00  0.00    -0.299 N 
ATOM     25  C   UNL d   1      52.180  30.266  53.686  0.00  0.00     0.100 A 
ATOM     26  C   UNL d   1      52.779  28.988  53.521  0.00  0.00     0.100 C 
ATOM     27  C   UNL d   1      52.121  31.060  53.542  0.00  0.00     0.100 A 
ENDBRANCH  20  21
ENDBRANCH   2  20
TORSDOF 5
ENDMDL
MODEL 3
REMARK VINA RESULT:      -7.5      1.613      3.020
REMARK  5 active torsions:
REMARK  status: ('A' for Active; 'I' for Inactive)
REMARK    1  A    between atoms: O_4  and  C_1 
REMARK    2  A    between atoms: C_11  and  C_2 
REMARK    3  A    between atoms: C_5  and  O_4 
REMARK    4  A    between atoms: C_7  and  C_5 
REMARK    5  A    between atoms: N_10  and  C_11 
ROOT
ATOM      1  C   UNL d   1      53.274  31.949  53.823  0.00  0.00     0.122 A 
ATOM      2  C   UNL d   1      52.840  32.280  53.195  0.00  0.00     0.043 A 
ATOM      3  C   UNL d   1      53.331  31.123  53.898  0.00  0.00     0.105 A 
ATOM      4  C   UNL d   1      52.950  30.632  53.337  0.00  0.00     0.030 A 
ATOM      5  C   UNL d   1      52.518  30.976  52.713  0.00  0.00     0.059 A 
ATOM      6  C   UNL d   1      52.476  31.813  52.661  0.00  0.00     0.015 A 
ATOM      7  N   UNL d   1      53.751  30.800  54.505  0.00  0.00    -0.242 NA
ATOM      8 CL   UNL d   1      52.148  30.500  52.169  0.00  0.00    -0.082 Cl
ATOM      9  C   UNL d   1      52.995  29.827  53.395  0.00  0.00     0.004 A 
ATOM     10  C   UNL d   1      53.798  29.971  54.565  0.00  0.00     0.099 A 
ATOM     11  C   UNL d   1      53.435  29.504  54.032  0.00  0.00     0.021 A 
ENDROOT
BRANCH   1  12
ATOM     12  O   UNL d   1      53.647  32.428  54.370  0.00  0.00    -0.271 OA
BRANCH  12  13
ATOM     13  C   UNL d   1      54.387  32.737  54.229  0.00  0.00     0.306 C 
ATOM     14  O   UNL d   1      54.772  32.521  53.523  0.00  0.00    -0.258 OA
BRANCH  13  15
ATOM     15  C   UNL d   1      54.733  33.240  54.765  0.00  0.00     0.093 A 
ATOM     16  S   UNL d   1      55.340  33.732  54.608  0.00  0.00    -0.081 SA
ATOM     17  C   UNL d   1      55.523  34.146  55.308  0.00  0.00     0.036 A 
ATOM     18  C   UNL d   1      55.017  33.894  55.885  0.00  0.00     0.008 A 
ATOM     19  C   UNL d   1      54.507  33.307  55.526  0.00  0.00     0.012 A 
ENDBRANCH  13  15
ENDBRANCH  12  13
ENDBRANCH   1  12
BRANCH   2  20
ATOM     20  C   UNL d   1      52.775  33.116  53.110  0.00  0.00     0.082 C 
BRANCH  20  21
ATOM     21  N   UNL d   1      52.020  33.457  52.947  0.00  0.00    -0.300 N 
ATOM     22  C   UNL d   1      51.918  33.852  52.223  0.00  0.00     0.100 A 
ATOM     23  C   UNL d   1      51.187  34.186  52.057  0.00  0.00     0.100 A 
ATOM     24  N   UNL d   1      50.565  34.127  52.608  0.00  0.00    -0.299 N 
ATOM     25  C   UNL d   1      50.701  33.735  53.302  0.00  0.00     0.100 A 
ATOM     26  C   UNL d   1      49.819  34.459  52.455  0.00  0.00     0.100 C 
ATOM     27  C   UNL d   1      51.414  33.399  53.484  0.00  0.00     0.100 A 
ENDBRANCH  20  21
ENDBRANCH   2  20
TORSDOF 5
ENDMDL
MODEL 4
REMARK VINA RESULT:      -7.1      0.940      3.359
REMARK  5 active torsions:
REMARK  status: ('A' for Active; 'I' for Inactive)
REMARK    1  A    between atoms: O_4  and  C_1 
REMARK    2  A    between atoms: C_11  and  C_2 
REMARK    3  A    between atoms: C_5  and  O_4 
REMARK    4  A    between atoms: C_7  and  C_5 
REMARK    5  A    between atoms: N_10  and  C_11 
ROOT
ATOM      1  C   UNL d   1      52.402  32.822  53.410  0.00  0.00     0.122 A 
ATOM      2  C   UNL d   1      53.126  33.221  53.502  0.00  0.00     0.043 A 
ATOM      3  C   UNL d   1      51.721  33.244  53.190  0.00  0.00     0.105 A 
ATOM      4  C   UNL d   1      51.772  34.070  53.061  0.00  0.00     0.030 A 
ATOM      5  C   UNL d   1      52.504  34.458  53.156  0.00  0.00     0.059 A 
ATOM      6  C   UNL d   1      53.175  34.007  53.380  0.00  0.00     0.015 A 
ATOM      7  N   UNL d   1      51.018  32.860  53.100  0.00  0.00    -0.242 NA
ATOM      8 CL   UNL d   1      52.554  35.258  53.032  0.00  0.00    -0.082 Cl
ATOM      9  C   UNL d   1      51.120  34.496  52.846  0.00  0.00     0.004 A 
ATOM     10  C   UNL d   1      50.345  33.298  52.879  0.00  0.00     0.099 A 
ATOM     11  C   UNL d   1      50.394  34.084  52.757  0.00  0.00     0.021 A 
ENDROOT
BRANCH   1  12
ATOM     12  O   UNL d   1      52.351  32.017  53.536  0.00  0.00    -0.271 OA
BRANCH  12  13
ATOM     13  C   UNL d   1      52.555  31.483  52.955  0.00  0.00     0.306 C 
ATOM     14  O   UNL d   1      52.700  31.777  52.189  0.00  0.00    -0.258 OA
BRANCH  13  15
ATOM     15  C   UNL d   1      52.613  30.690  53.124  0.00  0.00     0.093 A 
ATOM     16  S   UNL d   1      53.175  30.200  52.843  0.00  0.00    -0.081 SA
ATOM     17  C   UNL d   1      53.031  29.439  53.152  0.00  0.00     0.036 A 
ATOM     18  C   UNL d   1      52.374  29.483  53.621  0.00  0.00     0.008 A 
ATOM     19  C   UNL d   1      52.108  30.296  53.599  0.00  0.00     0.012 A 
ENDBRANCH  13  15
ENDBRANCH  12  13
ENDBRANCH   1  12
BRANCH   2  20
ATOM     20  C   UNL d   1      53.823  32.803  53.726  0.00  0.00     0.082 C 
BRANCH  20  21
ATOM     21  N   UNL d   1      54.329  33.130  54.317  0.00  0.00    -0.300 N 
ATOM     22  C   UNL d   1      55.048  33.465  54.074  0.00  0.00     0.100 A 
ATOM     23  C   UNL d   1      55.546  33.785  54.643  0.00  0.00     0.100 A 
ATOM     24  N   UNL d   1      55.326  33.772  55.446  0.00  0.00    -0.299 N 
ATOM     25  C   UNL d   1      54.617  33.438  55.646  0.00  0.00     0.100 A 
ATOM     26  C   UNL d   1      55.818  34.092  56.034  0.00  0.00     0.100 C 
ATOM     27  C   UNL d   1      54.114  33.117  55.101  0.00  0.00     0.100 A 
ENDBRANCH  20  21
ENDBRANCH   2  20
TORSDOF 5
ENDMDL
