MODEL 1
REMARK VINA RESULT:      70.9      0.000      0.000
REMARK  10 active torsions:
REMARK  status: ('A' for Active; 'I' for Inactive)
REMARK       I    between atoms: C_6  and  N_1 
REMARK    1  A    between atoms: C_7  and  C_3 
REMARK    2  A    between atoms: C_9  and  C_4 
REMARK    3  A    between atoms: C_19  and  C_6 
REMARK    4  A    between atoms: C_10  and  C_25 
REMARK    5  A    between atoms: O_23  and  C_10 
REMARK    6  A    between atoms: S_18  and  C_19 
REMARK    7  A    between atoms: C_25  and  S_18 
REMARK    8  A    between atoms: C_26  and  O_23 
REMARK    9  A    between atoms: C_27  and  C_26 
REMARK   10  A    between atoms: C_28  and  C_27 
ROOT
ATOM      1  N   UNL d   1     -55.724 -99.809 -43.928  0.00  0.00    -0.195 N 
ATOM      2  N   UNL d   1     -55.673 -99.382 -43.226  0.00  0.00    -0.162 NA
ATOM      3  C   UNL d   1     -55.186 -99.771 -42.725  0.00  0.00     0.109 A 
ATOM      4  C   UNL d   1     -55.250-100.475 -43.841  0.00  0.00     0.088 A 
ATOM      5  C   UNL d   1     -54.915-100.455 -43.099  0.00  0.00     0.041 A 
ATOM      6  C   UNL d   1     -56.170 -99.605 -44.599  0.00  0.00     0.275 C 
ATOM      7  O   UNL d   1     -56.167-100.088 -45.263  0.00  0.00    -0.266 OA
ENDROOT
BRANCH   4   8
ATOM      8  C   UNL d   1     -55.117-101.073 -44.386  0.00  0.00     0.018 A 
ATOM      9  C   UNL d   1     -55.177-100.911 -45.190  0.00  0.00     0.004 A 
ATOM     10  C   UNL d   1     -55.044-101.508 -45.735  0.00  0.00     0.030 A 
ATOM     11  C   UNL d   1     -54.850-102.269 -45.490  0.00  0.00     0.140 A 
ATOM     12  C   UNL d   1     -54.790-102.425 -44.672  0.00  0.00     0.030 A 
ATOM     13  F   UNL d   1     -54.718-102.863 -46.044  0.00  0.00    -0.204 F 
ATOM     14  C   UNL d   1     -54.922-101.832 -44.127  0.00  0.00     0.004 A 
ENDBRANCH   4   8
BRANCH   6  15
ATOM     15  C   UNL d   1     -56.619 -98.913 -44.596  0.00  0.00     0.127 C 
BRANCH  15  16
ATOM     16  S   UNL d   1     -57.270 -98.838 -45.091  0.00  0.00    -0.089 SA
BRANCH  16  17
ATOM     17  C   UNL d   1     -58.020 -98.755 -44.768  0.00  0.00     0.103 C 
BRANCH  17  18
ATOM     18  C   UNL d   1     -58.432 -99.410 -44.487  0.00  0.00     0.307 C 
ATOM     19  O   UNL d   1     -58.068-100.153 -44.494  0.00  0.00    -0.258 OA
BRANCH  18  20
ATOM     20  O   UNL d   1     -59.206 -99.332 -44.198  0.00  0.00    -0.271 OA
BRANCH  20  21
ATOM     21  C   UNL d   1     -59.358 -99.432 -43.399  0.00  0.00     0.126 C 
BRANCH  21  22
ATOM     22  C   UNL d   1     -59.511 -98.767 -42.920  0.00  0.00     0.027 C 
BRANCH  22  23
ATOM     23  C   UNL d   1     -59.276 -98.765 -42.129  0.00  0.00     0.002 C 
ATOM     24  C   UNL d   1     -59.784 -99.075 -41.560  0.00  0.00     0.000 C 
ENDBRANCH  22  23
ENDBRANCH  21  22
ENDBRANCH  20  21
ENDBRANCH  18  20
ENDBRANCH  17  18
ENDBRANCH  16  17
ENDBRANCH  15  16
ENDBRANCH   6  15
BRANCH   3  25
ATOM     25  C   UNL d   1     -55.010 -99.495 -41.967  0.00  0.00     0.049 A 
ATOM     26  S   UNL d   1     -54.856 -98.764 -41.635  0.00  0.00    -0.085 SA
ATOM     27  C   UNL d   1     -54.719 -98.868 -40.831  0.00  0.00     0.035 A 
ATOM     28  C   UNL d   1     -54.787 -99.673 -40.658  0.00  0.00     0.007 A 
ATOM     29  C   UNL d   1     -54.967-100.065 -41.362  0.00  0.00     0.009 A 
ENDBRANCH   3  25
TORSDOF 10
ENDMDL
