MODEL 1
REMARK VINA RESULT:      -4.3      0.000      0.000
REMARK  4 active torsions:
REMARK  status: ('A' for Active; 'I' for Inactive)
REMARK    1  A    between atoms: C_8  and  N_1 
REMARK    2  A    between atoms: N_7  and  C_4 
REMARK    3  A    between atoms: N_6  and  C_10 
REMARK    4  A    between atoms: C_15  and  N_7 
ROOT
ATOM      1  N   UNL d   1     -42.365-123.006 -49.444  0.00  0.00    -0.241 N 
ATOM      2  C   UNL d   1     -42.757-122.538 -49.978  0.00  0.00     0.269 A 
ATOM      3  C   UNL d   1     -41.697-123.305 -49.813  0.00  0.00     0.285 A 
ATOM      4  C   UNL d   1     -41.705-123.000 -50.582  0.00  0.00     0.142 A 
ATOM      5  C   UNL d   1     -42.335-122.547 -50.673  0.00  0.00     0.085 A 
ATOM      6  O   UNL d   1     -43.472-122.109 -49.863  0.00  0.00    -0.267 OA
ATOM      7  O   UNL d   1     -41.123-123.817 -49.476  0.00  0.00    -0.265 OA
ENDROOT
BRANCH   4   8
ATOM      8  N   UNL d   1     -41.130-123.136 -51.210  0.00  0.00    -0.241 NA
BRANCH   8   9
ATOM      9  C   UNL d   1     -41.286-122.922 -51.997  0.00  0.00     0.082 A 
ATOM     10  C   UNL d   1     -41.538-123.506 -52.531  0.00  0.00     0.021 A 
ATOM     11  C   UNL d   1     -41.692-123.281 -53.320  0.00  0.00     0.019 A 
ATOM     12  C   UNL d   1     -41.599-122.513 -53.563  0.00  0.00     0.064 A 
ATOM     13  C   UNL d   1     -41.354-121.942 -53.047  0.00  0.00     0.019 A 
ATOM     14  C   UNL d   1     -41.196-122.145 -52.257  0.00  0.00     0.021 A 
BRANCH  12  15
ATOM     15  N   UNL d   1     -41.759-122.314 -54.353  0.00  0.00    -0.300 N 
ATOM     16  C   UNL d   1     -42.508-122.030 -54.554  0.00  0.00     0.107 A 
ATOM     17  C   UNL d   1     -42.658-121.835 -55.343  0.00  0.00     0.142 A 
ATOM     18  O   UNL d   1     -42.070-121.924 -55.907  0.00  0.00    -0.300 OA
ATOM     19  C   UNL d   1     -41.339-122.205 -55.687  0.00  0.00     0.142 A 
ATOM     20  C   UNL d   1     -41.163-122.409 -54.901  0.00  0.00     0.107 A 
ENDBRANCH  12  15
ENDBRANCH   8   9
ENDBRANCH   4   8
BRANCH   1  21
ATOM     21  C   UNL d   1     -42.647-123.113 -48.691  0.00  0.00     0.070 A 
ATOM     22  C   UNL d   1     -42.389-122.621 -48.057  0.00  0.00     0.018 A 
ATOM     23  C   UNL d   1     -42.678-122.735 -47.298  0.00  0.00     0.002 A 
ATOM     24  C   UNL d   1     -43.228-123.339 -47.155  0.00  0.00     0.000 A 
ATOM     25  C   UNL d   1     -43.481-123.817 -47.762  0.00  0.00     0.002 A 
ATOM     26  C   UNL d   1     -43.189-123.702 -48.526  0.00  0.00     0.018 A 
ENDBRANCH   1  21
TORSDOF 4
ENDMDL
