MODEL 1
REMARK VINA RESULT:      -2.4      0.000      0.000
REMARK  5 active torsions:
REMARK  status: ('A' for Active; 'I' for Inactive)
REMARK    1  A    between atoms: C_9  and  C_1 
REMARK    2  A    between atoms: N_4  and  C_2 
REMARK    3  A    between atoms: C_8  and  C_3 
REMARK       I    between atoms: C_7  and  N_4 
REMARK    4  A    between atoms: C_10  and  C_7 
REMARK    5  A    between atoms: O_18  and  C_9 
ROOT
ATOM      1  C   UNL d   1      57.969  -0.662  30.625  0.00  0.00     0.088 A 
ATOM      2  C   UNL d   1      57.434  -0.665  31.244  0.00  0.00     0.119 A 
ATOM      3  C   UNL d   1      58.405   0.047  30.699  0.00  0.00     0.020 A 
ATOM      4  S   UNL d   1      57.492  -0.031  31.699  0.00  0.00    -0.067 SA
ATOM      5  C   UNL d   1      58.113   0.450  31.370  0.00  0.00     0.038 A 
ENDROOT
BRANCH   2   6
ATOM      6  N   UNL d   1      56.848  -1.289  31.414  0.00  0.00    -0.201 NA
ATOM      7  C   UNL d   1      56.354  -1.215  32.104  0.00  0.00     0.281 C 
ATOM      8  O   UNL d   1      55.800  -1.821  32.249  0.00  0.00    -0.265 OA
BRANCH   7   9
ATOM      9  C   UNL d   1      56.405  -0.594  32.606  0.00  0.00     0.077 A 
ATOM     10  C   UNL d   1      56.972  -0.598  33.183  0.00  0.00     0.104 A 
ATOM     11  N   UNL d   1      57.050   0.025  33.714  0.00  0.00    -0.242 NA
ATOM     12  C   UNL d   1      56.534   0.681  33.662  0.00  0.00     0.099 A 
ATOM     13  C   UNL d   1      55.949   0.682  33.065  0.00  0.00     0.021 A 
ATOM     14  C   UNL d   1      55.886   0.055  32.546  0.00  0.00     0.008 A 
ENDBRANCH   7   9
ENDBRANCH   2   6
BRANCH   1  15
ATOM     15  C   UNL d   1      58.070  -1.243  30.031  0.00  0.00     0.298 C 
ATOM     16  O   UNL d   1      57.669  -1.163  29.295  0.00  0.00    -0.259 OA
BRANCH  15  17
ATOM     17  O   UNL d   1      58.562  -1.887  30.179  0.00  0.00    -0.296 OA
ATOM     18  C   UNL d   1      58.595  -2.524  29.630  0.00  0.00     0.185 C 
ENDBRANCH  15  17
ENDBRANCH   1  15
BRANCH   3  19
ATOM     19  C   UNL d   1      59.003   0.238  30.161  0.00  0.00     0.030 A 
ATOM     20  S   UNL d   1      59.255   0.296  29.393  0.00  0.00    -0.086 SA
ATOM     21  C   UNL d   1      60.021   0.571  29.423  0.00  0.00     0.035 A 
ATOM     22  C   UNL d   1      60.245   0.682  30.188  0.00  0.00     0.007 A 
ATOM     23  C   UNL d   1      59.600   0.471  30.658  0.00  0.00     0.007 A 
ENDBRANCH   3  19
TORSDOF 5
ENDMDL
MODEL 2
REMARK VINA RESULT:      -1.0      1.539      2.106
REMARK  5 active torsions:
REMARK  status: ('A' for Active; 'I' for Inactive)
REMARK    1  A    between atoms: C_9  and  C_1 
REMARK    2  A    between atoms: N_4  and  C_2 
REMARK    3  A    between atoms: C_8  and  C_3 
REMARK       I    between atoms: C_7  and  N_4 
REMARK    4  A    between atoms: C_10  and  C_7 
REMARK    5  A    between atoms: O_18  and  C_9 
ROOT
ATOM      1  C   UNL d   1      58.320   0.286  31.366  0.00  0.00     0.088 A 
ATOM      2  C   UNL d   1      57.824   0.537  31.966  0.00  0.00     0.119 A 
ATOM      3  C   UNL d   1      57.855   0.272  30.671  0.00  0.00     0.020 A 
ATOM      4  S   UNL d   1      57.096   0.682  31.718  0.00  0.00    -0.067 SA
ATOM      5  C   UNL d   1      57.086   0.518  30.882  0.00  0.00     0.038 A 
ENDROOT
BRANCH   2   6
ATOM      6  N   UNL d   1      58.043   0.645  32.804  0.00  0.00    -0.201 NA
ATOM      7  C   UNL d   1      57.490   0.413  33.409  0.00  0.00     0.281 C 
ATOM      8  O   UNL d   1      57.718   0.524  34.204  0.00  0.00    -0.265 OA
BRANCH   7   9
ATOM      9  C   UNL d   1      56.775   0.097  33.241  0.00  0.00     0.077 A 
ATOM     10  C   UNL d   1      56.109   0.541  33.361  0.00  0.00     0.104 A 
ATOM     11  N   UNL d   1      55.359   0.246  33.198  0.00  0.00    -0.242 NA
ATOM     12  C   UNL d   1      55.275  -0.531  32.900  0.00  0.00     0.099 A 
ATOM     13  C   UNL d   1      55.965  -0.987  32.776  0.00  0.00     0.021 A 
ATOM     14  C   UNL d   1      56.702  -0.678  32.944  0.00  0.00     0.008 A 
ENDBRANCH   7   9
ENDBRANCH   2   6
BRANCH   1  15
ATOM     15  C   UNL d   1      59.130   0.082  31.422  0.00  0.00     0.298 C 
ATOM     16  O   UNL d   1      59.355  -0.727  31.483  0.00  0.00    -0.259 OA
BRANCH  15  17
ATOM     17  O   UNL d   1      59.696   0.682  31.417  0.00  0.00    -0.296 OA
ATOM     18  C   UNL d   1      60.511   0.488  31.499  0.00  0.00     0.185 C 
ENDBRANCH  15  17
ENDBRANCH   1  15
BRANCH   3  19
ATOM     19  C   UNL d   1      58.180   0.042  29.946  0.00  0.00     0.030 A 
ATOM     20  S   UNL d   1      58.753  -0.357  29.537  0.00  0.00    -0.086 SA
ATOM     21  C   UNL d   1      58.588  -0.249  28.747  0.00  0.00     0.035 A 
ATOM     22  C   UNL d   1      57.930   0.206  28.662  0.00  0.00     0.007 A 
ATOM     23  C   UNL d   1      57.669   0.392  29.422  0.00  0.00     0.007 A 
ENDBRANCH   3  19
TORSDOF 5
ENDMDL
MODEL 3
REMARK VINA RESULT:      -0.7      1.561      3.678
REMARK  5 active torsions:
REMARK  status: ('A' for Active; 'I' for Inactive)
REMARK    1  A    between atoms: C_9  and  C_1 
REMARK    2  A    between atoms: N_4  and  C_2 
REMARK    3  A    between atoms: C_8  and  C_3 
REMARK       I    between atoms: C_7  and  N_4 
REMARK    4  A    between atoms: C_10  and  C_7 
REMARK    5  A    between atoms: O_18  and  C_9 
ROOT
ATOM      1  C   UNL d   1      57.703   0.186  31.328  0.00  0.00     0.088 A 
ATOM      2  C   UNL d   1      58.059   0.215  30.592  0.00  0.00     0.119 A 
ATOM      3  C   UNL d   1      58.266   0.483  31.870  0.00  0.00     0.020 A 
ATOM      4  S   UNL d   1      58.788   0.500  30.618  0.00  0.00    -0.067 SA
ATOM      5  C   UNL d   1      58.950   0.682  31.434  0.00  0.00     0.038 A 
ENDROOT
BRANCH   2   6
ATOM      6  N   UNL d   1      57.700  -0.034  29.836  0.00  0.00    -0.201 NA
ATOM      7  C   UNL d   1      58.208  -0.285  29.200  0.00  0.00     0.281 C 
ATOM      8  O   UNL d   1      57.846  -0.519  28.486  0.00  0.00    -0.265 OA
BRANCH   7   9
ATOM      9  C   UNL d   1      59.005  -0.302  29.267  0.00  0.00     0.077 A 
ATOM     10  C   UNL d   1      59.364  -0.975  29.536  0.00  0.00     0.104 A 
ATOM     11  N   UNL d   1      60.181  -1.025  29.615  0.00  0.00    -0.242 NA
ATOM     12  C   UNL d   1      60.658  -0.368  29.415  0.00  0.00     0.099 A 
ATOM     13  C   UNL d   1      60.283   0.326  29.136  0.00  0.00     0.021 A 
ATOM     14  C   UNL d   1      59.471   0.358  29.064  0.00  0.00     0.008 A 
ENDBRANCH   7   9
ENDBRANCH   2   6
BRANCH   1  15
ATOM     15  C   UNL d   1      56.933  -0.083  31.514  0.00  0.00     0.298 C 
ATOM     16  O   UNL d   1      56.283   0.452  31.482  0.00  0.00    -0.259 OA
BRANCH  15  17
ATOM     17  O   UNL d   1      56.823  -0.872  31.728  0.00  0.00    -0.296 OA
ATOM     18  C   UNL d   1      56.051  -1.205  31.719  0.00  0.00     0.185 C 
ENDBRANCH  15  17
ENDBRANCH   1  15
BRANCH   3  19
ATOM     19  C   UNL d   1      58.094   0.535  32.677  0.00  0.00     0.030 A 
ATOM     20  S   UNL d   1      57.544   0.538  33.272  0.00  0.00    -0.086 SA
ATOM     21  C   UNL d   1      57.958   0.630  33.967  0.00  0.00     0.035 A 
ATOM     22  C   UNL d   1      58.747   0.682  33.813  0.00  0.00     0.007 A 
ATOM     23  C   UNL d   1      58.835   0.622  32.995  0.00  0.00     0.007 A 
ENDBRANCH   3  19
TORSDOF 5
ENDMDL
MODEL 4
REMARK VINA RESULT:      -0.6      3.021      4.146
REMARK  5 active torsions:
REMARK  status: ('A' for Active; 'I' for Inactive)
REMARK    1  A    between atoms: C_9  and  C_1 
REMARK    2  A    between atoms: N_4  and  C_2 
REMARK    3  A    between atoms: C_8  and  C_3 
REMARK       I    between atoms: C_7  and  N_4 
REMARK    4  A    between atoms: C_10  and  C_7 
REMARK    5  A    between atoms: O_18  and  C_9 
ROOT
ATOM      1  C   UNL d   1      59.341  -2.240  28.943  0.00  0.00     0.088 A 
ATOM      2  C   UNL d   1      59.402  -1.432  28.826  0.00  0.00     0.119 A 
ATOM      3  C   UNL d   1      60.120  -2.540  28.899  0.00  0.00     0.020 A 
ATOM      4  S   UNL d   1      60.140  -1.197  28.714  0.00  0.00    -0.067 SA
ATOM      5  C   UNL d   1      60.628  -1.893  28.756  0.00  0.00     0.038 A 
ENDROOT
BRANCH   2   6
ATOM      6  N   UNL d   1      58.742  -0.861  28.820  0.00  0.00    -0.201 NA
ATOM      7  C   UNL d   1      58.862  -0.088  29.154  0.00  0.00     0.281 C 
ATOM      8  O   UNL d   1      58.218   0.444  29.139  0.00  0.00    -0.265 OA
BRANCH   7   9
ATOM      9  C   UNL d   1      59.558   0.140  29.475  0.00  0.00     0.077 A 
ATOM     10  C   UNL d   1      60.136   0.438  28.995  0.00  0.00     0.104 A 
ATOM     11  N   UNL d   1      60.863   0.681  29.293  0.00  0.00    -0.242 NA
ATOM     12  C   UNL d   1      61.014   0.621  30.114  0.00  0.00     0.099 A 
ATOM     13  C   UNL d   1      60.414   0.313  30.608  0.00  0.00     0.021 A 
ATOM     14  C   UNL d   1      59.699   0.077  30.294  0.00  0.00     0.008 A 
ENDBRANCH   7   9
ENDBRANCH   2   6
BRANCH   1  15
ATOM     15  C   UNL d   1      58.647  -2.687  29.080  0.00  0.00     0.298 C 
ATOM     16  O   UNL d   1      58.492  -2.996  29.847  0.00  0.00    -0.259 OA
BRANCH  15  17
ATOM     17  O   UNL d   1      58.124  -2.818  28.455  0.00  0.00    -0.296 OA
ATOM     18  C   UNL d   1      57.463  -3.327  28.562  0.00  0.00     0.185 C 
ENDBRANCH  15  17
ENDBRANCH   1  15
BRANCH   3  19
ATOM     19  C   UNL d   1      60.271  -3.348  28.993  0.00  0.00     0.030 A 
ATOM     20  S   UNL d   1      60.075  -4.116  28.825  0.00  0.00    -0.086 SA
ATOM     21  C   UNL d   1      60.614  -4.581  29.221  0.00  0.00     0.035 A 
ATOM     22  C   UNL d   1      61.133  -4.118  29.626  0.00  0.00     0.007 A 
ATOM     23  C   UNL d   1      60.917  -3.336  29.483  0.00  0.00     0.007 A 
ENDBRANCH   3  19
TORSDOF 5
ENDMDL
MODEL 5
REMARK VINA RESULT:      -0.1      1.210      3.597
REMARK  5 active torsions:
REMARK  status: ('A' for Active; 'I' for Inactive)
REMARK    1  A    between atoms: C_9  and  C_1 
REMARK    2  A    between atoms: N_4  and  C_2 
REMARK    3  A    between atoms: C_8  and  C_3 
REMARK       I    between atoms: C_7  and  N_4 
REMARK    4  A    between atoms: C_10  and  C_7 
REMARK    5  A    between atoms: O_18  and  C_9 
ROOT
ATOM      1  C   UNL d   1      57.040  -0.355  32.002  0.00  0.00     0.088 A 
ATOM      2  C   UNL d   1      57.471  -0.409  31.309  0.00  0.00     0.119 A 
ATOM      3  C   UNL d   1      57.453   0.184  32.490  0.00  0.00     0.020 A 
ATOM      4  S   UNL d   1      58.112   0.040  31.314  0.00  0.00    -0.067 SA
ATOM      5  C   UNL d   1      58.127   0.437  32.067  0.00  0.00     0.038 A 
ENDROOT
BRANCH   2   6
ATOM      6  N   UNL d   1      57.273  -0.903  30.616  0.00  0.00    -0.201 NA
ATOM      7  C   UNL d   1      57.824  -0.946  29.969  0.00  0.00     0.281 C 
ATOM      8  O   UNL d   1      57.617  -1.423  29.316  0.00  0.00    -0.265 OA
BRANCH   7   9
ATOM      9  C   UNL d   1      58.520  -0.552  29.968  0.00  0.00     0.077 A 
ATOM     10  C   UNL d   1      59.188  -0.929  30.224  0.00  0.00     0.104 A 
ATOM     11  N   UNL d   1      59.919  -0.552  30.235  0.00  0.00    -0.242 NA
ATOM     12  C   UNL d   1      59.979   0.242  29.977  0.00  0.00     0.099 A 
ATOM     13  C   UNL d   1      59.287   0.629  29.713  0.00  0.00     0.021 A 
ATOM     14  C   UNL d   1      58.570   0.238  29.708  0.00  0.00     0.008 A 
ENDBRANCH   7   9
ENDBRANCH   2   6
BRANCH   1  15
ATOM     15  C   UNL d   1      56.329  -0.751  32.196  0.00  0.00     0.298 C 
ATOM     16  O   UNL d   1      55.589  -0.372  32.065  0.00  0.00    -0.259 OA
BRANCH  15  17
ATOM     17  O   UNL d   1      56.367  -1.511  32.514  0.00  0.00    -0.296 OA
ATOM     18  C   UNL d   1      55.658  -1.940  32.659  0.00  0.00     0.185 C 
ENDBRANCH  15  17
ENDBRANCH   1  15
BRANCH   3  19
ATOM     19  C   UNL d   1      57.173   0.376  33.244  0.00  0.00     0.030 A 
ATOM     20  S   UNL d   1      56.547   0.519  33.738  0.00  0.00    -0.086 SA
ATOM     21  C   UNL d   1      56.865   0.681  34.470  0.00  0.00     0.035 A 
ATOM     22  C   UNL d   1      57.668   0.641  34.437  0.00  0.00     0.007 A 
ATOM     23  C   UNL d   1      57.865   0.447  33.661  0.00  0.00     0.007 A 
ENDBRANCH   3  19
TORSDOF 5
ENDMDL
