MODEL 1
REMARK VINA RESULT:      16.7      0.000      0.000
REMARK  3 active torsions:
REMARK  status: ('A' for Active; 'I' for Inactive)
REMARK    1  A    between atoms: C_6  and  C_2 
REMARK    2  A    between atoms: O_7  and  C_6 
REMARK    3  A    between atoms: C_8  and  O_7 
ROOT
ATOM      1  N   UNL d   1      45.130 -15.748  44.593  0.00  0.00    -0.224 NA
ATOM      2  C   UNL d   1      45.894 -16.048  44.521  0.00  0.00     0.188 A 
ATOM      3  N   UNL d   1      46.427 -15.390  44.516  0.00  0.00    -0.224 NA
ATOM      4  C   UNL d   1      45.188 -14.909  44.632  0.00  0.00     0.101 A 
ATOM      5  C   UNL d   1      45.983 -14.690  44.585  0.00  0.00     0.101 A 
ATOM      6  C   UNL d   1      44.604 -14.331  44.704  0.00  0.00     0.021 A 
ATOM      7  C   UNL d   1      46.192 -13.892  44.611  0.00  0.00     0.021 A 
ATOM      8  C   UNL d   1      44.828 -13.588  44.726  0.00  0.00     0.002 A 
ATOM      9  C   UNL d   1      45.623 -13.368  44.679  0.00  0.00     0.002 A 
ENDROOT
BRANCH   2  10
ATOM     10  C   UNL d   1      45.682 -16.821  44.497  0.00  0.00     0.161 C 
BRANCH  10  11
ATOM     11  O   UNL d   1      46.174 -17.366  44.125  0.00  0.00    -0.302 OA
BRANCH  11  12
ATOM     12  C   UNL d   1      46.292 -18.108  43.785  0.00  0.00     0.100 A 
ATOM     13  C   UNL d   1      46.436 -18.764  44.264  0.00  0.00     0.026 A 
ATOM     14  C   UNL d   1      46.553 -19.502  43.926  0.00  0.00     0.013 A 
ATOM     15  C   UNL d   1      46.529 -19.592  43.104  0.00  0.00     0.058 A 
ATOM     16  C   UNL d   1      46.385 -18.932  42.624  0.00  0.00     0.013 A 
ATOM     17 CL   UNL d   1      46.647 -20.330  42.766  0.00  0.00    -0.082 Cl
ATOM     18  C   UNL d   1      46.267 -18.194  42.962  0.00  0.00     0.026 A 
ENDBRANCH  11  12
ENDBRANCH  10  11
ENDBRANCH   2  10
TORSDOF 3
ENDMDL
