MODEL 1
REMARK VINA RESULT:      -0.6      0.000      0.000
REMARK  6 active torsions:
REMARK  status: ('A' for Active; 'I' for Inactive)
REMARK    1  A    between atoms: C_10  and  N_4 
REMARK    2  A    between atoms: C_12  and  C_9 
REMARK    3  A    between atoms: C_15  and  C_10 
REMARK    4  A    between atoms: C_17  and  N_11 
REMARK    5  A    between atoms: N_13  and  C_12 
REMARK    6  A    between atoms: O_30  and  C_27 
ROOT
ATOM      1  C   UNL d   1     -49.322  12.732  23.307  0.00  0.00     0.157 A 
ATOM      2  C   UNL d   1     -48.746  12.164  23.157  0.00  0.00     0.174 A 
ATOM      3  N   UNL d   1     -48.946  11.360  23.188  0.00  0.00    -0.240 N 
ATOM      4  N   UNL d   1     -48.975  13.477  23.239  0.00  0.00    -0.283 N 
ATOM      5  N   UNL d   1     -50.289  11.708  23.517  0.00  0.00    -0.223 N 
ATOM      6  C   UNL d   1     -49.713  11.134  23.367  0.00  0.00     0.343 A 
ATOM      7  C   UNL d   1     -50.104  12.515  23.489  0.00  0.00     0.287 A 
ATOM      8  N   UNL d   1     -48.039  12.555  22.996  0.00  0.00    -0.207 NA
ATOM      9  C   UNL d   1     -48.181  13.367  23.047  0.00  0.00     0.167 A 
ATOM     10  O   UNL d   1     -49.912  10.330  23.398  0.00  0.00    -0.245 OA
ATOM     11  O   UNL d   1     -50.673  13.083  23.637  0.00  0.00    -0.265 OA
ATOM     12  C   UNL d   1     -48.370  10.786  23.039  0.00  0.00     0.105 C 
ATOM     13  C   UNL d   1     -51.064  11.479  23.697  0.00  0.00     0.107 C 
ENDROOT
BRANCH   9  14
ATOM     14  C   UNL d   1     -47.623  13.964  22.926  0.00  0.00     0.118 C 
BRANCH  14  15
ATOM     15  N   UNL d   1     -46.868  13.774  22.673  0.00  0.00    -0.297 N 
ATOM     16  C   UNL d   1     -46.689  13.746  21.868  0.00  0.00     0.100 A 
ATOM     17  C   UNL d   1     -45.928  13.555  21.604  0.00  0.00     0.100 A 
ATOM     18  N   UNL d   1     -45.334  13.388  22.160  0.00  0.00    -0.301 N 
ATOM     19  C   UNL d   1     -45.507  13.415  22.971  0.00  0.00     0.100 A 
ATOM     20  C   UNL d   1     -46.273  13.608  23.223  0.00  0.00     0.100 A 
BRANCH  18  21
ATOM     21  C   UNL d   1     -44.574  13.197  21.902  0.00  0.00     0.064 A 
ATOM     22  C   UNL d   1     -44.087  13.785  21.607  0.00  0.00     0.020 A 
ATOM     23  C   UNL d   1     -43.321  13.596  21.345  0.00  0.00     0.026 A 
ATOM     24  C   UNL d   1     -43.054  12.814  21.385  0.00  0.00     0.094 A 
ATOM     25  C   UNL d   1     -43.556  12.226  21.686  0.00  0.00     0.026 A 
ATOM     26  C   UNL d   1     -44.316  12.417  21.944  0.00  0.00     0.020 A 
BRANCH  24  27
ATOM     27  O   UNL d   1     -42.300  12.613  21.131  0.00  0.00    -0.328 OA
ATOM     28  C   UNL d   1     -41.703  13.183  21.151  0.00  0.00     0.181 C 
ENDBRANCH  24  27
ENDBRANCH  18  21
ENDBRANCH  14  15
ENDBRANCH   9  14
BRANCH   4  29
ATOM     29  C   UNL d   1     -49.355  14.204  23.345  0.00  0.00     0.082 C 
BRANCH  29  30
ATOM     30  C   UNL d   1     -49.642  14.606  22.696  0.00  0.00     0.018 A 
ATOM     31  C   UNL d   1     -49.895  15.377  22.789  0.00  0.00     0.001 A 
ATOM     32  C   UNL d   1     -49.866  15.752  23.520  0.00  0.00     0.000 C 
ATOM     33  C   UNL d   1     -50.189  15.791  22.128  0.00  0.00     0.000 A 
ATOM     34  C   UNL d   1     -50.224  15.426  21.389  0.00  0.00     0.000 A 
ATOM     35  C   UNL d   1     -49.968  14.652  21.302  0.00  0.00     0.000 A 
ATOM     36  C   UNL d   1     -49.677  14.240  21.953  0.00  0.00     0.002 A 
ENDBRANCH  29  30
ENDBRANCH   4  29
TORSDOF 6
ENDMDL
MODEL 2
REMARK VINA RESULT:       1.0      5.988      9.262
REMARK  6 active torsions:
REMARK  status: ('A' for Active; 'I' for Inactive)
REMARK    1  A    between atoms: C_10  and  N_4 
REMARK    2  A    between atoms: C_12  and  C_9 
REMARK    3  A    between atoms: C_15  and  C_10 
REMARK    4  A    between atoms: C_17  and  N_11 
REMARK    5  A    between atoms: N_13  and  C_12 
REMARK    6  A    between atoms: O_30  and  C_27 
ROOT
ATOM      1  C   UNL d   1     -40.846  14.188  20.811  0.00  0.00     0.157 A 
ATOM      2  C   UNL d   1     -40.978  13.882  20.059  0.00  0.00     0.174 A 
ATOM      3  N   UNL d   1     -41.673  13.457  19.906  0.00  0.00    -0.240 N 
ATOM      4  N   UNL d   1     -40.121  14.581  20.807  0.00  0.00    -0.283 N 
ATOM      5  N   UNL d   1     -42.088  13.651  21.256  0.00  0.00    -0.223 N 
ATOM      6  C   UNL d   1     -42.224  13.342  20.501  0.00  0.00     0.343 A 
ATOM      7  C   UNL d   1     -41.398  14.078  21.423  0.00  0.00     0.287 A 
ATOM      8  N   UNL d   1     -40.335  14.085  19.585  0.00  0.00    -0.207 NA
ATOM      9  C   UNL d   1     -39.806  14.517  20.049  0.00  0.00     0.167 A 
ATOM     10  O   UNL d   1     -42.919  12.917  20.347  0.00  0.00    -0.245 OA
ATOM     11  O   UNL d   1     -41.263  14.384  22.169  0.00  0.00    -0.265 OA
ATOM     12  C   UNL d   1     -41.809  13.148  19.151  0.00  0.00     0.105 C 
ATOM     13  C   UNL d   1     -42.645  13.535  21.857  0.00  0.00     0.107 C 
ENDROOT
BRANCH   9  14
ATOM     14  C   UNL d   1     -39.084  14.830  19.795  0.00  0.00     0.118 C 
BRANCH  14  15
ATOM     15  N   UNL d   1     -38.931  14.910  18.995  0.00  0.00    -0.297 N 
ATOM     16  C   UNL d   1     -39.308  15.496  18.551  0.00  0.00     0.100 A 
ATOM     17  C   UNL d   1     -39.159  15.583  17.743  0.00  0.00     0.100 A 
ATOM     18  N   UNL d   1     -38.620  15.073  17.369  0.00  0.00    -0.301 N 
ATOM     19  C   UNL d   1     -38.238  14.483  17.809  0.00  0.00     0.100 A 
ATOM     20  C   UNL d   1     -38.395  14.405  18.620  0.00  0.00     0.100 A 
BRANCH  18  21
ATOM     21  C   UNL d   1     -38.469  15.157  16.562  0.00  0.00     0.064 A 
ATOM     22  C   UNL d   1     -38.100  15.833  16.288  0.00  0.00     0.020 A 
ATOM     23  C   UNL d   1     -37.946  15.921  15.476  0.00  0.00     0.026 A 
ATOM     24  C   UNL d   1     -38.167  15.324  14.949  0.00  0.00     0.094 A 
ATOM     25  C   UNL d   1     -38.540  14.641  15.237  0.00  0.00     0.026 A 
ATOM     26  C   UNL d   1     -38.692  14.558  16.044  0.00  0.00     0.020 A 
BRANCH  24  27
ATOM     27  O   UNL d   1     -38.021  15.397  14.144  0.00  0.00    -0.328 OA
ATOM     28  C   UNL d   1     -37.940  14.714  13.686  0.00  0.00     0.181 C 
ENDBRANCH  24  27
ENDBRANCH  18  21
ENDBRANCH  14  15
ENDBRANCH   9  14
BRANCH   4  29
ATOM     29  C   UNL d   1     -39.773  14.970  21.450  0.00  0.00     0.082 C 
BRANCH  29  30
ATOM     30  C   UNL d   1     -39.185  14.598  21.873  0.00  0.00     0.018 A 
ATOM     31  C   UNL d   1     -38.752  15.032  22.413  0.00  0.00     0.001 A 
ATOM     32  C   UNL d   1     -38.899  15.832  22.536  0.00  0.00     0.000 C 
ATOM     33  C   UNL d   1     -38.149  14.656  22.849  0.00  0.00     0.000 A 
ATOM     34  C   UNL d   1     -37.992  13.854  22.736  0.00  0.00     0.000 A 
ATOM     35  C   UNL d   1     -38.430  13.423  22.192  0.00  0.00     0.000 A 
ATOM     36  C   UNL d   1     -39.026  13.792  21.760  0.00  0.00     0.002 A 
ENDBRANCH  29  30
ENDBRANCH   4  29
TORSDOF 6
ENDMDL
