MODEL 1
REMARK VINA RESULT:      30.9      0.000      0.000
REMARK  3 active torsions:
REMARK  status: ('A' for Active; 'I' for Inactive)
REMARK    1  A    between atoms: C_6  and  C_1 
REMARK    2  A    between atoms: C_8  and  C_3 
REMARK    3  A    between atoms: C_9  and  C_4 
ROOT
ATOM      1  C   UNL d   1      14.793  13.434  -1.360  0.00  0.00     0.306 A 
ATOM      2  N   UNL d   1      14.791  14.253  -1.357  0.00  0.00    -0.152 NA
ATOM      3  C   UNL d   1      14.456  13.021  -1.990  0.00  0.00     0.114 A 
ATOM      4  C   UNL d   1      14.114  13.426  -2.621  0.00  0.00     0.094 A 
ATOM      5  C   UNL d   1      14.453  14.662  -1.982  0.00  0.00     0.371 A 
ATOM      6  N   UNL d   1      14.116  14.250  -2.612  0.00  0.00    -0.191 NA
ATOM      7  O   UNL d   1      14.449  15.489  -1.983  0.00  0.00    -0.242 OA
ATOM      8  O   UNL d   1      14.794  12.609  -1.364  0.00  0.00    -0.266 OA
ENDROOT
BRANCH   4   9
ATOM      9  C   UNL d   1      13.779  13.016  -3.248  0.00  0.00     0.018 A 
ATOM     10  C   UNL d   1      13.937  13.243  -4.025  0.00  0.00     0.004 A 
ATOM     11  C   UNL d   1      13.598  12.829  -4.659  0.00  0.00     0.030 A 
ATOM     12  C   UNL d   1      13.104  12.191  -4.515  0.00  0.00     0.140 A 
ATOM     13  C   UNL d   1      12.944  11.960  -3.729  0.00  0.00     0.030 A 
ATOM     14  F   UNL d   1      12.769  11.781  -5.142  0.00  0.00    -0.204 F 
ATOM     15  C   UNL d   1      13.283  12.376  -3.108  0.00  0.00     0.004 A 
ENDBRANCH   4   9
BRANCH   3  16
ATOM     16  C   UNL d   1      14.458  12.198  -1.991  0.00  0.00     0.202 C 
ATOM     17  O   UNL d   1      15.064  11.779  -2.372  0.00  0.00    -0.286 OA
ATOM     18  C   UNL d   1      13.852  11.781  -1.610  0.00  0.00     0.045 C 
ENDBRANCH   3  16
BRANCH   1  19
ATOM     19  C   UNL d   1      15.170  13.644  -0.658  0.00  0.00     0.470 C 
ATOM     20  F   UNL d   1      15.526  13.822  -0.031  0.00  0.00    -0.162 F 
ATOM     21  F   UNL d   1      15.954  13.411  -0.381  0.00  0.00    -0.162 F 
ATOM     22  F   UNL d   1      14.896  14.143  -0.017  0.00  0.00    -0.162 F 
ENDBRANCH   1  19
TORSDOF 3
ENDMDL
MODEL 2
REMARK VINA RESULT:      32.1      8.550      9.323
REMARK  3 active torsions:
REMARK  status: ('A' for Active; 'I' for Inactive)
REMARK    1  A    between atoms: C_6  and  C_1 
REMARK    2  A    between atoms: C_8  and  C_3 
REMARK    3  A    between atoms: C_9  and  C_4 
ROOT
ATOM      1  C   UNL d   1      22.798  13.103  -1.306  0.00  0.00     0.306 A 
ATOM      2  N   UNL d   1      23.359  13.186  -0.714  0.00  0.00    -0.152 NA
ATOM      3  C   UNL d   1      23.034  12.921  -2.076  0.00  0.00     0.114 A 
ATOM      4  C   UNL d   1      23.831  12.821  -2.258  0.00  0.00     0.094 A 
ATOM      5  C   UNL d   1      24.154  13.088  -0.889  0.00  0.00     0.371 A 
ATOM      6  N   UNL d   1      24.389  12.907  -1.658  0.00  0.00    -0.191 NA
ATOM      7  O   UNL d   1      24.723  13.172  -0.294  0.00  0.00    -0.242 OA
ATOM      8  O   UNL d   1      22.235  13.018  -1.903  0.00  0.00    -0.266 OA
ENDROOT
BRANCH   4   9
ATOM      9  C   UNL d   1      24.065  12.641  -3.024  0.00  0.00     0.018 A 
ATOM     10  C   UNL d   1      23.853  13.134  -3.650  0.00  0.00     0.004 A 
ATOM     11  C   UNL d   1      24.089  12.951  -4.424  0.00  0.00     0.030 A 
ATOM     12  C   UNL d   1      24.534  12.279  -4.569  0.00  0.00     0.140 A 
ATOM     13  C   UNL d   1      24.749  11.779  -3.936  0.00  0.00     0.030 A 
ATOM     14  F   UNL d   1      24.768  12.098  -5.335  0.00  0.00    -0.204 F 
ATOM     15  C   UNL d   1      24.511  11.967  -3.173  0.00  0.00     0.004 A 
ENDBRANCH   4   9
BRANCH   3  16
ATOM     16  C   UNL d   1      22.469  12.837  -2.669  0.00  0.00     0.202 C 
ATOM     17  O   UNL d   1      22.253  12.085  -2.942  0.00  0.00    -0.286 OA
ATOM     18  C   UNL d   1      22.112  13.509  -2.998  0.00  0.00     0.045 C 
ENDBRANCH   3  16
BRANCH   1  19
ATOM     19  C   UNL d   1      22.365  13.280  -0.627  0.00  0.00     0.470 C 
ATOM     20  F   UNL d   1      21.969  13.420  -0.014  0.00  0.00    -0.162 F 
ATOM     21  F   UNL d   1      21.891  12.746  -0.141  0.00  0.00    -0.162 F 
ATOM     22  F   UNL d   1      22.265  14.027  -0.220  0.00  0.00    -0.162 F 
ENDBRANCH   1  19
TORSDOF 3
ENDMDL
MODEL 3
REMARK VINA RESULT:      32.2      0.998      1.752
REMARK  3 active torsions:
REMARK  status: ('A' for Active; 'I' for Inactive)
REMARK    1  A    between atoms: C_6  and  C_1 
REMARK    2  A    between atoms: C_8  and  C_3 
REMARK    3  A    between atoms: C_9  and  C_4 
ROOT
ATOM      1  C   UNL d   1      14.708  13.668  -1.285  0.00  0.00     0.306 A 
ATOM      2  N   UNL d   1      14.793  13.115  -0.686  0.00  0.00    -0.152 NA
ATOM      3  C   UNL d   1      14.382  13.446  -2.010  0.00  0.00     0.114 A 
ATOM      4  C   UNL d   1      14.141  12.669  -2.140  0.00  0.00     0.094 A 
ATOM      5  C   UNL d   1      14.555  12.341  -0.809  0.00  0.00     0.371 A 
ATOM      6  N   UNL d   1      14.230  12.119  -1.534  0.00  0.00    -0.191 NA
ATOM      7  O   UNL d   1      14.640  11.779  -0.208  0.00  0.00    -0.242 OA
ATOM      8  O   UNL d   1      14.621  14.224  -1.888  0.00  0.00    -0.266 OA
ENDROOT
BRANCH   4   9
ATOM      9  C   UNL d   1      13.818  12.448  -2.862  0.00  0.00     0.018 A 
ATOM     10  C   UNL d   1      13.102  12.038  -2.887  0.00  0.00     0.004 A 
ATOM     11  C   UNL d   1      12.775  11.814  -3.617  0.00  0.00     0.030 A 
ATOM     12  C   UNL d   1      13.162  12.001  -4.314  0.00  0.00     0.140 A 
ATOM     13  C   UNL d   1      13.886  12.416  -4.289  0.00  0.00     0.030 A 
ATOM     14  F   UNL d   1      12.839  11.780  -5.036  0.00  0.00    -0.204 F 
ATOM     15  C   UNL d   1      14.203  12.633  -3.563  0.00  0.00     0.004 A 
ENDBRANCH   4   9
BRANCH   3  16
ATOM     16  C   UNL d   1      14.297  14.002  -2.610  0.00  0.00     0.202 C 
ATOM     17  O   UNL d   1      14.921  14.157  -3.133  0.00  0.00    -0.286 OA
ATOM     18  C   UNL d   1      13.583  14.414  -2.695  0.00  0.00     0.045 C 
ENDBRANCH   3  16
BRANCH   1  19
ATOM     19  C   UNL d   1      15.044  14.085  -0.658  0.00  0.00     0.470 C 
ATOM     20  F   UNL d   1      15.329  14.467  -0.088  0.00  0.00    -0.162 F 
ATOM     21  F   UNL d   1      14.650  14.590  -0.079  0.00  0.00    -0.162 F 
ATOM     22  F   UNL d   1      15.863  14.133  -0.408  0.00  0.00    -0.162 F 
ENDBRANCH   1  19
TORSDOF 3
ENDMDL
