MODEL 1
REMARK VINA RESULT:      20.7      0.000      0.000
REMARK  7 active torsions:
REMARK  status: ('A' for Active; 'I' for Inactive)
REMARK    1  A    between atoms: C_7  and  C_1 
REMARK    2  A    between atoms: C_8  and  C_3 
REMARK    3  A    between atoms: O_17  and  C_7 
REMARK    4  A    between atoms: N_11  and  C_10 
REMARK    5  A    between atoms: C_19  and  N_11 
REMARK    6  A    between atoms: C_20  and  N_11 
REMARK    7  A    between atoms: C_21  and  O_17 
ROOT
ATOM      1  C   UNL d   1      46.331 -18.696  43.117  0.00  0.00     0.099 A 
ATOM      2  C   UNL d   1      46.489 -19.471  42.934  0.00  0.00     0.093 A 
ATOM      3  C   UNL d   1      46.275 -18.449  43.915  0.00  0.00     0.093 A 
ATOM      4  C   UNL d   1      46.539 -19.770  44.342  0.00  0.00     0.369 A 
ATOM      5  N   UNL d   1      46.595 -20.017  43.544  0.00  0.00    -0.191 NA
ATOM      6  N   UNL d   1      46.378 -18.981  44.519  0.00  0.00    -0.191 NA
ATOM      7  O   UNL d   1      46.647 -20.330  44.955  0.00  0.00    -0.242 OA
ATOM      8  C   UNL d   1      46.545 -19.715  42.147  0.00  0.00     0.021 C 
ENDROOT
BRANCH   3   9
ATOM      9  C   UNL d   1      46.114 -17.659  44.091  0.00  0.00     0.018 A 
ATOM     10  C   UNL d   1      45.491 -17.468  44.596  0.00  0.00     0.003 A 
ATOM     11  C   UNL d   1      45.330 -16.679  44.772  0.00  0.00     0.018 A 
ATOM     12  C   UNL d   1      45.784 -16.072  44.451  0.00  0.00     0.064 A 
ATOM     13  C   UNL d   1      46.407 -16.263  43.946  0.00  0.00     0.018 A 
ATOM     14  C   UNL d   1      46.567 -17.052  43.770  0.00  0.00     0.003 A 
BRANCH  12  15
ATOM     15  N   UNL d   1      45.611 -15.267  44.638  0.00  0.00    -0.304 N 
BRANCH  15  16
ATOM     16  C   UNL d   1      46.191 -14.778  44.946  0.00  0.00     0.080 C 
ATOM     17  C   UNL d   1      46.206 -13.979  44.756  0.00  0.00     0.021 C 
ENDBRANCH  15  16
BRANCH  15  18
ATOM     18  C   UNL d   1      44.857 -14.985  44.506  0.00  0.00     0.080 C 
ATOM     19  C   UNL d   1      44.622 -14.291  44.862  0.00  0.00     0.021 C 
ENDBRANCH  15  18
ENDBRANCH  12  15
ENDBRANCH   3   9
BRANCH   1  20
ATOM     20  C   UNL d   1      46.223 -18.140  42.488  0.00  0.00     0.303 C 
ATOM     21  O   UNL d   1      46.643 -17.430  42.497  0.00  0.00    -0.259 OA
BRANCH  20  22
ATOM     22  O   UNL d   1      45.705 -18.304  41.872  0.00  0.00    -0.271 OA
BRANCH  22  23
ATOM     23  C   UNL d   1      45.863 -18.021  41.113  0.00  0.00     0.126 C 
ATOM     24  C   UNL d   1      45.447 -18.321  40.465  0.00  0.00     0.029 C 
ENDBRANCH  22  23
ENDBRANCH  20  22
ENDBRANCH   1  20
TORSDOF 7
ENDMDL
