MODEL 1
REMARK VINA RESULT:      12.5      0.000      0.000
REMARK  4 active torsions:
REMARK  status: ('A' for Active; 'I' for Inactive)
REMARK    1  A    between atoms: N_7  and  C_1 
REMARK    2  A    between atoms: C_11  and  C_2 
REMARK    3  A    between atoms: N_6  and  C_12 
REMARK       I    between atoms: C_8  and  N_7 
REMARK    4  A    between atoms: C_14  and  C_8 
REMARK       I    between atoms: N_26  and  C_11 
ROOT
ATOM      1  N   UNL d   1     -41.811-122.584 -52.341  0.00  0.00    -0.201 NA
ATOM      2  C   UNL d   1     -42.579-122.193 -51.818  0.00  0.00     0.280 C 
ATOM      3  O   UNL d   1     -43.151-121.792 -51.980  0.00  0.00    -0.265 OA
ENDROOT
BRANCH   1   4
ATOM      4  C   UNL d   1     -41.885-122.387 -53.088  0.00  0.00     0.119 A 
ATOM      5  C   UNL d   1     -41.849-121.789 -53.634  0.00  0.00     0.082 A 
ATOM      6  C   UNL d   1     -42.026-122.105 -54.375  0.00  0.00     0.013 A 
ATOM      7  C   UNL d   1     -42.073-121.767 -55.123  0.00  0.00     0.001 A 
ATOM      8  C   UNL d   1     -42.173-122.915 -54.270  0.00  0.00     0.031 A 
ATOM      9  C   UNL d   1     -42.268-122.235 -55.779  0.00  0.00     0.000 A 
ATOM     10  C   UNL d   1     -42.413-123.040 -55.670  0.00  0.00     0.001 A 
ATOM     11  C   UNL d   1     -42.367-123.378 -54.925  0.00  0.00     0.006 A 
ATOM     12  C   UNL d   1     -42.608-123.514 -56.318  0.00  0.00     0.000 C 
ATOM     13  S   UNL d   1     -42.086-123.088 -53.477  0.00  0.00    -0.068 SA
BRANCH   5  14
ATOM     14  C   UNL d   1     -41.665-121.002 -53.470  0.00  0.00     0.281 C 
ATOM     15  O   UNL d   1     -41.130-120.814 -52.871  0.00  0.00    -0.265 OA
ATOM     16  N   UNL d   1     -42.020-120.398 -53.909  0.00  0.00    -0.205 NA
ATOM     17  C   UNL d   1     -41.841-119.608 -53.750  0.00  0.00     0.123 C 
ENDBRANCH   5  14
ENDBRANCH   1   4
BRANCH   2  18
ATOM     18  C   UNL d   1     -42.540-122.378 -51.016  0.00  0.00     0.058 A 
ATOM     19  C   UNL d   1     -41.878-122.756 -50.710  0.00  0.00     0.006 A 
ATOM     20  C   UNL d   1     -41.840-122.939 -49.914  0.00  0.00     0.018 A 
ATOM     21  C   UNL d   1     -42.452-122.754 -49.407  0.00  0.00     0.070 A 
ATOM     22  C   UNL d   1     -43.130-122.369 -49.712  0.00  0.00     0.018 A 
ATOM     23  C   UNL d   1     -43.180-122.181 -50.505  0.00  0.00     0.006 A 
BRANCH  21  24
ATOM     24  N   UNL d   1     -42.410-122.941 -48.606  0.00  0.00    -0.242 N 
ATOM     25  C   UNL d   1     -41.828-123.431 -48.272  0.00  0.00     0.267 A 
ATOM     26  C   UNL d   1     -41.969-123.487 -47.453  0.00  0.00     0.066 A 
ATOM     27  O   UNL d   1     -41.197-123.812 -48.691  0.00  0.00    -0.267 OA
ATOM     28  C   UNL d   1     -42.634-123.032 -47.294  0.00  0.00     0.066 A 
ATOM     29  C   UNL d   1     -42.903-122.699 -47.990  0.00  0.00     0.267 A 
ATOM     30  O   UNL d   1     -43.561-122.202 -48.069  0.00  0.00    -0.267 OA
ENDBRANCH  21  24
ENDBRANCH   2  18
TORSDOF 4
ENDMDL
