MODEL 1
REMARK VINA RESULT:      88.1      0.000      0.000
REMARK  3 active torsions:
REMARK  status: ('A' for Active; 'I' for Inactive)
REMARK    1  A    between atoms: N_9  and  C_3 
REMARK    2  A    between atoms: C_14  and  C_5 
REMARK       I    between atoms: C_10  and  N_11 
REMARK    3  A    between atoms: C_13  and  C_10 
ROOT
ATOM      1  N   UNL d   1     -50.271  26.414  33.790  0.00  0.00    -0.196 N 
ATOM      2  C   UNL d   1     -50.516  25.644  33.646  0.00  0.00     0.167 A 
ATOM      3  C   UNL d   1     -49.468  26.603  33.786  0.00  0.00     0.152 A 
ATOM      4  N   UNL d   1     -50.938  26.873  33.920  0.00  0.00    -0.163 NA
ATOM      5  C   UNL d   1     -51.334  25.624  33.686  0.00  0.00     0.055 A 
ATOM      6  C   UNL d   1     -51.592  26.377  33.854  0.00  0.00     0.104 A 
ATOM      7  N   UNL d   1     -49.960  25.052  33.495  0.00  0.00    -0.227 NA
ATOM      8  C   UNL d   1     -48.904  26.009  33.634  0.00  0.00     0.057 A 
ATOM      9  C   UNL d   1     -49.149  25.239  33.490  0.00  0.00     0.086 A 
ATOM     10  C   UNL d   1     -52.386  26.598  33.942  0.00  0.00     0.023 C 
ATOM     11  C   UNL d   1     -48.575  24.646  33.338  0.00  0.00     0.021 C 
ENDROOT
BRANCH   3  12
ATOM     12  N   UNL d   1     -49.223  27.373  33.930  0.00  0.00    -0.286 N 
ATOM     13  C   UNL d   1     -48.738  27.547  34.577  0.00  0.00     0.101 A 
ATOM     14  C   UNL d   1     -48.495  28.317  34.718  0.00  0.00     0.102 A 
ATOM     15  N   UNL d   1     -48.737  28.928  34.209  0.00  0.00    -0.267 N 
ATOM     16  C   UNL d   1     -48.495  29.715  34.345  0.00  0.00     0.288 C 
ATOM     17  C   UNL d   1     -49.216  28.757  33.569  0.00  0.00     0.102 A 
ATOM     18  O   UNL d   1     -48.726  30.325  33.851  0.00  0.00    -0.264 OA
ATOM     19  C   UNL d   1     -49.461  27.977  33.427  0.00  0.00     0.101 A 
BRANCH  16  20
ATOM     20  C   UNL d   1     -48.007  29.882  34.999  0.00  0.00     0.156 A 
ATOM     21  O   UNL d   1     -47.773  29.428  35.640  0.00  0.00    -0.300 OA
ATOM     22  C   UNL d   1     -47.285  29.897  36.108  0.00  0.00     0.123 A 
ATOM     23  C   UNL d   1     -47.215  30.624  35.769  0.00  0.00     0.029 A 
ATOM     24  C   UNL d   1     -47.666  30.625  35.069  0.00  0.00     0.032 A 
ENDBRANCH  16  20
ENDBRANCH   3  12
BRANCH   5  25
ATOM     25  C   UNL d   1     -51.880  25.013  33.591  0.00  0.00     0.004 A 
ATOM     26  C   UNL d   1     -52.696  25.182  33.611  0.00  0.00     0.001 A 
ATOM     27  C   UNL d   1     -53.242  24.572  33.516  0.00  0.00     0.011 A 
ATOM     28  C   UNL d   1     -52.984  23.797  33.401  0.00  0.00     0.058 A 
ATOM     29  C   UNL d   1     -52.172  23.626  33.381  0.00  0.00     0.011 A 
ATOM     30 CL   UNL d   1     -53.536  23.188  33.306  0.00  0.00    -0.082 Cl
ATOM     31  C   UNL d   1     -51.626  24.236  33.476  0.00  0.00     0.001 A 
ENDBRANCH   5  25
TORSDOF 3
ENDMDL
