MODEL 1
REMARK VINA RESULT:      -5.0      0.000      0.000
REMARK  3 active torsions:
REMARK  status: ('A' for Active; 'I' for Inactive)
REMARK    1  A    between atoms: N_2  and  C_1 
REMARK    2  A    between atoms: N_3  and  C_1 
REMARK       I    between atoms: C_4  and  N_3 
REMARK    3  A    between atoms: C_9  and  C_4 
ROOT
ATOM      1  C   UNL d   1      58.348   0.243  30.236  0.00  0.00     0.209 C 
ATOM      2  S   UNL d   1      57.874   0.614  29.684  0.00  0.00    -0.038 SA
ENDROOT
BRANCH   1   3
ATOM      3  N   UNL d   1      59.150   0.161  30.093  0.00  0.00    -0.282 N 
ATOM      4  C   UNL d   1      59.421  -0.433  29.586  0.00  0.00     0.066 A 
ATOM      5  C   UNL d   1      60.230  -0.508  29.448  0.00  0.00     0.016 A 
ATOM      6  C   UNL d   1      58.885  -0.947  29.222  0.00  0.00     0.018 A 
ATOM      7  C   UNL d   1      60.509  -1.096  28.946  0.00  0.00     0.001 A 
ATOM      8  C   UNL d   1      60.773   0.012  29.817  0.00  0.00     0.003 A 
ATOM      9  C   UNL d   1      59.979  -1.603  28.586  0.00  0.00     0.000 A 
ATOM     10  C   UNL d   1      59.166  -1.529  28.724  0.00  0.00     0.002 A 
ATOM     11  C   UNL d   1      60.500   0.601  30.319  0.00  0.00     0.019 A 
ATOM     12  C   UNL d   1      59.693   0.681  30.462  0.00  0.00     0.082 A 
ENDBRANCH   1   3
BRANCH   1  13
ATOM     13  N   UNL d   1      58.012  -0.046  30.931  0.00  0.00    -0.180 NA
ATOM     14  C   UNL d   1      57.240   0.180  31.142  0.00  0.00     0.281 C 
ATOM     15  O   UNL d   1      56.822   0.682  30.665  0.00  0.00    -0.265 OA
BRANCH  14  16
ATOM     16  C   UNL d   1      56.917  -0.117  31.842  0.00  0.00     0.058 A 
ATOM     17  C   UNL d   1      56.909   0.323  32.542  0.00  0.00     0.005 A 
ATOM     18  C   UNL d   1      56.588   0.024  33.233  0.00  0.00     0.000 A 
ATOM     19  C   UNL d   1      56.259  -0.746  33.232  0.00  0.00     0.000 A 
ATOM     20  C   UNL d   1      56.263  -1.186  32.545  0.00  0.00     0.000 A 
ATOM     21  C   UNL d   1      56.591  -0.886  31.830  0.00  0.00     0.005 A 
ENDBRANCH  14  16
ENDBRANCH   1  13
TORSDOF 3
ENDMDL
MODEL 2
REMARK VINA RESULT:      -4.9      0.393      1.495
REMARK  3 active torsions:
REMARK  status: ('A' for Active; 'I' for Inactive)
REMARK    1  A    between atoms: N_2  and  C_1 
REMARK    2  A    between atoms: N_3  and  C_1 
REMARK       I    between atoms: C_4  and  N_3 
REMARK    3  A    between atoms: C_9  and  C_4 
ROOT
ATOM      1  C   UNL d   1      58.204  -0.097  29.991  0.00  0.00     0.209 C 
ATOM      2  S   UNL d   1      57.985   0.616  29.660  0.00  0.00    -0.038 SA
ENDROOT
BRANCH   1   3
ATOM      3  N   UNL d   1      58.739  -0.579  29.601  0.00  0.00    -0.282 N 
ATOM      4  C   UNL d   1      59.541  -0.379  29.585  0.00  0.00     0.066 A 
ATOM      5  C   UNL d   1      60.072  -0.869  29.190  0.00  0.00     0.016 A 
ATOM      6  C   UNL d   1      59.807   0.307  29.963  0.00  0.00     0.018 A 
ATOM      7  C   UNL d   1      60.871  -0.678  29.170  0.00  0.00     0.001 A 
ATOM      8  C   UNL d   1      59.803  -1.564  28.807  0.00  0.00     0.003 A 
ATOM      9  C   UNL d   1      61.133  -0.001  29.543  0.00  0.00     0.000 A 
ATOM     10  C   UNL d   1      60.601   0.493  29.941  0.00  0.00     0.002 A 
ATOM     11  C   UNL d   1      59.006  -1.759  28.825  0.00  0.00     0.019 A 
ATOM     12  C   UNL d   1      58.470  -1.273  29.218  0.00  0.00     0.082 A 
ENDBRANCH   1   3
BRANCH   1  13
ATOM     13  N   UNL d   1      57.884  -0.324  30.717  0.00  0.00    -0.180 NA
ATOM     14  C   UNL d   1      57.218   0.075  31.017  0.00  0.00     0.281 C 
ATOM     15  O   UNL d   1      56.888   0.681  30.597  0.00  0.00    -0.265 OA
BRANCH  14  16
ATOM     16  C   UNL d   1      56.908  -0.164  31.745  0.00  0.00     0.058 A 
ATOM     17  C   UNL d   1      56.565  -0.909  31.850  0.00  0.00     0.005 A 
ATOM     18  C   UNL d   1      56.259  -1.141  32.573  0.00  0.00     0.000 A 
ATOM     19  C   UNL d   1      56.295  -0.613  33.222  0.00  0.00     0.000 A 
ATOM     20  C   UNL d   1      56.633   0.124  33.124  0.00  0.00     0.000 A 
ATOM     21  C   UNL d   1      56.949   0.370  32.385  0.00  0.00     0.005 A 
ENDBRANCH  14  16
ENDBRANCH   1  13
TORSDOF 3
ENDMDL
MODEL 3
REMARK VINA RESULT:      -4.0      1.008      4.058
REMARK  3 active torsions:
REMARK  status: ('A' for Active; 'I' for Inactive)
REMARK    1  A    between atoms: N_2  and  C_1 
REMARK    2  A    between atoms: N_3  and  C_1 
REMARK       I    between atoms: C_4  and  N_3 
REMARK    3  A    between atoms: C_9  and  C_4 
ROOT
ATOM      1  C   UNL d   1      57.434   0.120  31.209  0.00  0.00     0.209 C 
ATOM      2  S   UNL d   1      57.027   0.665  30.756  0.00  0.00    -0.038 SA
ENDROOT
BRANCH   1   3
ATOM      3  N   UNL d   1      57.389   0.156  32.026  0.00  0.00    -0.282 N 
ATOM      4  C   UNL d   1      56.810  -0.278  32.427  0.00  0.00     0.066 A 
ATOM      5  C   UNL d   1      56.772  -0.236  33.249  0.00  0.00     0.016 A 
ATOM      6  C   UNL d   1      56.276  -0.749  32.006  0.00  0.00     0.018 A 
ATOM      7  C   UNL d   1      56.200  -0.664  33.656  0.00  0.00     0.001 A 
ATOM      8  C   UNL d   1      57.312   0.241  33.674  0.00  0.00     0.003 A 
ATOM      9  C   UNL d   1      55.673  -1.130  33.240  0.00  0.00     0.000 A 
ATOM     10  C   UNL d   1      55.711  -1.172  32.414  0.00  0.00     0.002 A 
ATOM     11  C   UNL d   1      57.885   0.670  33.272  0.00  0.00     0.019 A 
ATOM     12  C   UNL d   1      57.929   0.633  32.451  0.00  0.00     0.082 A 
ENDBRANCH   1   3
BRANCH   1  13
ATOM     13  N   UNL d   1      57.887  -0.460  30.836  0.00  0.00    -0.180 NA
ATOM     14  C   UNL d   1      58.131  -0.351  30.049  0.00  0.00     0.281 C 
ATOM     15  O   UNL d   1      57.924   0.322  29.652  0.00  0.00    -0.265 OA
BRANCH  14  16
ATOM     16  C   UNL d   1      58.585  -0.941  29.689  0.00  0.00     0.058 A 
ATOM     17  C   UNL d   1      58.283  -1.698  29.547  0.00  0.00     0.005 A 
ATOM     18  C   UNL d   1      58.736  -2.279  29.191  0.00  0.00     0.000 A 
ATOM     19  C   UNL d   1      59.523  -2.104  28.964  0.00  0.00     0.000 A 
ATOM     20  C   UNL d   1      59.826  -1.359  29.102  0.00  0.00     0.000 A 
ATOM     21  C   UNL d   1      59.368  -0.756  29.468  0.00  0.00     0.005 A 
ENDBRANCH  14  16
ENDBRANCH   1  13
TORSDOF 3
ENDMDL
MODEL 4
REMARK VINA RESULT:      -3.8      1.356      1.521
REMARK  3 active torsions:
REMARK  status: ('A' for Active; 'I' for Inactive)
REMARK    1  A    between atoms: N_2  and  C_1 
REMARK    2  A    between atoms: N_3  and  C_1 
REMARK       I    between atoms: C_4  and  N_3 
REMARK    3  A    between atoms: C_9  and  C_4 
ROOT
ATOM      1  C   UNL d   1      58.171   0.118  30.906  0.00  0.00     0.209 C 
ATOM      2  S   UNL d   1      58.819   0.372  31.335  0.00  0.00    -0.038 SA
ENDROOT
BRANCH   1   3
ATOM      3  N   UNL d   1      58.232   0.024  30.095  0.00  0.00    -0.282 N 
ATOM      4  C   UNL d   1      58.426  -0.714  29.777  0.00  0.00     0.066 A 
ATOM      5  C   UNL d   1      58.485  -0.798  28.960  0.00  0.00     0.016 A 
ATOM      6  C   UNL d   1      58.559  -1.360  30.275  0.00  0.00     0.018 A 
ATOM      7  C   UNL d   1      58.677  -1.528  28.635  0.00  0.00     0.001 A 
ATOM      8  C   UNL d   1      58.349  -0.144  28.455  0.00  0.00     0.003 A 
ATOM      9  C   UNL d   1      58.809  -2.167  29.127  0.00  0.00     0.000 A 
ATOM     10  C   UNL d   1      58.750  -2.083  29.949  0.00  0.00     0.002 A 
ATOM     11  C   UNL d   1      58.157   0.587  28.775  0.00  0.00     0.019 A 
ATOM     12  C   UNL d   1      58.097   0.679  29.591  0.00  0.00     0.082 A 
ENDBRANCH   1   3
BRANCH   1  13
ATOM     13  N   UNL d   1      57.463  -0.042  31.298  0.00  0.00    -0.180 NA
ATOM     14  C   UNL d   1      57.376   0.169  32.098  0.00  0.00     0.281 C 
ATOM     15  O   UNL d   1      57.984   0.531  32.488  0.00  0.00    -0.265 OA
BRANCH  14  16
ATOM     16  C   UNL d   1      56.660   0.003  32.476  0.00  0.00     0.058 A 
ATOM     17  C   UNL d   1      56.137   0.601  32.705  0.00  0.00     0.005 A 
ATOM     18  C   UNL d   1      55.430   0.431  33.079  0.00  0.00     0.000 A 
ATOM     19  C   UNL d   1      55.230  -0.367  33.235  0.00  0.00     0.000 A 
ATOM     20  C   UNL d   1      55.742  -0.962  33.012  0.00  0.00     0.000 A 
ATOM     21  C   UNL d   1      56.471  -0.796  32.626  0.00  0.00     0.005 A 
ENDBRANCH  14  16
ENDBRANCH   1  13
TORSDOF 3
ENDMDL
MODEL 5
REMARK VINA RESULT:      -3.3      1.555      4.651
REMARK  3 active torsions:
REMARK  status: ('A' for Active; 'I' for Inactive)
REMARK    1  A    between atoms: N_2  and  C_1 
REMARK    2  A    between atoms: N_3  and  C_1 
REMARK       I    between atoms: C_4  and  N_3 
REMARK    3  A    between atoms: C_9  and  C_4 
ROOT
ATOM      1  C   UNL d   1      56.792  -0.429  32.344  0.00  0.00     0.209 C 
ATOM      2  S   UNL d   1      56.356  -1.114  32.252  0.00  0.00    -0.038 SA
ENDROOT
BRANCH   1   3
ATOM      3  N   UNL d   1      56.825  -0.064  33.077  0.00  0.00    -0.282 N 
ATOM      4  C   UNL d   1      56.126   0.124  33.476  0.00  0.00     0.066 A 
ATOM      5  C   UNL d   1      56.169   0.491  34.213  0.00  0.00     0.016 A 
ATOM      6  C   UNL d   1      55.392  -0.054  33.140  0.00  0.00     0.018 A 
ATOM      7  C   UNL d   1      55.480   0.682  34.617  0.00  0.00     0.001 A 
ATOM      8  C   UNL d   1      56.912   0.671  34.554  0.00  0.00     0.003 A 
ATOM      9  C   UNL d   1      54.755   0.506  34.285  0.00  0.00     0.000 A 
ATOM     10  C   UNL d   1      54.711   0.137  33.544  0.00  0.00     0.002 A 
ATOM     11  C   UNL d   1      57.603   0.482  34.154  0.00  0.00     0.019 A 
ATOM     12  C   UNL d   1      57.568   0.116  33.418  0.00  0.00     0.082 A 
ENDBRANCH   1   3
BRANCH   1  13
ATOM     13  N   UNL d   1      57.194  -0.113  31.697  0.00  0.00    -0.180 NA
ATOM     14  C   UNL d   1      57.381  -0.600  31.049  0.00  0.00     0.281 C 
ATOM     15  O   UNL d   1      57.169  -1.380  31.056  0.00  0.00    -0.265 OA
BRANCH  14  16
ATOM     16  C   UNL d   1      57.784  -0.269  30.408  0.00  0.00     0.058 A 
ATOM     17  C   UNL d   1      57.465   0.352  29.965  0.00  0.00     0.005 A 
ATOM     18  C   UNL d   1      57.868   0.677  29.331  0.00  0.00     0.000 A 
ATOM     19  C   UNL d   1      58.621   0.374  29.125  0.00  0.00     0.000 A 
ATOM     20  C   UNL d   1      58.942  -0.239  29.558  0.00  0.00     0.000 A 
ATOM     21  C   UNL d   1      58.534  -0.579  30.212  0.00  0.00     0.005 A 
ENDBRANCH  14  16
ENDBRANCH   1  13
TORSDOF 3
ENDMDL
