MODEL 1
REMARK VINA RESULT:       2.6      0.000      0.000
REMARK  6 active torsions:
REMARK  status: ('A' for Active; 'I' for Inactive)
REMARK    1  A    between atoms: C_9  and  N_1 
REMARK    2  A    between atoms: N_2  and  C_8 
REMARK       I    between atoms: C_3  and  N_5 
REMARK    3  A    between atoms: C_12  and  C_3 
REMARK    4  A    between atoms: C_4  and  C_11 
REMARK       I    between atoms: N_6  and  C_4 
REMARK    5  A    between atoms: N_5  and  C_7 
REMARK    6  A    between atoms: C_10  and  N_6 
ROOT
ATOM      1  C   UNL d   1     -41.412-121.685 -51.980  0.00  0.00     0.121 A 
ATOM      2  C   UNL d   1     -41.234-121.923 -52.749  0.00  0.00     0.105 A 
ATOM      3  N   UNL d   1     -41.454-120.310 -52.357  0.00  0.00    -0.241 NA
ATOM      4  C   UNL d   1     -41.165-121.321 -53.340  0.00  0.00     0.042 A 
ATOM      5  C   UNL d   1     -41.524-120.895 -51.766  0.00  0.00     0.120 A 
ATOM      6  C   UNL d   1     -41.275-120.541 -53.135  0.00  0.00     0.101 A 
ENDROOT
BRANCH   1   7
ATOM      7  N   UNL d   1     -41.481-122.290 -51.388  0.00  0.00    -0.205 NA
ATOM      8  C   UNL d   1     -41.709-122.082 -50.599  0.00  0.00     0.279 C 
ATOM      9  O   UNL d   1     -41.862-121.268 -50.422  0.00  0.00    -0.265 OA
BRANCH   8  10
ATOM     10  C   UNL d   1     -41.778-122.667 -50.017  0.00  0.00     0.059 A 
ATOM     11  C   UNL d   1     -42.501-122.783 -49.635  0.00  0.00     0.028 A 
ATOM     12  C   UNL d   1     -42.563-123.356 -49.067  0.00  0.00     0.127 A 
ATOM     13  C   UNL d   1     -41.927-123.816 -48.870  0.00  0.00     0.024 A 
ATOM     14  C   UNL d   1     -41.199-123.714 -49.240  0.00  0.00     0.002 A 
ATOM     15  C   UNL d   1     -41.123-123.127 -49.827  0.00  0.00     0.005 A 
BRANCH  12  16
ATOM     16  N   UNL d   1     -43.260-123.486 -48.681  0.00  0.00    -0.114 N 
ATOM     17  O   UNL d   1     -43.343-123.648 -47.872  0.00  0.00    -0.532 OA
ATOM     18  O   UNL d   1     -43.990-123.474 -49.046  0.00  0.00    -0.532 OA
ENDBRANCH  12  16
ENDBRANCH   8  10
ENDBRANCH   1   7
BRANCH   2  19
ATOM     19  N   UNL d   1     -41.123-122.716 -52.958  0.00  0.00    -0.206 NA
ATOM     20  C   UNL d   1     -41.510-123.042 -53.612  0.00  0.00     0.279 C 
ATOM     21  O   UNL d   1     -41.401-123.817 -53.817  0.00  0.00    -0.265 OA
BRANCH  20  22
ATOM     22  C   UNL d   1     -42.029-122.552 -54.073  0.00  0.00     0.059 A 
ATOM     23  C   UNL d   1     -41.798-122.317 -54.829  0.00  0.00     0.028 A 
ATOM     24  C   UNL d   1     -42.298-121.845 -55.274  0.00  0.00     0.127 A 
ATOM     25  C   UNL d   1     -43.000-121.616 -54.980  0.00  0.00     0.024 A 
ATOM     26  C   UNL d   1     -43.251-121.846 -54.212  0.00  0.00     0.002 A 
ATOM     27  C   UNL d   1     -42.747-122.325 -53.756  0.00  0.00     0.005 A 
BRANCH  24  28
ATOM     28  N   UNL d   1     -42.091-121.601 -56.022  0.00  0.00    -0.114 N 
ATOM     29  O   UNL d   1     -42.410-121.909 -56.730  0.00  0.00    -0.532 OA
ATOM     30  O   UNL d   1     -41.541-121.021 -56.178  0.00  0.00    -0.532 OA
ENDBRANCH  24  28
ENDBRANCH  20  22
ENDBRANCH   2  19
TORSDOF 6
ENDMDL
