MODEL 1
REMARK VINA RESULT:      72.7      0.000      0.000
REMARK  6 active torsions:
REMARK  status: ('A' for Active; 'I' for Inactive)
REMARK    1  A    between atoms: O_9  and  S_1 
REMARK    2  A    between atoms: C_10  and  C_4 
REMARK    3  A    between atoms: C_14  and  O_9 
REMARK    4  A    between atoms: C_13  and  C_10 
REMARK    5  A    between atoms: C_16  and  C_13 
REMARK    6  A    between atoms: C_19  and  C_16 
ROOT
ATOM      1  C   UNL d   1      61.746  47.169  49.993  0.00  0.00     0.064 A 
ATOM      2  C   UNL d   1      61.158  46.863  50.485  0.00  0.00     0.105 A 
ATOM      3  C   UNL d   1      61.112  48.199  50.563  0.00  0.00     0.139 A 
ATOM      4  C   UNL d   1      61.717  47.993  50.043  0.00  0.00     0.220 A 
ATOM      5  O   UNL d   1      60.761  47.499  50.841  0.00  0.00    -0.304 OA
ATOM      6  C   UNL d   1      61.058  46.048  50.545  0.00  0.00     0.050 A 
ATOM      7  C   UNL d   1      62.234  46.660  49.564  0.00  0.00     0.007 A 
ATOM      8  C   UNL d   1      61.543  45.546  50.119  0.00  0.00     0.115 A 
ATOM      9  O   UNL d   1      62.211  48.522  49.638  0.00  0.00    -0.284 OA
ATOM     10  C   UNL d   1      62.131  45.844  49.627  0.00  0.00     0.026 A 
ENDROOT
BRANCH   3  11
ATOM     11  C   UNL d   1      60.890  48.967  50.775  0.00  0.00     0.028 C 
BRANCH  11  12
ATOM     12  C   UNL d   1      60.219  49.316  50.438  0.00  0.00     0.002 C 
BRANCH  12  13
ATOM     13  C   UNL d   1      59.660  49.686  50.914  0.00  0.00     0.000 C 
BRANCH  13  14
ATOM     14  C   UNL d   1      58.868  49.685  50.706  0.00  0.00     0.000 A 
ATOM     15  C   UNL d   1      58.644  49.706  49.912  0.00  0.00     0.000 A 
ATOM     16  C   UNL d   1      57.841  49.704  49.703  0.00  0.00     0.000 A 
ATOM     17  C   UNL d   1      57.264  49.681  50.293  0.00  0.00     0.000 A 
ATOM     18  C   UNL d   1      57.493  49.660  51.092  0.00  0.00     0.000 A 
ATOM     19  C   UNL d   1      58.293  49.662  51.292  0.00  0.00     0.000 A 
ENDBRANCH  13  14
ENDBRANCH  12  13
ENDBRANCH  11  12
ENDBRANCH   3  11
BRANCH   8  20
ATOM     20  O   UNL d   1      61.442  44.723  50.179  0.00  0.00    -0.230 OA
BRANCH  20  21
ATOM     21  S   UNL d   1      60.988  44.322  49.617  0.00  0.00     0.285 S 
ATOM     22  O   UNL d   1      60.871  44.148  50.417  0.00  0.00    -0.197 OA
ATOM     23  O   UNL d   1      61.092  44.483  48.828  0.00  0.00    -0.197 OA
ATOM     24  C   UNL d   1      60.400  43.763  49.421  0.00  0.00     0.172 C 
ENDBRANCH  20  21
ENDBRANCH   8  20
TORSDOF 6
ENDMDL
MODEL 2
REMARK VINA RESULT:      73.1      2.451      4.550
REMARK  6 active torsions:
REMARK  status: ('A' for Active; 'I' for Inactive)
REMARK    1  A    between atoms: O_9  and  S_1 
REMARK    2  A    between atoms: C_10  and  C_4 
REMARK    3  A    between atoms: C_14  and  O_9 
REMARK    4  A    between atoms: C_13  and  C_10 
REMARK    5  A    between atoms: C_16  and  C_13 
REMARK    6  A    between atoms: C_19  and  C_16 
ROOT
ATOM      1  C   UNL d   1      59.801  49.461  50.062  0.00  0.00     0.064 A 
ATOM      2  C   UNL d   1      59.330  49.323  50.726  0.00  0.00     0.105 A 
ATOM      3  C   UNL d   1      60.611  49.172  51.086  0.00  0.00     0.139 A 
ATOM      4  C   UNL d   1      60.590  49.368  50.285  0.00  0.00     0.220 A 
ATOM      5  O   UNL d   1      59.829  49.143  51.365  0.00  0.00    -0.304 OA
ATOM      6  C   UNL d   1      58.511  49.379  50.666  0.00  0.00     0.050 A 
ATOM      7  C   UNL d   1      59.452  49.653  49.339  0.00  0.00     0.007 A 
ATOM      8  C   UNL d   1      58.168  49.570  49.948  0.00  0.00     0.115 A 
ATOM      9  O   UNL d   1      61.249  49.455  49.790  0.00  0.00    -0.284 OA
ATOM     10  C   UNL d   1      58.630  49.708  49.283  0.00  0.00     0.026 A 
ENDROOT
BRANCH   3  11
ATOM     11  C   UNL d   1      61.289  49.029  51.537  0.00  0.00     0.028 C 
BRANCH  11  12
ATOM     12  C   UNL d   1      61.464  48.264  51.798  0.00  0.00     0.002 C 
BRANCH  12  13
ATOM     13  C   UNL d   1      61.792  47.714  51.283  0.00  0.00     0.000 C 
BRANCH  13  14
ATOM     14  C   UNL d   1      61.469  46.964  51.210  0.00  0.00     0.000 A 
ATOM     15  C   UNL d   1      61.156  46.712  50.488  0.00  0.00     0.000 A 
ATOM     16  C   UNL d   1      60.830  45.954  50.416  0.00  0.00     0.000 A 
ATOM     17  C   UNL d   1      60.818  45.448  51.070  0.00  0.00     0.000 A 
ATOM     18  C   UNL d   1      61.134  45.705  51.794  0.00  0.00     0.000 A 
ATOM     19  C   UNL d   1      61.457  46.461  51.859  0.00  0.00     0.000 A 
ENDBRANCH  13  14
ENDBRANCH  12  13
ENDBRANCH  11  12
ENDBRANCH   3  11
BRANCH   8  20
ATOM     20  O   UNL d   1      57.340  49.626  49.886  0.00  0.00    -0.230 OA
BRANCH  20  21
ATOM     21  S   UNL d   1      56.869  49.497  50.554  0.00  0.00     0.285 S 
ATOM     22  O   UNL d   1      56.551  49.335  49.807  0.00  0.00    -0.197 OA
ATOM     23  O   UNL d   1      57.168  49.652  51.292  0.00  0.00    -0.197 OA
ATOM     24  C   UNL d   1      56.148  49.258  50.900  0.00  0.00     0.172 C 
ENDBRANCH  20  21
ENDBRANCH   8  20
TORSDOF 6
ENDMDL
