MODEL 1
REMARK VINA RESULT:      -5.5      0.000      0.000
REMARK  6 active torsions:
REMARK  status: ('A' for Active; 'I' for Inactive)
REMARK    1  A    between atoms: N_2  and  S_1 
REMARK    2  A    between atoms: C_5  and  S_1 
REMARK    3  A    between atoms: S_6  and  C_3 
REMARK    4  A    between atoms: C_18  and  S_6 
REMARK       I    between atoms: C_9  and  N_11 
REMARK    5  A    between atoms: N_11  and  C_19 
REMARK    6  A    between atoms: C_17  and  C_18 
ROOT
ATOM      1  N   UNL d   1     -46.825  13.186  23.204  0.00  0.00    -0.208 N 
ATOM      2  C   UNL d   1     -46.230  12.653  22.969  0.00  0.00     0.189 A 
ATOM      3  N   UNL d   1     -46.418  11.907  23.275  0.00  0.00    -0.219 NA
ATOM      4  C   UNL d   1     -47.382  12.765  23.657  0.00  0.00     0.114 A 
ATOM      5  C   UNL d   1     -47.128  11.980  23.698  0.00  0.00     0.121 A 
ENDROOT
BRANCH   1   6
ATOM      6  S   UNL d   1     -46.853  13.994  23.018  0.00  0.00     0.273 S 
ATOM      7  O   UNL d   1     -46.650  14.794  22.937  0.00  0.00    -0.200 OA
ATOM      8  O   UNL d   1     -46.104  14.060  23.344  0.00  0.00    -0.200 OA
BRANCH   6   9
ATOM      9  C   UNL d   1     -47.608  13.949  22.683  0.00  0.00     0.104 A 
ATOM     10  C   UNL d   1     -48.261  14.085  23.149  0.00  0.00     0.014 A 
ATOM     11  C   UNL d   1     -49.024  14.043  22.825  0.00  0.00     0.020 A 
ATOM     12  C   UNL d   1     -49.106  13.860  22.027  0.00  0.00     0.085 A 
ATOM     13  C   UNL d   1     -48.441  13.723  21.561  0.00  0.00     0.020 A 
ATOM     14  C   UNL d   1     -47.684  13.766  21.885  0.00  0.00     0.014 A 
BRANCH  12  15
ATOM     15  N   UNL d   1     -49.861  13.815  21.693  0.00  0.00    -0.208 NA
ATOM     16  C   UNL d   1     -50.257  13.094  21.678  0.00  0.00     0.279 C 
ATOM     17  O   UNL d   1     -49.916  12.415  21.988  0.00  0.00    -0.265 OA
ATOM     18  C   UNL d   1     -51.024  13.045  21.339  0.00  0.00     0.068 C 
ENDBRANCH  12  15
ENDBRANCH   6   9
ENDBRANCH   1   6
BRANCH   2  19
ATOM     19  S   UNL d   1     -45.563  12.840  22.508  0.00  0.00    -0.049 SA
BRANCH  19  20
ATOM     20  C   UNL d   1     -45.084  12.234  22.218  0.00  0.00     0.040 C 
BRANCH  20  21
ATOM     21  C   UNL d   1     -44.318  12.403  21.965  0.00  0.00     0.026 A 
ATOM     22  C   UNL d   1     -43.664  11.996  22.303  0.00  0.00     0.099 A 
ATOM     23  N   UNL d   1     -42.894  12.153  22.062  0.00  0.00    -0.242 NA
ATOM     24  C   UNL d   1     -42.774  12.722  21.477  0.00  0.00     0.099 A 
ATOM     25  C   UNL d   1     -43.409  13.125  21.142  0.00  0.00     0.021 A 
ATOM     26  C   UNL d   1     -44.180  12.963  21.387  0.00  0.00     0.004 A 
ENDBRANCH  20  21
ENDBRANCH  19  20
ENDBRANCH   2  19
TORSDOF 6
ENDMDL
MODEL 2
REMARK VINA RESULT:      -5.2      7.442      9.101
REMARK  6 active torsions:
REMARK  status: ('A' for Active; 'I' for Inactive)
REMARK    1  A    between atoms: N_2  and  S_1 
REMARK    2  A    between atoms: C_5  and  S_1 
REMARK    3  A    between atoms: S_6  and  C_3 
REMARK    4  A    between atoms: C_18  and  S_6 
REMARK       I    between atoms: C_9  and  N_11 
REMARK    5  A    between atoms: N_11  and  C_19 
REMARK    6  A    between atoms: C_17  and  C_18 
ROOT
ATOM      1  N   UNL d   1     -40.497  14.855  18.809  0.00  0.00    -0.208 N 
ATOM      2  C   UNL d   1     -40.431  15.159  19.581  0.00  0.00     0.189 A 
ATOM      3  N   UNL d   1     -40.930  15.818  19.642  0.00  0.00    -0.219 NA
ATOM      4  C   UNL d   1     -41.039  15.330  18.392  0.00  0.00     0.114 A 
ATOM      5  C   UNL d   1     -41.302  15.919  18.907  0.00  0.00     0.121 A 
ENDROOT
BRANCH   1   6
ATOM      6  S   UNL d   1     -40.091  14.195  18.513  0.00  0.00     0.273 S 
ATOM      7  O   UNL d   1     -39.804  13.424  18.411  0.00  0.00    -0.200 OA
ATOM      8  O   UNL d   1     -40.434  13.758  19.115  0.00  0.00    -0.200 OA
BRANCH   6   9
ATOM      9  C   UNL d   1     -39.735  14.619  17.898  0.00  0.00     0.104 A 
ATOM     10  C   UNL d   1     -39.013  14.972  18.021  0.00  0.00     0.014 A 
ATOM     11  C   UNL d   1     -38.646  15.401  17.411  0.00  0.00     0.020 A 
ATOM     12  C   UNL d   1     -39.026  15.460  16.684  0.00  0.00     0.085 A 
ATOM     13  C   UNL d   1     -39.758  15.100  16.566  0.00  0.00     0.020 A 
ATOM     14  C   UNL d   1     -40.120  14.675  17.173  0.00  0.00     0.014 A 
BRANCH  12  15
ATOM     15  N   UNL d   1     -38.670  15.884  16.070  0.00  0.00    -0.208 NA
ATOM     16  C   UNL d   1     -38.301  15.479  15.456  0.00  0.00     0.279 C 
ATOM     17  O   UNL d   1     -38.279  14.659  15.441  0.00  0.00    -0.265 OA
ATOM     18  C   UNL d   1     -37.940  15.908  14.832  0.00  0.00     0.068 C 
ENDBRANCH  12  15
ENDBRANCH   6   9
ENDBRANCH   1   6
BRANCH   2  19
ATOM     19  S   UNL d   1     -39.948  14.853  20.186  0.00  0.00    -0.049 SA
BRANCH  19  20
ATOM     20  C   UNL d   1     -40.091  15.066  20.971  0.00  0.00     0.040 C 
BRANCH  20  21
ATOM     21  C   UNL d   1     -39.514  14.930  21.544  0.00  0.00     0.026 A 
ATOM     22  C   UNL d   1     -38.924  15.510  21.692  0.00  0.00     0.099 A 
ATOM     23  N   UNL d   1     -38.342  15.389  22.259  0.00  0.00    -0.242 NA
ATOM     24  C   UNL d   1     -38.348  14.683  22.685  0.00  0.00     0.099 A 
ATOM     25  C   UNL d   1     -38.923  14.110  22.545  0.00  0.00     0.021 A 
ATOM     26  C   UNL d   1     -39.506  14.236  21.974  0.00  0.00     0.004 A 
ENDBRANCH  20  21
ENDBRANCH  19  20
ENDBRANCH   2  19
TORSDOF 6
ENDMDL
MODEL 3
REMARK VINA RESULT:      -5.1      7.802      9.159
REMARK  6 active torsions:
REMARK  status: ('A' for Active; 'I' for Inactive)
REMARK    1  A    between atoms: N_2  and  S_1 
REMARK    2  A    between atoms: C_5  and  S_1 
REMARK    3  A    between atoms: S_6  and  C_3 
REMARK    4  A    between atoms: C_18  and  S_6 
REMARK       I    between atoms: C_9  and  N_11 
REMARK    5  A    between atoms: N_11  and  C_19 
REMARK    6  A    between atoms: C_17  and  C_18 
ROOT
ATOM      1  N   UNL d   1     -39.527  15.227  19.481  0.00  0.00    -0.208 N 
ATOM      2  C   UNL d   1     -39.734  14.858  18.764  0.00  0.00     0.189 A 
ATOM      3  N   UNL d   1     -40.558  14.778  18.744  0.00  0.00    -0.219 NA
ATOM      4  C   UNL d   1     -40.227  15.375  19.905  0.00  0.00     0.114 A 
ATOM      5  C   UNL d   1     -40.858  15.098  19.449  0.00  0.00     0.121 A 
ENDROOT
BRANCH   1   6
ATOM      6  S   UNL d   1     -38.755  15.412  19.725  0.00  0.00     0.273 S 
ATOM      7  O   UNL d   1     -37.998  15.747  19.765  0.00  0.00    -0.200 OA
ATOM      8  O   UNL d   1     -38.713  15.922  19.085  0.00  0.00    -0.200 OA
BRANCH   6   9
ATOM      9  C   UNL d   1     -38.779  14.902  20.377  0.00  0.00     0.104 A 
ATOM     10  C   UNL d   1     -39.137  15.148  21.065  0.00  0.00     0.014 A 
ATOM     11  C   UNL d   1     -39.167  14.645  21.725  0.00  0.00     0.020 A 
ATOM     12  C   UNL d   1     -38.828  13.897  21.669  0.00  0.00     0.085 A 
ATOM     13  C   UNL d   1     -38.467  13.655  20.970  0.00  0.00     0.020 A 
ATOM     14  C   UNL d   1     -38.439  14.156  20.315  0.00  0.00     0.014 A 
BRANCH  12  15
ATOM     15  N   UNL d   1     -38.852  13.388  22.320  0.00  0.00    -0.208 NA
ATOM     16  C   UNL d   1     -38.434  13.580  23.002  0.00  0.00     0.279 C 
ATOM     17  O   UNL d   1     -37.992  14.269  23.051  0.00  0.00    -0.265 OA
ATOM     18  C   UNL d   1     -38.457  13.064  23.664  0.00  0.00     0.068 C 
ENDBRANCH  12  15
ENDBRANCH   6   9
ENDBRANCH   1   6
BRANCH   2  19
ATOM     19  S   UNL d   1     -39.204  14.611  18.172  0.00  0.00    -0.049 SA
BRANCH  19  20
ATOM     20  C   UNL d   1     -39.484  14.183  17.524  0.00  0.00     0.040 C 
BRANCH  20  21
ATOM     21  C   UNL d   1     -38.978  14.011  16.896  0.00  0.00     0.026 A 
ATOM     22  C   UNL d   1     -38.567  13.279  16.876  0.00  0.00     0.099 A 
ATOM     23  N   UNL d   1     -38.059  13.092  16.258  0.00  0.00    -0.242 NA
ATOM     24  C   UNL d   1     -37.959  13.642  15.651  0.00  0.00     0.099 A 
ATOM     25  C   UNL d   1     -38.359  14.363  15.665  0.00  0.00     0.021 A 
ATOM     26  C   UNL d   1     -38.868  14.545  16.288  0.00  0.00     0.004 A 
ENDBRANCH  20  21
ENDBRANCH  19  20
ENDBRANCH   2  19
TORSDOF 6
ENDMDL
MODEL 4
REMARK VINA RESULT:      -4.4      7.118      9.436
REMARK  6 active torsions:
REMARK  status: ('A' for Active; 'I' for Inactive)
REMARK    1  A    between atoms: N_2  and  S_1 
REMARK    2  A    between atoms: C_5  and  S_1 
REMARK    3  A    between atoms: S_6  and  C_3 
REMARK    4  A    between atoms: C_18  and  S_6 
REMARK       I    between atoms: C_9  and  N_11 
REMARK    5  A    between atoms: N_11  and  C_19 
REMARK    6  A    between atoms: C_17  and  C_18 
ROOT
ATOM      1  N   UNL d   1     -39.291  15.532  17.697  0.00  0.00    -0.208 N 
ATOM      2  C   UNL d   1     -38.625  15.295  17.257  0.00  0.00     0.189 A 
ATOM      3  N   UNL d   1     -37.947  15.535  17.666  0.00  0.00    -0.219 NA
ATOM      4  C   UNL d   1     -39.021  15.921  18.381  0.00  0.00     0.114 A 
ATOM      5  C   UNL d   1     -38.195  15.921  18.358  0.00  0.00     0.121 A 
ENDROOT
BRANCH   1   6
ATOM      6  S   UNL d   1     -40.083  15.401  17.485  0.00  0.00     0.273 S 
ATOM      7  O   UNL d   1     -40.786  15.348  17.050  0.00  0.00    -0.200 OA
ATOM      8  O   UNL d   1     -39.884  15.642  16.728  0.00  0.00    -0.200 OA
BRANCH   6   9
ATOM      9  C   UNL d   1     -40.304  15.154  18.244  0.00  0.00     0.104 A 
ATOM     10  C   UNL d   1     -40.264  14.365  18.436  0.00  0.00     0.014 A 
ATOM     11  C   UNL d   1     -40.483  14.105  19.194  0.00  0.00     0.020 A 
ATOM     12  C   UNL d   1     -40.739  14.661  19.744  0.00  0.00     0.085 A 
ATOM     13  C   UNL d   1     -40.777  15.459  19.543  0.00  0.00     0.020 A 
ATOM     14  C   UNL d   1     -40.559  15.714  18.790  0.00  0.00     0.014 A 
BRANCH  12  15
ATOM     15  N   UNL d   1     -40.959  14.414  20.502  0.00  0.00    -0.208 NA
ATOM     16  C   UNL d   1     -40.390  14.114  21.014  0.00  0.00     0.279 C 
ATOM     17  O   UNL d   1     -39.603  14.054  20.787  0.00  0.00    -0.265 OA
ATOM     18  C   UNL d   1     -40.611  13.863  21.784  0.00  0.00     0.068 C 
ENDBRANCH  12  15
ENDBRANCH   6   9
ENDBRANCH   1   6
BRANCH   2  19
ATOM     19  S   UNL d   1     -38.641  14.887  16.531  0.00  0.00    -0.049 SA
BRANCH  19  20
ATOM     20  C   UNL d   1     -37.940  14.777  16.109  0.00  0.00     0.040 C 
BRANCH  20  21
ATOM     21  C   UNL d   1     -37.953  14.373  15.391  0.00  0.00     0.026 A 
ATOM     22  C   UNL d   1     -37.956  14.800  14.667  0.00  0.00     0.099 A 
ATOM     23  N   UNL d   1     -37.969  14.412  13.943  0.00  0.00    -0.242 NA
ATOM     24  C   UNL d   1     -37.980  13.587  13.940  0.00  0.00     0.099 A 
ATOM     25  C   UNL d   1     -37.978  13.161  14.645  0.00  0.00     0.021 A 
ATOM     26  C   UNL d   1     -37.965  13.556  15.369  0.00  0.00     0.004 A 
ENDBRANCH  20  21
ENDBRANCH  19  20
ENDBRANCH   2  19
TORSDOF 6
ENDMDL
MODEL 5
REMARK VINA RESULT:      -3.9      7.543      9.136
REMARK  6 active torsions:
REMARK  status: ('A' for Active; 'I' for Inactive)
REMARK    1  A    between atoms: N_2  and  S_1 
REMARK    2  A    between atoms: C_5  and  S_1 
REMARK    3  A    between atoms: S_6  and  C_3 
REMARK    4  A    between atoms: C_18  and  S_6 
REMARK       I    between atoms: C_9  and  N_11 
REMARK    5  A    between atoms: N_11  and  C_19 
REMARK    6  A    between atoms: C_17  and  C_18 
ROOT
ATOM      1  N   UNL d   1     -39.651  14.931  19.246  0.00  0.00    -0.208 N 
ATOM      2  C   UNL d   1     -39.915  14.931  20.036  0.00  0.00     0.189 A 
ATOM      3  N   UNL d   1     -40.671  14.595  20.055  0.00  0.00    -0.219 NA
ATOM      4  C   UNL d   1     -40.249  14.592  18.777  0.00  0.00     0.114 A 
ATOM      5  C   UNL d   1     -40.873  14.387  19.277  0.00  0.00     0.121 A 
ENDROOT
BRANCH   1   6
ATOM      6  S   UNL d   1     -38.920  15.219  18.979  0.00  0.00     0.273 S 
ATOM      7  O   UNL d   1     -38.268  15.711  18.840  0.00  0.00    -0.200 OA
ATOM      8  O   UNL d   1     -39.095  15.920  19.366  0.00  0.00    -0.200 OA
BRANCH   6   9
ATOM      9  C   UNL d   1     -38.725  14.519  18.583  0.00  0.00     0.104 A 
ATOM     10  C   UNL d   1     -38.255  13.967  18.953  0.00  0.00     0.014 A 
ATOM     11  C   UNL d   1     -38.053  13.261  18.565  0.00  0.00     0.020 A 
ATOM     12  C   UNL d   1     -38.336  13.131  17.804  0.00  0.00     0.085 A 
ATOM     13  C   UNL d   1     -38.812  13.694  17.435  0.00  0.00     0.020 A 
ATOM     14  C   UNL d   1     -39.012  14.395  17.822  0.00  0.00     0.014 A 
BRANCH  12  15
ATOM     15  N   UNL d   1     -38.142  12.432  17.408  0.00  0.00    -0.208 NA
ATOM     16  C   UNL d   1     -38.168  11.715  17.811  0.00  0.00     0.279 C 
ATOM     17  O   UNL d   1     -38.385  11.680  18.602  0.00  0.00    -0.265 OA
ATOM     18  C   UNL d   1     -37.971  11.004  17.411  0.00  0.00     0.068 C 
ENDBRANCH  12  15
ENDBRANCH   6   9
ENDBRANCH   1   6
BRANCH   2  19
ATOM     19  S   UNL d   1     -39.490  15.221  20.691  0.00  0.00    -0.049 SA
BRANCH  19  20
ATOM     20  C   UNL d   1     -39.778  15.091  21.454  0.00  0.00     0.040 C 
BRANCH  20  21
ATOM     21  C   UNL d   1     -39.266  15.141  22.098  0.00  0.00     0.026 A 
ATOM     22  C   UNL d   1     -39.017  14.443  22.493  0.00  0.00     0.099 A 
ATOM     23  N   UNL d   1     -38.508  14.476  23.137  0.00  0.00    -0.242 NA
ATOM     24  C   UNL d   1     -38.243  15.214  23.391  0.00  0.00     0.099 A 
ATOM     25  C   UNL d   1     -38.482  15.904  23.009  0.00  0.00     0.021 A 
ATOM     26  C   UNL d   1     -38.994  15.865  22.363  0.00  0.00     0.004 A 
ENDBRANCH  20  21
ENDBRANCH  19  20
ENDBRANCH   2  19
TORSDOF 6
ENDMDL
MODEL 6
REMARK VINA RESULT:      -3.5      7.868      8.649
REMARK  6 active torsions:
REMARK  status: ('A' for Active; 'I' for Inactive)
REMARK    1  A    between atoms: N_2  and  S_1 
REMARK    2  A    between atoms: C_5  and  S_1 
REMARK    3  A    between atoms: S_6  and  C_3 
REMARK    4  A    between atoms: C_18  and  S_6 
REMARK       I    between atoms: C_9  and  N_11 
REMARK    5  A    between atoms: N_11  and  C_19 
REMARK    6  A    between atoms: C_17  and  C_18 
ROOT
ATOM      1  N   UNL d   1     -38.587  14.748  19.450  0.00  0.00    -0.208 N 
ATOM      2  C   UNL d   1     -38.412  14.893  20.251  0.00  0.00     0.189 A 
ATOM      3  N   UNL d   1     -38.018  15.620  20.301  0.00  0.00    -0.219 NA
ATOM      4  C   UNL d   1     -38.299  15.389  19.004  0.00  0.00     0.114 A 
ATOM      5  C   UNL d   1     -37.951  15.922  19.531  0.00  0.00     0.121 A 
ENDROOT
BRANCH   1   6
ATOM      6  S   UNL d   1     -38.980  14.080  19.153  0.00  0.00     0.273 S 
ATOM      7  O   UNL d   1     -39.215  13.296  19.019  0.00  0.00    -0.200 OA
ATOM      8  O   UNL d   1     -38.510  13.627  19.649  0.00  0.00    -0.200 OA
BRANCH   6   9
ATOM      9  C   UNL d   1     -39.463  14.519  18.645  0.00  0.00     0.104 A 
ATOM     10  C   UNL d   1     -39.271  14.574  17.857  0.00  0.00     0.014 A 
ATOM     11  C   UNL d   1     -39.748  15.012  17.337  0.00  0.00     0.020 A 
ATOM     12  C   UNL d   1     -40.416  15.388  17.636  0.00  0.00     0.085 A 
ATOM     13  C   UNL d   1     -40.605  15.329  18.435  0.00  0.00     0.020 A 
ATOM     14  C   UNL d   1     -40.130  14.893  18.949  0.00  0.00     0.014 A 
BRANCH  12  15
ATOM     15  N   UNL d   1     -40.899  15.828  17.128  0.00  0.00    -0.208 NA
ATOM     16  C   UNL d   1     -41.495  15.450  16.706  0.00  0.00     0.279 C 
ATOM     17  O   UNL d   1     -41.622  14.643  16.778  0.00  0.00    -0.265 OA
ATOM     18  C   UNL d   1     -41.987  15.894  16.190  0.00  0.00     0.068 C 
ENDBRANCH  12  15
ENDBRANCH   6   9
ENDBRANCH   1   6
BRANCH   2  19
ATOM     19  S   UNL d   1     -38.601  14.393  20.889  0.00  0.00    -0.049 SA
BRANCH  19  20
ATOM     20  C   UNL d   1     -38.231  14.504  21.619  0.00  0.00     0.040 C 
BRANCH  20  21
ATOM     21  C   UNL d   1     -38.508  14.103  22.283  0.00  0.00     0.026 A 
ATOM     22  C   UNL d   1     -38.000  13.978  22.941  0.00  0.00     0.099 A 
ATOM     23  N   UNL d   1     -38.261  13.580  23.611  0.00  0.00    -0.242 NA
ATOM     24  C   UNL d   1     -39.038  13.304  23.627  0.00  0.00     0.099 A 
ATOM     25  C   UNL d   1     -39.542  13.423  22.986  0.00  0.00     0.021 A 
ATOM     26  C   UNL d   1     -39.275  13.823  22.315  0.00  0.00     0.004 A 
ENDBRANCH  20  21
ENDBRANCH  19  20
ENDBRANCH   2  19
TORSDOF 6
ENDMDL
MODEL 7
REMARK VINA RESULT:      -3.4      5.225      7.880
REMARK  6 active torsions:
REMARK  status: ('A' for Active; 'I' for Inactive)
REMARK    1  A    between atoms: N_2  and  S_1 
REMARK    2  A    between atoms: C_5  and  S_1 
REMARK    3  A    between atoms: S_6  and  C_3 
REMARK    4  A    between atoms: C_18  and  S_6 
REMARK       I    between atoms: C_9  and  N_11 
REMARK    5  A    between atoms: N_11  and  C_19 
REMARK    6  A    between atoms: C_17  and  C_18 
ROOT
ATOM      1  N   UNL d   1     -39.286  14.811  20.256  0.00  0.00    -0.208 N 
ATOM      2  C   UNL d   1     -38.739  14.551  19.685  0.00  0.00     0.189 A 
ATOM      3  N   UNL d   1     -38.163  14.095  20.068  0.00  0.00    -0.219 NA
ATOM      4  C   UNL d   1     -39.045  14.513  20.995  0.00  0.00     0.114 A 
ATOM      5  C   UNL d   1     -38.356  14.074  20.875  0.00  0.00     0.121 A 
ENDROOT
BRANCH   1   6
ATOM      6  S   UNL d   1     -39.952  15.283  20.109  0.00  0.00     0.273 S 
ATOM      7  O   UNL d   1     -40.437  15.922  19.898  0.00  0.00    -0.200 OA
ATOM      8  O   UNL d   1     -39.436  15.879  19.883  0.00  0.00    -0.200 OA
BRANCH   6   9
ATOM      9  C   UNL d   1     -40.489  14.695  20.332  0.00  0.00     0.104 A 
ATOM     10  C   UNL d   1     -40.915  14.304  19.760  0.00  0.00     0.014 A 
ATOM     11  C   UNL d   1     -41.457  13.711  19.972  0.00  0.00     0.020 A 
ATOM     12  C   UNL d   1     -41.554  13.529  20.769  0.00  0.00     0.085 A 
ATOM     13  C   UNL d   1     -41.119  13.929  21.343  0.00  0.00     0.020 A 
ATOM     14  C   UNL d   1     -40.581  14.517  21.130  0.00  0.00     0.014 A 
BRANCH  12  15
ATOM     15  N   UNL d   1     -42.090  12.941  20.992  0.00  0.00    -0.208 NA
ATOM     16  C   UNL d   1     -42.825  13.154  21.295  0.00  0.00     0.279 C 
ATOM     17  O   UNL d   1     -43.037  13.942  21.381  0.00  0.00    -0.265 OA
ATOM     18  C   UNL d   1     -43.371  12.559  21.522  0.00  0.00     0.068 C 
ENDBRANCH  12  15
ENDBRANCH   6   9
ENDBRANCH   1   6
BRANCH   2  19
ATOM     19  S   UNL d   1     -38.767  14.720  18.870  0.00  0.00    -0.049 SA
BRANCH  19  20
ATOM     20  C   UNL d   1     -38.160  14.457  18.376  0.00  0.00     0.040 C 
BRANCH  20  21
ATOM     21  C   UNL d   1     -38.234  14.535  17.559  0.00  0.00     0.026 A 
ATOM     22  C   UNL d   1     -37.981  15.241  17.180  0.00  0.00     0.099 A 
ATOM     23  N   UNL d   1     -38.048  15.335  16.366  0.00  0.00    -0.242 NA
ATOM     24  C   UNL d   1     -38.370  14.717  15.924  0.00  0.00     0.099 A 
ATOM     25  C   UNL d   1     -38.620  14.022  16.289  0.00  0.00     0.021 A 
ATOM     26  C   UNL d   1     -38.551  13.933  17.107  0.00  0.00     0.004 A 
ENDBRANCH  20  21
ENDBRANCH  19  20
ENDBRANCH   2  19
TORSDOF 6
ENDMDL
MODEL 8
REMARK VINA RESULT:      -3.3      5.089      8.346
REMARK  6 active torsions:
REMARK  status: ('A' for Active; 'I' for Inactive)
REMARK    1  A    between atoms: N_2  and  S_1 
REMARK    2  A    between atoms: C_5  and  S_1 
REMARK    3  A    between atoms: S_6  and  C_3 
REMARK    4  A    between atoms: C_18  and  S_6 
REMARK       I    between atoms: C_9  and  N_11 
REMARK    5  A    between atoms: N_11  and  C_19 
REMARK    6  A    between atoms: C_17  and  C_18 
ROOT
ATOM      1  N   UNL d   1     -39.999  15.160  19.898  0.00  0.00    -0.208 N 
ATOM      2  C   UNL d   1     -40.298  14.685  20.513  0.00  0.00     0.189 A 
ATOM      3  N   UNL d   1     -39.685  14.545  21.052  0.00  0.00    -0.219 NA
ATOM      4  C   UNL d   1     -39.197  15.314  20.060  0.00  0.00     0.114 A 
ATOM      5  C   UNL d   1     -39.009  14.934  20.769  0.00  0.00     0.121 A 
ENDROOT
BRANCH   1   6
ATOM      6  S   UNL d   1     -40.429  15.430  19.242  0.00  0.00     0.273 S 
ATOM      7  O   UNL d   1     -40.992  15.814  18.770  0.00  0.00    -0.200 OA
ATOM      8  O   UNL d   1     -40.913  15.831  19.768  0.00  0.00    -0.200 OA
BRANCH   6   9
ATOM      9  C   UNL d   1     -39.952  15.034  18.694  0.00  0.00     0.104 A 
ATOM     10  C   UNL d   1     -40.199  14.321  18.390  0.00  0.00     0.014 A 
ATOM     11  C   UNL d   1     -39.729  13.913  17.840  0.00  0.00     0.020 A 
ATOM     12  C   UNL d   1     -39.011  14.244  17.611  0.00  0.00     0.085 A 
ATOM     13  C   UNL d   1     -38.767  14.966  17.923  0.00  0.00     0.020 A 
ATOM     14  C   UNL d   1     -39.236  15.369  18.469  0.00  0.00     0.014 A 
BRANCH  12  15
ATOM     15  N   UNL d   1     -38.535  13.847  17.064  0.00  0.00    -0.208 NA
ATOM     16  C   UNL d   1     -38.556  14.066  16.271  0.00  0.00     0.279 C 
ATOM     17  O   UNL d   1     -39.042  14.673  16.011  0.00  0.00    -0.265 OA
ATOM     18  C   UNL d   1     -38.072  13.665  15.714  0.00  0.00     0.068 C 
ENDBRANCH  12  15
ENDBRANCH   6   9
ENDBRANCH   1   6
BRANCH   2  19
ATOM     19  S   UNL d   1     -41.078  14.401  20.574  0.00  0.00    -0.049 SA
BRANCH  19  20
ATOM     20  C   UNL d   1     -41.316  14.000  21.255  0.00  0.00     0.040 C 
BRANCH  20  21
ATOM     21  C   UNL d   1     -42.048  13.624  21.275  0.00  0.00     0.026 A 
ATOM     22  C   UNL d   1     -42.090  12.784  21.278  0.00  0.00     0.099 A 
ATOM     23  N   UNL d   1     -42.813  12.393  21.297  0.00  0.00    -0.242 NA
ATOM     24  C   UNL d   1     -43.503  12.845  21.314  0.00  0.00     0.099 A 
ATOM     25  C   UNL d   1     -43.470  13.668  21.311  0.00  0.00     0.021 A 
ATOM     26  C   UNL d   1     -42.742  14.055  21.291  0.00  0.00     0.004 A 
ENDBRANCH  20  21
ENDBRANCH  19  20
ENDBRANCH   2  19
TORSDOF 6
ENDMDL
