MODEL 1
REMARK VINA RESULT:      53.7      0.000      0.000
REMARK  6 active torsions:
REMARK  status: ('A' for Active; 'I' for Inactive)
REMARK    1  A    between atoms: S_3  and  C_1 
REMARK    2  A    between atoms: C_11  and  S_3 
REMARK    3  A    between atoms: N_8  and  C_4 
REMARK    4  A    between atoms: C_7  and  C_5 
REMARK    5  A    between atoms: C_18  and  N_8 
REMARK    6  A    between atoms: C_17  and  C_18 
ROOT
ATOM      1  C   UNL d   1     -58.354 -99.116 -44.138  0.00  0.00     0.212 A 
ATOM      2  N   UNL d   1     -58.574 -99.212 -43.350  0.00  0.00    -0.205 NA
ATOM      3  C   UNL d   1     -59.027 -98.907 -44.568  0.00  0.00     0.213 A 
ATOM      4  C   UNL d   1     -59.383 -99.062 -43.293  0.00  0.00     0.208 A 
ATOM      5  O   UNL d   1     -59.661 -98.875 -44.042  0.00  0.00    -0.267 OA
ENDROOT
BRANCH   1   6
ATOM      6  S   UNL d   1     -57.572 -99.230 -44.371  0.00  0.00     0.230 S 
ATOM      7  O   UNL d   1     -57.044 -99.632 -43.884  0.00  0.00    -0.215 OA
ATOM      8  O   UNL d   1     -57.312 -98.936 -45.104  0.00  0.00    -0.215 OA
BRANCH   6   9
ATOM      9  C   UNL d   1     -56.792 -99.339 -44.612  0.00  0.00     0.090 A 
ATOM     10  C   UNL d   1     -56.384-100.030 -44.408  0.00  0.00     0.011 A 
ATOM     11  C   UNL d   1     -55.600-100.136 -44.652  0.00  0.00     0.001 A 
ATOM     12  C   UNL d   1     -55.224 -99.549 -45.101  0.00  0.00     0.000 A 
ATOM     13  C   UNL d   1     -55.631 -98.857 -45.306  0.00  0.00     0.001 A 
ATOM     14  C   UNL d   1     -56.418 -98.757 -45.058  0.00  0.00     0.011 A 
ENDBRANCH   6   9
ENDBRANCH   1   6
BRANCH   3  15
ATOM     15  N   UNL d   1     -59.062 -98.757 -45.380  0.00  0.00    -0.219 NA
BRANCH  15  16
ATOM     16  C   UNL d   1     -59.771 -98.829 -45.788  0.00  0.00     0.103 C 
BRANCH  16  17
ATOM     17  C   UNL d   1     -59.772 -99.197 -46.525  0.00  0.00     0.038 A 
ATOM     18  C   UNL d   1     -59.956-100.001 -46.590  0.00  0.00     0.101 A 
ATOM     19  N   UNL d   1     -59.956-100.363 -47.330  0.00  0.00    -0.242 NA
ATOM     20  C   UNL d   1     -59.772 -99.920 -47.996  0.00  0.00     0.099 A 
ATOM     21  C   UNL d   1     -59.589 -99.123 -47.934  0.00  0.00     0.021 A 
ATOM     22  C   UNL d   1     -59.589 -98.757 -47.193  0.00  0.00     0.005 A 
ENDBRANCH  16  17
ENDBRANCH  15  16
ENDBRANCH   3  15
BRANCH   4  23
ATOM     23  C   UNL d   1     -59.601 -99.157 -42.510  0.00  0.00     0.141 A 
ATOM     24  O   UNL d   1     -59.734 -98.759 -41.804  0.00  0.00    -0.302 OA
ATOM     25  C   UNL d   1     -59.957 -99.311 -41.234  0.00  0.00     0.123 A 
ATOM     26  C   UNL d   1     -59.959-100.055 -41.595  0.00  0.00     0.029 A 
ATOM     27  C   UNL d   1     -59.740 -99.960 -42.381  0.00  0.00     0.030 A 
ENDBRANCH   4  23
TORSDOF 6
ENDMDL
