MODEL 1
REMARK VINA RESULT:      -8.1      0.000      0.000
REMARK  5 active torsions:
REMARK  status: ('A' for Active; 'I' for Inactive)
REMARK    1  A    between atoms: C_5  and  N_1 
REMARK    2  A    between atoms: C_7  and  C_3 
REMARK    3  A    between atoms: C_8  and  C_4 
REMARK    4  A    between atoms: N_10  and  C_5 
REMARK    5  A    between atoms: O_21  and  C_15 
ROOT
ATOM      1  N   UNL d   1      53.185  32.676  53.609  0.00  0.00    -0.203 N 
ATOM      2  N   UNL d   1      52.714  33.315  53.373  0.00  0.00    -0.163 NA
ATOM      3  C   UNL d   1      52.001  33.048  53.108  0.00  0.00     0.103 A 
ATOM      4  C   UNL d   1      52.751  31.974  53.488  0.00  0.00     0.087 A 
ATOM      5  C   UNL d   1      52.016  32.197  53.178  0.00  0.00     0.040 A 
ENDROOT
BRANCH   4   6
ATOM      6  C   UNL d   1      52.978  31.193  53.637  0.00  0.00     0.018 A 
ATOM      7  C   UNL d   1      53.286  30.722  53.040  0.00  0.00     0.004 A 
ATOM      8  C   UNL d   1      53.512  29.944  53.189  0.00  0.00     0.024 A 
ATOM      9  C   UNL d   1      53.426  29.637  53.946  0.00  0.00     0.094 A 
ATOM     10  C   UNL d   1      53.126  30.087  54.539  0.00  0.00     0.024 A 
ATOM     11  C   UNL d   1      52.899  30.868  54.390  0.00  0.00     0.004 A 
BRANCH   9  12
ATOM     12  O   UNL d   1      53.662  28.841  54.078  0.00  0.00    -0.328 OA
ATOM     13  C   UNL d   1      53.521  28.466  54.820  0.00  0.00     0.181 C 
ENDBRANCH   9  12
ENDBRANCH   4   6
BRANCH   1  14
ATOM     14  C   UNL d   1      53.968  32.719  53.918  0.00  0.00     0.222 C 
ATOM     15  S   UNL d   1      54.623  32.671  53.384  0.00  0.00    -0.037 SA
BRANCH  14  16
ATOM     16  N   UNL d   1      54.112  32.808  54.747  0.00  0.00    -0.214 NA
ATOM     17  C   UNL d   1      54.743  33.282  55.011  0.00  0.00     0.122 C 
ENDBRANCH  14  16
ENDBRANCH   1  14
BRANCH   3  18
ATOM     18  C   UNL d   1      51.382  33.531  52.825  0.00  0.00     0.019 A 
ATOM     19  C   UNL d   1      50.690  33.628  53.261  0.00  0.00     0.002 A 
ATOM     20  C   UNL d   1      50.082  34.116  52.961  0.00  0.00     0.000 A 
ATOM     21  C   UNL d   1      50.175  34.492  52.242  0.00  0.00     0.000 A 
ATOM     22  C   UNL d   1      50.875  34.383  51.820  0.00  0.00     0.000 A 
ATOM     23  C   UNL d   1      49.326  35.069  52.000  0.00  0.00     0.000 C 
ATOM     24  C   UNL d   1      51.469  33.912  52.104  0.00  0.00     0.002 A 
ENDBRANCH   3  18
TORSDOF 5
ENDMDL
MODEL 2
REMARK VINA RESULT:      -7.7      1.947      4.592
REMARK  5 active torsions:
REMARK  status: ('A' for Active; 'I' for Inactive)
REMARK    1  A    between atoms: C_5  and  N_1 
REMARK    2  A    between atoms: C_7  and  C_3 
REMARK    3  A    between atoms: C_8  and  C_4 
REMARK    4  A    between atoms: N_10  and  C_5 
REMARK    5  A    between atoms: O_21  and  C_15 
ROOT
ATOM      1  N   UNL d   1      52.472  33.613  53.282  0.00  0.00    -0.203 N 
ATOM      2  N   UNL d   1      52.943  32.961  53.476  0.00  0.00    -0.163 NA
ATOM      3  C   UNL d   1      52.556  32.277  53.295  0.00  0.00     0.103 A 
ATOM      4  C   UNL d   1      51.754  33.329  52.963  0.00  0.00     0.087 A 
ATOM      5  C   UNL d   1      51.799  32.503  52.968  0.00  0.00     0.040 A 
ENDROOT
BRANCH   4   6
ATOM      6  C   UNL d   1      51.105  33.760  52.687  0.00  0.00     0.018 A 
ATOM      7  C   UNL d   1      50.488  33.963  53.189  0.00  0.00     0.004 A 
ATOM      8  C   UNL d   1      49.842  34.392  52.912  0.00  0.00     0.024 A 
ATOM      9  C   UNL d   1      49.814  34.619  52.123  0.00  0.00     0.094 A 
ATOM     10  C   UNL d   1      50.411  34.426  51.621  0.00  0.00     0.024 A 
ATOM     11  C   UNL d   1      51.060  33.996  51.898  0.00  0.00     0.004 A 
BRANCH   9  12
ATOM     12  O   UNL d   1      49.146  35.055  51.861  0.00  0.00    -0.328 OA
ATOM     13  C   UNL d   1      48.666  34.770  51.229  0.00  0.00     0.181 C 
ENDBRANCH   9  12
ENDBRANCH   4   6
BRANCH   1  14
ATOM     14  C   UNL d   1      52.673  34.425  53.384  0.00  0.00     0.222 C 
ATOM     15  S   UNL d   1      53.035  34.842  52.742  0.00  0.00    -0.037 SA
BRANCH  14  16
ATOM     16  N   UNL d   1      52.521  34.830  54.111  0.00  0.00    -0.214 NA
ATOM     17  C   UNL d   1      53.023  35.447  54.356  0.00  0.00     0.122 C 
ENDBRANCH  14  16
ENDBRANCH   1  14
BRANCH   3  18
ATOM     18  C   UNL d   1      52.857  31.509  53.414  0.00  0.00     0.019 A 
ATOM     19  C   UNL d   1      53.409  31.360  54.006  0.00  0.00     0.002 A 
ATOM     20  C   UNL d   1      53.701  30.583  54.110  0.00  0.00     0.000 A 
ATOM     21  C   UNL d   1      53.438  29.979  53.626  0.00  0.00     0.000 A 
ATOM     22  C   UNL d   1      52.885  30.148  53.038  0.00  0.00     0.000 A 
ATOM     23  C   UNL d   1      53.894  29.063  53.878  0.00  0.00     0.000 C 
ATOM     24  C   UNL d   1      52.598  30.898  52.932  0.00  0.00     0.002 A 
ENDBRANCH   3  18
TORSDOF 5
ENDMDL
MODEL 3
REMARK VINA RESULT:      -6.9      1.685      2.655
REMARK  5 active torsions:
REMARK  status: ('A' for Active; 'I' for Inactive)
REMARK    1  A    between atoms: C_5  and  N_1 
REMARK    2  A    between atoms: C_7  and  C_3 
REMARK    3  A    between atoms: C_8  and  C_4 
REMARK    4  A    between atoms: N_10  and  C_5 
REMARK    5  A    between atoms: O_21  and  C_15 
ROOT
ATOM      1  N   UNL d   1      52.198  32.455  53.111  0.00  0.00    -0.203 N 
ATOM      2  N   UNL d   1      51.480  32.681  52.767  0.00  0.00    -0.163 NA
ATOM      3  C   UNL d   1      51.378  33.477  52.842  0.00  0.00     0.103 A 
ATOM      4  C   UNL d   1      52.567  33.138  53.416  0.00  0.00     0.087 A 
ATOM      5  C   UNL d   1      52.064  33.775  53.253  0.00  0.00     0.040 A 
ENDROOT
BRANCH   4   6
ATOM      6  C   UNL d   1      53.291  33.203  53.810  0.00  0.00     0.018 A 
ATOM      7  C   UNL d   1      53.994  33.278  53.392  0.00  0.00     0.004 A 
ATOM      8  C   UNL d   1      54.714  33.343  53.785  0.00  0.00     0.024 A 
ATOM      9  C   UNL d   1      54.730  33.333  54.607  0.00  0.00     0.094 A 
ATOM     10  C   UNL d   1      54.050  33.260  55.027  0.00  0.00     0.024 A 
ATOM     11  C   UNL d   1      53.325  33.195  54.634  0.00  0.00     0.004 A 
BRANCH   9  12
ATOM     12  O   UNL d   1      55.475  33.400  54.988  0.00  0.00    -0.328 OA
ATOM     13  C   UNL d   1      55.672  34.092  55.429  0.00  0.00     0.181 C 
ENDBRANCH   9  12
ENDBRANCH   4   6
BRANCH   1  14
ATOM     14  C   UNL d   1      52.510  31.673  53.150  0.00  0.00     0.222 C 
ATOM     15  S   UNL d   1      52.377  31.212  53.847  0.00  0.00    -0.037 SA
BRANCH  14  16
ATOM     16  N   UNL d   1      52.953  31.341  52.509  0.00  0.00    -0.214 NA
ATOM     17  C   UNL d   1      53.018  30.515  52.433  0.00  0.00     0.122 C 
ENDBRANCH  14  16
ENDBRANCH   1  14
BRANCH   3  18
ATOM     18  C   UNL d   1      50.719  33.905  52.563  0.00  0.00     0.019 A 
ATOM     19  C   UNL d   1      50.196  34.264  53.087  0.00  0.00     0.002 A 
ATOM     20  C   UNL d   1      49.540  34.689  52.788  0.00  0.00     0.000 A 
ATOM     21  C   UNL d   1      49.422  34.745  51.982  0.00  0.00     0.000 A 
ATOM     22  C   UNL d   1      49.956  34.378  51.471  0.00  0.00     0.000 A 
ATOM     23  C   UNL d   1      48.559  35.308  51.761  0.00  0.00     0.000 C 
ATOM     24  C   UNL d   1      50.594  33.965  51.754  0.00  0.00     0.002 A 
ENDBRANCH   3  18
TORSDOF 5
ENDMDL
