MODEL 1
REMARK VINA RESULT:      93.1      0.000      0.000
REMARK  3 active torsions:
REMARK  status: ('A' for Active; 'I' for Inactive)
REMARK    1  A    between atoms: C_3  and  C_1 
REMARK    2  A    between atoms: N_4  and  C_3 
REMARK    3  A    between atoms: C_8  and  C_3 
ROOT
ATOM      1  C   UNL d   1     -47.572  30.255  35.279  0.00  0.00     0.069 C 
ENDROOT
BRANCH   1   2
ATOM      2  C   UNL d   1     -47.459  30.928  34.809  0.00  0.00     0.057 A 
ATOM      3  C   UNL d   1     -48.047  31.505  34.768  0.00  0.00     0.214 A 
ATOM      4  C   UNL d   1     -47.923  32.166  34.300  0.00  0.00     0.120 A 
ATOM      5  O   UNL d   1     -48.756  31.424  35.193  0.00  0.00    -0.285 OA
ATOM      6  N   UNL d   1     -48.502  32.752  34.248  0.00  0.00    -0.241 NA
ATOM      7  C   UNL d   1     -47.214  32.247  33.875  0.00  0.00     0.021 A 
ATOM      8  C   UNL d   1     -48.365  33.414  33.772  0.00  0.00     0.099 A 
ATOM      9  C   UNL d   1     -47.684  33.492  33.365  0.00  0.00     0.021 A 
ATOM     10  C   UNL d   1     -47.093  32.913  33.404  0.00  0.00     0.003 A 
ATOM     11  C   UNL d   1     -46.639  31.667  33.924  0.00  0.00     0.002 A 
ATOM     12  C   UNL d   1     -46.779  31.006  34.401  0.00  0.00     0.005 A 
ENDBRANCH   1   2
BRANCH   1  13
ATOM     13  N   UNL d   1     -47.992  29.614  34.990  0.00  0.00    -0.301 N 
ATOM     14  C   UNL d   1     -47.749  28.853  35.182  0.00  0.00     0.100 A 
ATOM     15  C   UNL d   1     -48.173  28.200  34.890  0.00  0.00     0.100 A 
ATOM     16  N   UNL d   1     -48.825  28.313  34.419  0.00  0.00    -0.299 N 
ATOM     17  C   UNL d   1     -49.070  29.075  34.226  0.00  0.00     0.100 A 
ATOM     18  C   UNL d   1     -49.244  27.679  34.131  0.00  0.00     0.100 C 
ATOM     19  C   UNL d   1     -48.654  29.717  34.512  0.00  0.00     0.100 A 
ENDBRANCH   1  13
BRANCH   1  20
ATOM     20  C   UNL d   1     -47.272  30.212  36.036  0.00  0.00     0.035 A 
ATOM     21  C   UNL d   1     -47.768  30.206  36.682  0.00  0.00     0.100 A 
ATOM     22  N   UNL d   1     -47.469  30.163  37.450  0.00  0.00    -0.242 NA
ATOM     23  C   UNL d   1     -46.651  30.124  37.563  0.00  0.00     0.099 A 
ATOM     24  C   UNL d   1     -46.148  30.129  36.917  0.00  0.00     0.021 A 
ATOM     25  C   UNL d   1     -46.453  30.173  36.149  0.00  0.00     0.005 A 
ENDBRANCH   1  20
TORSDOF 3
ENDMDL
MODEL 2
REMARK VINA RESULT:      93.2      4.718      6.674
REMARK  3 active torsions:
REMARK  status: ('A' for Active; 'I' for Inactive)
REMARK    1  A    between atoms: C_3  and  C_1 
REMARK    2  A    between atoms: N_4  and  C_3 
REMARK    3  A    between atoms: C_8  and  C_3 
ROOT
ATOM      1  C   UNL d   1     -51.500  25.976  34.716  0.00  0.00     0.069 C 
ENDROOT
BRANCH   1   2
ATOM      2  C   UNL d   1     -51.620  26.100  35.526  0.00  0.00     0.057 A 
ATOM      3  C   UNL d   1     -51.015  26.418  35.989  0.00  0.00     0.214 A 
ATOM      4  C   UNL d   1     -51.146  26.536  36.788  0.00  0.00     0.120 A 
ATOM      5  O   UNL d   1     -50.282  26.617  35.655  0.00  0.00    -0.285 OA
ATOM      6  N   UNL d   1     -50.551  26.853  37.264  0.00  0.00    -0.241 NA
ATOM      7  C   UNL d   1     -51.881  26.337  37.123  0.00  0.00     0.021 A 
ATOM      8  C   UNL d   1     -50.696  26.968  38.070  0.00  0.00     0.099 A 
ATOM      9  C   UNL d   1     -51.400  26.777  38.391  0.00  0.00     0.021 A 
ATOM     10  C   UNL d   1     -52.009  26.458  37.929  0.00  0.00     0.003 A 
ATOM     11  C   UNL d   1     -52.472  26.023  36.653  0.00  0.00     0.002 A 
ATOM     12  C   UNL d   1     -52.324  25.909  35.847  0.00  0.00     0.005 A 
ENDBRANCH   1   2
BRANCH   1  13
ATOM     13  N   UNL d   1     -51.746  25.279  34.363  0.00  0.00    -0.301 N 
ATOM     14  C   UNL d   1     -52.548  25.106  34.331  0.00  0.00     0.100 A 
ATOM     15  C   UNL d   1     -52.802  24.399  33.973  0.00  0.00     0.100 A 
ATOM     16  N   UNL d   1     -52.261  23.883  33.657  0.00  0.00    -0.299 N 
ATOM     17  C   UNL d   1     -51.456  24.056  33.688  0.00  0.00     0.100 A 
ATOM     18  C   UNL d   1     -52.502  23.191  33.306  0.00  0.00     0.100 C 
ATOM     19  C   UNL d   1     -51.206  24.749  34.039  0.00  0.00     0.100 A 
ENDBRANCH   1  13
BRANCH   1  20
ATOM     20  C   UNL d   1     -51.136  26.538  34.251  0.00  0.00     0.035 A 
ATOM     21  C   UNL d   1     -50.323  26.590  34.220  0.00  0.00     0.100 A 
ATOM     22  N   UNL d   1     -49.950  27.157  33.751  0.00  0.00    -0.242 NA
ATOM     23  C   UNL d   1     -50.411  27.680  33.306  0.00  0.00     0.099 A 
ATOM     24  C   UNL d   1     -51.227  27.631  33.334  0.00  0.00     0.021 A 
ATOM     25  C   UNL d   1     -51.596  27.061  33.805  0.00  0.00     0.005 A 
ENDBRANCH   1  20
TORSDOF 3
ENDMDL
MODEL 3
REMARK VINA RESULT:      95.7      2.636      4.881
REMARK  3 active torsions:
REMARK  status: ('A' for Active; 'I' for Inactive)
REMARK    1  A    between atoms: C_3  and  C_1 
REMARK    2  A    between atoms: N_4  and  C_3 
REMARK    3  A    between atoms: C_8  and  C_3 
ROOT
ATOM      1  C   UNL d   1     -49.934  26.716  33.808  0.00  0.00     0.069 C 
ENDROOT
BRANCH   1   2
ATOM      2  C   UNL d   1     -49.474  27.354  34.068  0.00  0.00     0.057 A 
ATOM      3  C   UNL d   1     -49.456  27.549  34.870  0.00  0.00     0.214 A 
ATOM      4  C   UNL d   1     -48.997  28.182  35.115  0.00  0.00     0.120 A 
ATOM      5  O   UNL d   1     -49.894  27.114  35.426  0.00  0.00    -0.285 OA
ATOM      6  N   UNL d   1     -48.968  28.389  35.913  0.00  0.00    -0.241 NA
ATOM      7  C   UNL d   1     -48.558  28.617  34.559  0.00  0.00     0.021 A 
ATOM      8  C   UNL d   1     -48.502  29.030  36.147  0.00  0.00     0.099 A 
ATOM      9  C   UNL d   1     -48.081  29.447  35.614  0.00  0.00     0.021 A 
ATOM     10  C   UNL d   1     -48.098  29.253  34.809  0.00  0.00     0.003 A 
ATOM     11  C   UNL d   1     -48.585  28.413  33.767  0.00  0.00     0.002 A 
ATOM     12  C   UNL d   1     -49.053  27.771  33.535  0.00  0.00     0.005 A 
ENDBRANCH   1   2
BRANCH   1  13
ATOM     13  N   UNL d   1     -50.742  26.803  33.705  0.00  0.00    -0.301 N 
ATOM     14  C   UNL d   1     -51.038  27.517  33.427  0.00  0.00     0.100 A 
ATOM     15  C   UNL d   1     -51.857  27.609  33.321  0.00  0.00     0.100 A 
ATOM     16  N   UNL d   1     -52.363  26.998  33.490  0.00  0.00    -0.299 N 
ATOM     17  C   UNL d   1     -52.068  26.280  33.769  0.00  0.00     0.100 A 
ATOM     18  C   UNL d   1     -53.165  27.081  33.389  0.00  0.00     0.100 C 
ATOM     19  C   UNL d   1     -51.264  26.189  33.874  0.00  0.00     0.100 A 
ENDBRANCH   1  13
BRANCH   1  20
ATOM     20  C   UNL d   1     -49.600  25.989  33.649  0.00  0.00     0.035 A 
ATOM     21  C   UNL d   1     -48.807  25.926  33.472  0.00  0.00     0.100 A 
ATOM     22  N   UNL d   1     -48.464  25.193  33.311  0.00  0.00    -0.242 NA
ATOM     23  C   UNL d   1     -48.935  24.513  33.329  0.00  0.00     0.099 A 
ATOM     24  C   UNL d   1     -49.732  24.573  33.506  0.00  0.00     0.021 A 
ATOM     25  C   UNL d   1     -50.071  25.310  33.668  0.00  0.00     0.005 A 
ENDBRANCH   1  20
TORSDOF 3
ENDMDL
