MODEL 1
REMARK VINA RESULT:      -4.9      0.000      0.000
REMARK  4 active torsions:
REMARK  status: ('A' for Active; 'I' for Inactive)
REMARK    1  A    between atoms: N_2  and  S_1 
REMARK    2  A    between atoms: C_4  and  S_1 
REMARK    3  A    between atoms: C_3  and  C_8 
REMARK       I    between atoms: N_5  and  C_3 
REMARK    4  A    between atoms: C_17  and  N_5 
ROOT
ATOM      1  C   UNL d   1      56.166   0.040  32.813  0.00  0.00     0.104 A 
ATOM      2  C   UNL d   1      57.069  -0.279  31.473  0.00  0.00     0.058 A 
ATOM      3  C   UNL d   1      56.278  -0.748  32.552  0.00  0.00     0.013 A 
ATOM      4  C   UNL d   1      56.517   0.671  32.388  0.00  0.00     0.013 A 
ATOM      5  C   UNL d   1      56.729  -0.896  31.885  0.00  0.00     0.005 A 
ATOM      6  C   UNL d   1      56.968   0.516  31.719  0.00  0.00     0.005 A 
ENDROOT
BRANCH   1   7
ATOM      7  S   UNL d   1      55.710   0.209  33.491  0.00  0.00     0.272 S 
ATOM      8  O   UNL d   1      56.338   0.656  33.823  0.00  0.00    -0.200 OA
ATOM      9  O   UNL d   1      55.070  -0.238  33.165  0.00  0.00    -0.200 OA
BRANCH   7  10
ATOM     10  N   UNL d   1      55.236   0.368  34.163  0.00  0.00    -0.225 N 
ATOM     11  C   UNL d   1      54.416   0.431  34.087  0.00  0.00     0.118 A 
ATOM     12  C   UNL d   1      53.964   0.586  34.749  0.00  0.00     0.142 A 
ATOM     13  O   UNL d   1      54.331   0.682  35.510  0.00  0.00    -0.300 OA
ATOM     14  C   UNL d   1      55.139   0.620  35.587  0.00  0.00     0.142 A 
ATOM     15  C   UNL d   1      55.603   0.464  34.924  0.00  0.00     0.118 A 
ENDBRANCH   7  10
ENDBRANCH   1   7
BRANCH   2  16
ATOM     16  C   UNL d   1      57.530  -0.421  30.794  0.00  0.00     0.279 C 
ATOM     17  N   UNL d   1      58.110   0.111  30.554  0.00  0.00    -0.208 NA
ATOM     18  O   UNL d   1      57.387  -1.113  30.365  0.00  0.00    -0.265 OA
BRANCH  17  19
ATOM     19  C   UNL d   1      58.570  -0.031  29.874  0.00  0.00     0.085 A 
ATOM     20  C   UNL d   1      59.300  -0.409  29.953  0.00  0.00     0.019 A 
ATOM     21  C   UNL d   1      59.768  -0.558  29.290  0.00  0.00     0.002 A 
ATOM     22  C   UNL d   1      59.496  -0.323  28.552  0.00  0.00     0.000 A 
ATOM     23  C   UNL d   1      58.766   0.055  28.473  0.00  0.00     0.002 A 
ATOM     24  C   UNL d   1      58.308   0.199  29.133  0.00  0.00     0.019 A 
ENDBRANCH  17  19
ENDBRANCH   2  16
TORSDOF 4
ENDMDL
