MODEL 1
REMARK VINA RESULT:      49.7      0.000      0.000
REMARK  4 active torsions:
REMARK  status: ('A' for Active; 'I' for Inactive)
REMARK    1  A    between atoms: N_4  and  S_1 
REMARK    2  A    between atoms: C_5  and  S_1 
REMARK    3  A    between atoms: S_2  and  N_3 
REMARK    4  A    between atoms: C_6  and  S_2 
ROOT
ATOM      1  N   UNL d   1     -51.499  24.696  33.592  0.00  0.00    -0.226 N 
ATOM      2  N   UNL d   1     -50.667  26.101  33.827  0.00  0.00    -0.226 N 
ATOM      3  C   UNL d   1     -51.861  25.341  34.000  0.00  0.00     0.111 A 
ATOM      4  C   UNL d   1     -51.444  26.034  34.114  0.00  0.00     0.111 A 
ATOM      5  C   UNL d   1     -50.311  25.468  33.426  0.00  0.00     0.111 A 
ATOM      6  C   UNL d   1     -50.728  24.759  33.307  0.00  0.00     0.111 A 
ENDROOT
BRANCH   1   7
ATOM      7  S   UNL d   1     -51.913  23.950  33.456  0.00  0.00     0.277 S 
ATOM      8  O   UNL d   1     -51.196  23.525  33.502  0.00  0.00    -0.199 OA
ATOM      9  O   UNL d   1     -52.335  23.234  33.322  0.00  0.00    -0.199 OA
BRANCH   7  10
ATOM     10  C   UNL d   1     -52.649  24.376  33.407  0.00  0.00     0.133 A 
ATOM     11  S   UNL d   1     -52.823  25.148  33.317  0.00  0.00    -0.074 SA
ATOM     12  C   UNL d   1     -53.630  25.225  33.308  0.00  0.00     0.036 A 
ATOM     13  C   UNL d   1     -53.981  24.493  33.394  0.00  0.00     0.008 A 
ATOM     14  C   UNL d   1     -53.373  23.953  33.456  0.00  0.00     0.020 A 
ENDBRANCH   7  10
ENDBRANCH   1   7
BRANCH   2  15
ATOM     15  S   UNL d   1     -50.244  26.814  33.946  0.00  0.00     0.277 S 
ATOM     16  O   UNL d   1     -49.838  26.461  34.576  0.00  0.00    -0.199 OA
ATOM     17  O   UNL d   1     -50.663  27.154  33.309  0.00  0.00    -0.199 OA
BRANCH  15  18
ATOM     18  C   UNL d   1     -49.830  27.520  34.059  0.00  0.00     0.133 A 
ATOM     19  S   UNL d   1     -49.175  27.713  34.522  0.00  0.00    -0.074 SA
ATOM     20  C   UNL d   1     -49.013  28.516  34.405  0.00  0.00     0.036 A 
ATOM     21  C   UNL d   1     -49.558  28.809  33.880  0.00  0.00     0.008 A 
ATOM     22  C   UNL d   1     -50.069  28.205  33.658  0.00  0.00     0.020 A 
ENDBRANCH  15  18
ENDBRANCH   2  15
TORSDOF 4
ENDMDL
