MODEL 1
REMARK VINA RESULT:      -3.5      0.000      0.000
REMARK  5 active torsions:
REMARK  status: ('A' for Active; 'I' for Inactive)
REMARK    1  A    between atoms: C_6  and  N_1 
REMARK    2  A    between atoms: C_5  and  C_6 
REMARK       I    between atoms: N_7  and  C_5 
REMARK    3  A    between atoms: C_8  and  N_7 
REMARK    4  A    between atoms: O_19  and  C_9 
REMARK    5  A    between atoms: O_20  and  C_17 
ROOT
ATOM      1  C   UNL d   1     -41.994-122.742 -50.977  0.00  0.00     0.297 C 
ATOM      2  N   UNL d   1     -41.792-122.281 -51.631  0.00  0.00    -0.205 NA
ATOM      3  O   UNL d   1     -42.028-123.563 -51.047  0.00  0.00    -0.264 OA
ENDROOT
BRANCH   1   4
ATOM      4  C   UNL d   1     -42.162-122.385 -50.257  0.00  0.00     0.148 C 
BRANCH   4   5
ATOM      5  N   UNL d   1     -42.424-122.839 -49.621  0.00  0.00    -0.235 N 
ATOM      6  C   UNL d   1     -41.902-123.013 -48.995  0.00  0.00     0.273 A 
ATOM      7  C   UNL d   1     -42.164-123.468 -48.358  0.00  0.00     0.086 A 
ATOM      8  O   UNL d   1     -41.123-122.728 -49.017  0.00  0.00    -0.266 OA
ATOM      9  C   UNL d   1     -41.651-123.645 -47.733  0.00  0.00     0.012 C 
ATOM     10  S   UNL d   1     -42.949-123.749 -48.347  0.00  0.00    -0.077 SA
ATOM     11  C   UNL d   1     -43.455-123.573 -48.965  0.00  0.00     0.097 A 
ATOM     12  C   UNL d   1     -43.193-123.119 -49.602  0.00  0.00     0.274 A 
ATOM     13  O   UNL d   1     -43.712-122.940 -50.235  0.00  0.00    -0.266 OA
ENDBRANCH   4   5
ENDBRANCH   1   4
BRANCH   2  14
ATOM     14  C   UNL d   1     -41.625-122.642 -52.354  0.00  0.00     0.107 A 
ATOM     15  C   UNL d   1     -41.766-122.243 -53.051  0.00  0.00     0.114 A 
ATOM     16  C   UNL d   1     -41.604-122.590 -53.766  0.00  0.00     0.050 A 
ATOM     17  C   UNL d   1     -41.290-123.362 -53.788  0.00  0.00     0.096 A 
ATOM     18  C   UNL d   1     -41.149-123.761 -53.090  0.00  0.00     0.026 A 
ATOM     19  C   UNL d   1     -41.320-123.393 -52.363  0.00  0.00     0.023 A 
BRANCH  15  20
ATOM     20  O   UNL d   1     -42.082-121.464 -53.041  0.00  0.00    -0.327 OA
ATOM     21  C   UNL d   1     -42.302-121.102 -53.754  0.00  0.00     0.181 C 
ENDBRANCH  15  20
BRANCH  17  22
ATOM     22  O   UNL d   1     -41.123-123.720 -54.526  0.00  0.00    -0.328 OA
ATOM     23  C   UNL d   1     -41.697-123.751 -55.118  0.00  0.00     0.181 C 
ENDBRANCH  17  22
ENDBRANCH   2  14
TORSDOF 5
ENDMDL
MODEL 2
REMARK VINA RESULT:      -2.8      1.813      4.527
REMARK  5 active torsions:
REMARK  status: ('A' for Active; 'I' for Inactive)
REMARK    1  A    between atoms: C_6  and  N_1 
REMARK    2  A    between atoms: C_5  and  C_6 
REMARK       I    between atoms: N_7  and  C_5 
REMARK    3  A    between atoms: C_8  and  N_7 
REMARK    4  A    between atoms: O_19  and  C_9 
REMARK    5  A    between atoms: O_20  and  C_17 
ROOT
ATOM      1  C   UNL d   1     -41.366-122.717 -52.522  0.00  0.00     0.297 C 
ATOM      2  N   UNL d   1     -41.505-122.277 -51.838  0.00  0.00    -0.205 NA
ATOM      3  O   UNL d   1     -41.380-123.541 -52.491  0.00  0.00    -0.264 OA
ENDROOT
BRANCH   1   4
ATOM      4  C   UNL d   1     -41.214-122.336 -53.233  0.00  0.00     0.148 C 
BRANCH   4   5
ATOM      5  N   UNL d   1     -41.686-122.486 -53.892  0.00  0.00    -0.235 N 
ATOM      6  C   UNL d   1     -42.205-121.896 -54.172  0.00  0.00     0.273 A 
ATOM      7  C   UNL d   1     -42.677-122.046 -54.831  0.00  0.00     0.086 A 
ATOM      8  O   UNL d   1     -42.242-121.163 -53.784  0.00  0.00    -0.266 OA
ATOM      9  C   UNL d   1     -43.194-121.465 -55.114  0.00  0.00     0.012 C 
ATOM     10  S   UNL d   1     -42.631-122.786 -55.213  0.00  0.00    -0.077 SA
ATOM     11  C   UNL d   1     -42.119-123.359 -54.932  0.00  0.00     0.097 A 
ATOM     12  C   UNL d   1     -41.647-123.209 -54.272  0.00  0.00     0.274 A 
ATOM     13  O   UNL d   1     -41.123-123.797 -53.986  0.00  0.00    -0.266 OA
ENDBRANCH   4   5
ENDBRANCH   1   4
BRANCH   2  14
ATOM     14  C   UNL d   1     -41.658-122.662 -51.124  0.00  0.00     0.107 A 
ATOM     15  C   UNL d   1     -42.305-122.447 -50.676  0.00  0.00     0.114 A 
ATOM     16  C   UNL d   1     -42.463-122.820 -49.974  0.00  0.00     0.050 A 
ATOM     17  C   UNL d   1     -41.960-123.428 -49.708  0.00  0.00     0.096 A 
ATOM     18  C   UNL d   1     -41.313-123.643 -50.156  0.00  0.00     0.026 A 
ATOM     19  C   UNL d   1     -41.162-123.252 -50.876  0.00  0.00     0.023 A 
BRANCH  15  20
ATOM     20  O   UNL d   1     -42.819-121.835 -50.934  0.00  0.00    -0.327 OA
ATOM     21  C   UNL d   1     -43.431-121.577 -50.438  0.00  0.00     0.181 C 
ENDBRANCH  15  20
BRANCH  17  22
ATOM     22  O   UNL d   1     -42.124-123.813 -48.982  0.00  0.00    -0.328 OA
ATOM     23  C   UNL d   1     -41.576-123.800 -48.366  0.00  0.00     0.181 C 
ENDBRANCH  17  22
ENDBRANCH   2  14
TORSDOF 5
ENDMDL
MODEL 3
REMARK VINA RESULT:      -2.0      0.255      1.200
REMARK  5 active torsions:
REMARK  status: ('A' for Active; 'I' for Inactive)
REMARK    1  A    between atoms: C_6  and  N_1 
REMARK    2  A    between atoms: C_5  and  C_6 
REMARK       I    between atoms: N_7  and  C_5 
REMARK    3  A    between atoms: C_8  and  N_7 
REMARK    4  A    between atoms: O_19  and  C_9 
REMARK    5  A    between atoms: O_20  and  C_17 
ROOT
ATOM      1  C   UNL d   1     -42.061-122.711 -51.100  0.00  0.00     0.297 C 
ATOM      2  N   UNL d   1     -41.968-122.266 -51.788  0.00  0.00    -0.205 NA
ATOM      3  O   UNL d   1     -41.942-123.528 -51.118  0.00  0.00    -0.264 OA
ENDROOT
BRANCH   1   4
ATOM      4  C   UNL d   1     -42.272-122.343 -50.397  0.00  0.00     0.148 C 
BRANCH   4   5
ATOM      5  N   UNL d   1     -42.468-122.796 -49.736  0.00  0.00    -0.235 N 
ATOM      6  C   UNL d   1     -43.247-123.079 -49.646  0.00  0.00     0.273 A 
ATOM      7  C   UNL d   1     -43.444-123.532 -48.985  0.00  0.00     0.086 A 
ATOM      8  O   UNL d   1     -43.818-122.905 -50.223  0.00  0.00    -0.266 OA
ATOM      9  C   UNL d   1     -44.215-123.817 -48.889  0.00  0.00     0.012 C 
ATOM     10  S   UNL d   1     -42.862-123.701 -48.412  0.00  0.00    -0.077 SA
ATOM     11  C   UNL d   1     -42.100-123.418 -48.508  0.00  0.00     0.097 A 
ATOM     12  C   UNL d   1     -41.904-122.966 -49.169  0.00  0.00     0.274 A 
ATOM     13  O   UNL d   1     -41.123-122.677 -49.266  0.00  0.00    -0.266 OA
ENDBRANCH   4   5
ENDBRANCH   1   4
BRANCH   2  14
ATOM     14  C   UNL d   1     -41.756-122.638 -52.494  0.00  0.00     0.107 A 
ATOM     15  C   UNL d   1     -41.900-122.271 -53.208  0.00  0.00     0.114 A 
ATOM     16  C   UNL d   1     -41.696-122.628 -53.905  0.00  0.00     0.050 A 
ATOM     17  C   UNL d   1     -41.334-123.379 -53.893  0.00  0.00     0.096 A 
ATOM     18  C   UNL d   1     -41.190-123.747 -53.179  0.00  0.00     0.026 A 
ATOM     19  C   UNL d   1     -41.406-123.368 -52.470  0.00  0.00     0.023 A 
BRANCH  15  20
ATOM     20  O   UNL d   1     -42.264-121.513 -53.232  0.00  0.00    -0.327 OA
ATOM     21  C   UNL d   1     -42.477-121.185 -53.963  0.00  0.00     0.181 C 
ENDBRANCH  15  20
BRANCH  17  22
ATOM     22  O   UNL d   1     -41.123-123.749 -54.614  0.00  0.00    -0.328 OA
ATOM     23  C   UNL d   1     -41.638-123.738 -55.259  0.00  0.00     0.181 C 
ENDBRANCH  17  22
ENDBRANCH   2  14
TORSDOF 5
ENDMDL
MODEL 4
REMARK VINA RESULT:      -1.4      1.745      4.466
REMARK  5 active torsions:
REMARK  status: ('A' for Active; 'I' for Inactive)
REMARK    1  A    between atoms: C_6  and  N_1 
REMARK    2  A    between atoms: C_5  and  C_6 
REMARK       I    between atoms: N_7  and  C_5 
REMARK    3  A    between atoms: C_8  and  N_7 
REMARK    4  A    between atoms: O_19  and  C_9 
REMARK    5  A    between atoms: O_20  and  C_17 
ROOT
ATOM      1  C   UNL d   1     -41.456-122.443 -52.333  0.00  0.00     0.297 C 
ATOM      2  N   UNL d   1     -41.783-122.066 -51.676  0.00  0.00    -0.205 NA
ATOM      3  O   UNL d   1     -41.286-123.250 -52.304  0.00  0.00    -0.264 OA
ENDROOT
BRANCH   1   4
ATOM      4  C   UNL d   1     -41.299-122.016 -53.017  0.00  0.00     0.148 C 
BRANCH   4   5
ATOM      5  N   UNL d   1     -41.716-122.177 -53.710  0.00  0.00    -0.235 N 
ATOM      6  C   UNL d   1     -41.629-122.918 -54.082  0.00  0.00     0.273 A 
ATOM      7  C   UNL d   1     -42.045-123.080 -54.775  0.00  0.00     0.086 A 
ATOM      8  O   UNL d   1     -41.123-123.488 -53.751  0.00  0.00    -0.266 OA
ATOM      9  C   UNL d   1     -41.964-123.813 -55.150  0.00  0.00     0.012 C 
ATOM     10  S   UNL d   1     -42.550-122.500 -55.098  0.00  0.00    -0.077 SA
ATOM     11  C   UNL d   1     -42.631-121.776 -54.727  0.00  0.00     0.097 A 
ATOM     12  C   UNL d   1     -42.214-121.615 -54.033  0.00  0.00     0.274 A 
ATOM     13  O   UNL d   1     -42.297-120.872 -53.654  0.00  0.00    -0.266 OA
ENDBRANCH   4   5
ENDBRANCH   1   4
BRANCH   2  14
ATOM     14  C   UNL d   1     -41.939-122.497 -50.990  0.00  0.00     0.107 A 
ATOM     15  C   UNL d   1     -42.616-122.347 -50.560  0.00  0.00     0.114 A 
ATOM     16  C   UNL d   1     -42.778-122.765 -49.885  0.00  0.00     0.050 A 
ATOM     17  C   UNL d   1     -42.248-123.354 -49.628  0.00  0.00     0.096 A 
ATOM     18  C   UNL d   1     -41.570-123.504 -50.057  0.00  0.00     0.026 A 
ATOM     19  C   UNL d   1     -41.416-123.066 -50.749  0.00  0.00     0.023 A 
BRANCH  15  20
ATOM     20  O   UNL d   1     -43.159-121.756 -50.811  0.00  0.00    -0.327 OA
ATOM     21  C   UNL d   1     -43.886-121.675 -50.420  0.00  0.00     0.181 C 
ENDBRANCH  15  20
BRANCH  17  22
ATOM     22  O   UNL d   1     -42.415-123.786 -48.930  0.00  0.00    -0.328 OA
ATOM     23  C   UNL d   1     -42.501-123.399 -48.206  0.00  0.00     0.181 C 
ENDBRANCH  17  22
ENDBRANCH   2  14
TORSDOF 5
ENDMDL
