MODEL 1
REMARK VINA RESULT:      -2.9      0.000      0.000
REMARK  5 active torsions:
REMARK  status: ('A' for Active; 'I' for Inactive)
REMARK    1  A    between atoms: C_8  and  C_1 
REMARK    2  A    between atoms: N_4  and  C_2 
REMARK       I    between atoms: C_6  and  N_4 
REMARK    3  A    between atoms: C_9  and  C_6 
REMARK    4  A    between atoms: O_20  and  C_15 
REMARK    5  A    between atoms: C_21  and  O_20 
ROOT
ATOM      1  C   UNL d   1      59.160  -0.565  28.938  0.00  0.00     0.177 A 
ATOM      2  C   UNL d   1      58.622  -1.026  29.361  0.00  0.00     0.114 A 
ATOM      3  O   UNL d   1      59.676  -1.075  28.525  0.00  0.00    -0.301 OA
ATOM      4  C   UNL d   1      58.795  -1.819  29.219  0.00  0.00     0.043 A 
ATOM      5  C   UNL d   1      59.459  -1.847  28.692  0.00  0.00     0.102 A 
ATOM      6  C   UNL d   1      58.453  -2.515  29.486  0.00  0.00     0.004 A 
ATOM      7  C   UNL d   1      59.751  -2.574  28.455  0.00  0.00     0.025 A 
ATOM      8  C   UNL d   1      58.749  -3.253  29.246  0.00  0.00     0.000 A 
ATOM      9  C   UNL d   1      59.390  -3.288  28.737  0.00  0.00     0.002 A 
ENDROOT
BRANCH   2  10
ATOM     10  N   UNL d   1      58.006  -0.714  29.853  0.00  0.00    -0.206 NA
ATOM     11  C   UNL d   1      58.099  -0.715  30.674  0.00  0.00     0.279 C 
ATOM     12  O   UNL d   1      58.778  -1.013  31.027  0.00  0.00    -0.265 OA
BRANCH  11  13
ATOM     13  C   UNL d   1      57.497  -0.411  31.154  0.00  0.00     0.058 A 
ATOM     14  C   UNL d   1      57.531   0.364  31.386  0.00  0.00     0.007 A 
ATOM     15  C   UNL d   1      56.917   0.675  31.875  0.00  0.00     0.025 A 
ATOM     16  C   UNL d   1      56.299   0.187  32.106  0.00  0.00     0.100 A 
ATOM     17  C   UNL d   1      56.260  -0.613  31.869  0.00  0.00     0.025 A 
ATOM     18  C   UNL d   1      56.875  -0.924  31.379  0.00  0.00     0.007 A 
BRANCH  16  19
ATOM     19  O   UNL d   1      55.685   0.497  32.595  0.00  0.00    -0.305 OA
BRANCH  19  20
ATOM     20  C   UNL d   1      55.498   0.126  33.307  0.00  0.00     0.123 C 
ATOM     21  C   UNL d   1      55.051   0.520  33.869  0.00  0.00     0.029 C 
ENDBRANCH  19  20
ENDBRANCH  16  19
ENDBRANCH  11  13
ENDBRANCH   2  10
BRANCH   1  22
ATOM     22  C   UNL d   1      59.160   0.259  28.944  0.00  0.00     0.321 C 
ATOM     23  O   UNL d   1      58.550   0.679  28.545  0.00  0.00    -0.261 OA
ATOM     24  N   UNL d   1      59.761   0.682  29.344  0.00  0.00    -0.101 N 
ENDBRANCH   1  22
TORSDOF 5
ENDMDL
MODEL 2
REMARK VINA RESULT:      -2.1      1.020      1.970
REMARK  5 active torsions:
REMARK  status: ('A' for Active; 'I' for Inactive)
REMARK    1  A    between atoms: C_8  and  C_1 
REMARK    2  A    between atoms: N_4  and  C_2 
REMARK       I    between atoms: C_6  and  N_4 
REMARK    3  A    between atoms: C_9  and  C_6 
REMARK    4  A    between atoms: O_20  and  C_15 
REMARK    5  A    between atoms: C_21  and  O_20 
ROOT
ATOM      1  C   UNL d   1      59.245  -1.734  29.065  0.00  0.00     0.177 A 
ATOM      2  C   UNL d   1      59.080  -0.984  29.368  0.00  0.00     0.114 A 
ATOM      3  O   UNL d   1      59.979  -1.702  28.670  0.00  0.00    -0.301 OA
ATOM      4  C   UNL d   1      59.702  -0.482  29.167  0.00  0.00     0.043 A 
ATOM      5  C   UNL d   1      60.266  -0.937  28.728  0.00  0.00     0.102 A 
ATOM      6  C   UNL d   1      59.840   0.312  29.316  0.00  0.00     0.004 A 
ATOM      7  C   UNL d   1      60.948  -0.573  28.455  0.00  0.00     0.025 A 
ATOM      8  C   UNL d   1      60.531   0.682  29.040  0.00  0.00     0.000 A 
ATOM      9  C   UNL d   1      61.081   0.249  28.615  0.00  0.00     0.002 A 
ENDROOT
BRANCH   2  10
ATOM     10  N   UNL d   1      58.382  -0.788  29.808  0.00  0.00    -0.206 NA
ATOM     11  C   UNL d   1      58.454  -0.481  30.573  0.00  0.00     0.279 C 
ATOM     12  O   UNL d   1      59.190  -0.362  30.918  0.00  0.00    -0.265 OA
BRANCH  11  13
ATOM     13  C   UNL d   1      57.774  -0.290  31.002  0.00  0.00     0.058 A 
ATOM     14  C   UNL d   1      57.550   0.485  31.062  0.00  0.00     0.007 A 
ATOM     15  C   UNL d   1      56.854   0.681  31.500  0.00  0.00     0.025 A 
ATOM     16  C   UNL d   1      56.420   0.083  31.856  0.00  0.00     0.100 A 
ATOM     17  C   UNL d   1      56.647  -0.718  31.797  0.00  0.00     0.025 A 
ATOM     18  C   UNL d   1      57.343  -0.914  31.358  0.00  0.00     0.007 A 
BRANCH  16  19
ATOM     19  O   UNL d   1      55.726   0.278  32.294  0.00  0.00    -0.305 OA
BRANCH  19  20
ATOM     20  C   UNL d   1      55.579  -0.087  33.018  0.00  0.00     0.123 C 
ATOM     21  C   UNL d   1      55.329   0.358  33.658  0.00  0.00     0.029 C 
ENDBRANCH  19  20
ENDBRANCH  16  19
ENDBRANCH  11  13
ENDBRANCH   2  10
BRANCH   1  22
ATOM     22  C   UNL d   1      58.747  -2.383  29.156  0.00  0.00     0.321 C 
ATOM     23  O   UNL d   1      58.916  -2.962  29.742  0.00  0.00    -0.261 OA
ATOM     24  N   UNL d   1      58.071  -2.473  28.669  0.00  0.00    -0.101 N 
ENDBRANCH   1  22
TORSDOF 5
ENDMDL
MODEL 3
REMARK VINA RESULT:      -0.7      1.816      5.494
REMARK  5 active torsions:
REMARK  status: ('A' for Active; 'I' for Inactive)
REMARK    1  A    between atoms: C_8  and  C_1 
REMARK    2  A    between atoms: N_4  and  C_2 
REMARK       I    between atoms: C_6  and  N_4 
REMARK    3  A    between atoms: C_9  and  C_6 
REMARK    4  A    between atoms: O_20  and  C_15 
REMARK    5  A    between atoms: C_21  and  O_20 
ROOT
ATOM      1  C   UNL d   1      56.390   0.662  34.428  0.00  0.00     0.177 A 
ATOM      2  C   UNL d   1      56.042   0.657  33.679  0.00  0.00     0.114 A 
ATOM      3  O   UNL d   1      55.782   0.672  35.000  0.00  0.00    -0.301 OA
ATOM      4  C   UNL d   1      55.224   0.663  33.775  0.00  0.00     0.043 A 
ATOM      5  C   UNL d   1      55.063   0.673  34.607  0.00  0.00     0.102 A 
ATOM      6  C   UNL d   1      54.605   0.662  33.236  0.00  0.00     0.004 A 
ATOM      7  C   UNL d   1      54.285   0.681  34.864  0.00  0.00     0.025 A 
ATOM      8  C   UNL d   1      53.816   0.670  33.496  0.00  0.00     0.000 A 
ATOM      9  C   UNL d   1      53.653   0.679  34.298  0.00  0.00     0.002 A 
ENDROOT
BRANCH   2  10
ATOM     10  N   UNL d   1      56.475   0.646  32.950  0.00  0.00    -0.206 NA
ATOM     11  C   UNL d   1      56.449  -0.026  32.469  0.00  0.00     0.279 C 
ATOM     12  O   UNL d   1      56.010  -0.687  32.683  0.00  0.00    -0.265 OA
BRANCH  11  13
ATOM     13  C   UNL d   1      56.870  -0.036  31.758  0.00  0.00     0.058 A 
ATOM     14  C   UNL d   1      57.195  -0.731  31.501  0.00  0.00     0.007 A 
ATOM     15  C   UNL d   1      57.626  -0.742  30.774  0.00  0.00     0.025 A 
ATOM     16  C   UNL d   1      57.707  -0.048  30.344  0.00  0.00     0.100 A 
ATOM     17  C   UNL d   1      57.375   0.672  30.605  0.00  0.00     0.025 A 
ATOM     18  C   UNL d   1      56.944   0.682  31.332  0.00  0.00     0.007 A 
BRANCH  16  19
ATOM     19  O   UNL d   1      58.138  -0.059  29.618  0.00  0.00    -0.305 OA
BRANCH  19  20
ATOM     20  C   UNL d   1      58.719  -0.630  29.492  0.00  0.00     0.123 C 
ATOM     21  C   UNL d   1      59.305  -0.501  28.934  0.00  0.00     0.029 C 
ENDBRANCH  19  20
ENDBRANCH  16  19
ENDBRANCH  11  13
ENDBRANCH   2  10
BRANCH   1  22
ATOM     22  C   UNL d   1      57.204   0.658  34.554  0.00  0.00     0.321 C 
ATOM     23  O   UNL d   1      57.728   0.676  33.897  0.00  0.00    -0.261 OA
ATOM     24  N   UNL d   1      57.514   0.635  35.332  0.00  0.00    -0.101 N 
ENDBRANCH   1  22
TORSDOF 5
ENDMDL
