MODEL 1
REMARK VINA RESULT:      -7.0      0.000      0.000
REMARK  3 active torsions:
REMARK  status: ('A' for Active; 'I' for Inactive)
REMARK    1  A    between atoms: N_10  and  C_3 
REMARK    2  A    between atoms: C_13  and  C_5 
REMARK    3  A    between atoms: C_12  and  C_9 
ROOT
ATOM      1  N   UNL d   1     -47.813  13.829  22.579  0.00  0.00    -0.196 N 
ATOM      2  C   UNL d   1     -48.611  13.863  22.767  0.00  0.00     0.167 A 
ATOM      3  C   UNL d   1     -47.420  13.104  22.559  0.00  0.00     0.152 A 
ATOM      4  N   UNL d   1     -47.552  14.594  22.437  0.00  0.00    -0.163 NA
ATOM      5  C   UNL d   1     -48.846  14.649  22.742  0.00  0.00     0.055 A 
ATOM      6  N   UNL d   1     -49.028  13.172  22.938  0.00  0.00    -0.231 NA
ATOM      7  C   UNL d   1     -47.837  12.412  22.731  0.00  0.00     0.052 A 
ATOM      8  C   UNL d   1     -48.197  15.103  22.540  0.00  0.00     0.104 A 
ATOM      9  C   UNL d   1     -48.635  12.446  22.919  0.00  0.00     0.063 A 
ATOM     10  C   UNL d   1     -48.196  15.920  22.455  0.00  0.00     0.023 C 
ENDROOT
BRANCH   3  11
ATOM     11  N   UNL d   1     -46.622  13.070  22.371  0.00  0.00    -0.286 N 
ATOM     12  C   UNL d   1     -46.383  12.911  21.597  0.00  0.00     0.101 A 
ATOM     13  C   UNL d   1     -45.580  12.877  21.408  0.00  0.00     0.100 A 
ATOM     14  N   UNL d   1     -45.014  13.002  21.992  0.00  0.00    -0.299 N 
ATOM     15  C   UNL d   1     -45.249  13.162  22.764  0.00  0.00     0.100 A 
ATOM     16  C   UNL d   1     -44.211  12.969  21.803  0.00  0.00     0.100 C 
ATOM     17  C   UNL d   1     -46.051  13.196  22.953  0.00  0.00     0.101 A 
ENDBRANCH   3  11
BRANCH   9  18
ATOM     18  C   UNL d   1     -49.049  11.732  23.092  0.00  0.00     0.036 C 
ATOM     19  C   UNL d   1     -49.458  11.027  23.263  0.00  0.00     0.006 C 
ATOM     20  C   UNL d   1     -48.501  11.562  23.697  0.00  0.00     0.006 C 
ATOM     21  C   UNL d   1     -49.595  11.906  22.485  0.00  0.00     0.006 C 
ENDBRANCH   9  18
BRANCH   5  22
ATOM     22  C   UNL d   1     -49.573  15.015  22.879  0.00  0.00     0.004 A 
ATOM     23  C   UNL d   1     -50.200  14.921  22.345  0.00  0.00     0.000 A 
ATOM     24  C   UNL d   1     -50.924  15.288  22.485  0.00  0.00     0.000 A 
ATOM     25  C   UNL d   1     -51.033  15.754  23.160  0.00  0.00     0.000 A 
ATOM     26  C   UNL d   1     -50.403  15.849  23.698  0.00  0.00     0.000 A 
ATOM     27  C   UNL d   1     -49.680  15.479  23.553  0.00  0.00     0.000 A 
ENDBRANCH   5  22
TORSDOF 3
ENDMDL
MODEL 2
REMARK VINA RESULT:      -6.0      6.627      9.111
REMARK  3 active torsions:
REMARK  status: ('A' for Active; 'I' for Inactive)
REMARK    1  A    between atoms: N_10  and  C_3 
REMARK    2  A    between atoms: C_13  and  C_5 
REMARK    3  A    between atoms: C_12  and  C_9 
ROOT
ATOM      1  N   UNL d   1     -39.757  15.109  20.130  0.00  0.00    -0.196 N 
ATOM      2  C   UNL d   1     -39.831  14.958  20.933  0.00  0.00     0.167 A 
ATOM      3  C   UNL d   1     -40.353  14.882  19.607  0.00  0.00     0.152 A 
ATOM      4  N   UNL d   1     -39.039  15.488  20.008  0.00  0.00    -0.163 NA
ATOM      5  C   UNL d   1     -39.160  15.243  21.310  0.00  0.00     0.055 A 
ATOM      6  N   UNL d   1     -40.502  14.577  21.225  0.00  0.00    -0.231 NA
ATOM      7  C   UNL d   1     -41.025  14.501  19.899  0.00  0.00     0.052 A 
ATOM      8  C   UNL d   1     -38.670  15.571  20.744  0.00  0.00     0.104 A 
ATOM      9  C   UNL d   1     -41.099  14.350  20.701  0.00  0.00     0.063 A 
ATOM     10  C   UNL d   1     -37.940  15.918  20.890  0.00  0.00     0.023 C 
ENDROOT
BRANCH   3  11
ATOM     11  N   UNL d   1     -40.278  15.033  18.804  0.00  0.00    -0.286 N 
ATOM     12  C   UNL d   1     -39.965  14.460  18.299  0.00  0.00     0.101 A 
ATOM     13  C   UNL d   1     -39.890  14.612  17.492  0.00  0.00     0.100 A 
ATOM     14  N   UNL d   1     -40.129  15.338  17.185  0.00  0.00    -0.299 N 
ATOM     15  C   UNL d   1     -40.442  15.912  17.685  0.00  0.00     0.100 A 
ATOM     16  C   UNL d   1     -40.054  15.490  16.378  0.00  0.00     0.100 C 
ATOM     17  C   UNL d   1     -40.516  15.760  18.493  0.00  0.00     0.101 A 
ENDBRANCH   3  11
BRANCH   9  18
ATOM     18  C   UNL d   1     -41.790  13.961  20.986  0.00  0.00     0.036 C 
ATOM     19  C   UNL d   1     -42.473  13.576  21.267  0.00  0.00     0.006 C 
ATOM     20  C   UNL d   1     -42.190  14.692  21.014  0.00  0.00     0.006 C 
ATOM     21  C   UNL d   1     -41.387  13.231  20.957  0.00  0.00     0.006 C 
ENDBRANCH   9  18
BRANCH   5  22
ATOM     22  C   UNL d   1     -38.928  15.248  22.102  0.00  0.00     0.004 A 
ATOM     23  C   UNL d   1     -38.522  14.602  22.427  0.00  0.00     0.000 A 
ATOM     24  C   UNL d   1     -38.293  14.610  23.218  0.00  0.00     0.000 A 
ATOM     25  C   UNL d   1     -38.464  15.264  23.697  0.00  0.00     0.000 A 
ATOM     26  C   UNL d   1     -38.872  15.914  23.370  0.00  0.00     0.000 A 
ATOM     27  C   UNL d   1     -39.100  15.900  22.577  0.00  0.00     0.000 A 
ENDBRANCH   5  22
TORSDOF 3
ENDMDL
MODEL 3
REMARK VINA RESULT:      -5.4      0.968      4.021
REMARK  3 active torsions:
REMARK  status: ('A' for Active; 'I' for Inactive)
REMARK    1  A    between atoms: N_10  and  C_3 
REMARK    2  A    between atoms: C_13  and  C_5 
REMARK    3  A    between atoms: C_12  and  C_9 
ROOT
ATOM      1  N   UNL d   1     -47.984  13.753  22.731  0.00  0.00    -0.196 N 
ATOM      2  C   UNL d   1     -47.418  13.165  22.646  0.00  0.00     0.167 A 
ATOM      3  C   UNL d   1     -48.776  13.556  22.851  0.00  0.00     0.152 A 
ATOM      4  N   UNL d   1     -47.606  14.479  22.672  0.00  0.00    -0.163 NA
ATOM      5  C   UNL d   1     -46.689  13.525  22.535  0.00  0.00     0.055 A 
ATOM      6  N   UNL d   1     -47.636  12.369  22.681  0.00  0.00    -0.231 NA
ATOM      7  C   UNL d   1     -48.994  12.760  22.886  0.00  0.00     0.052 A 
ATOM      8  C   UNL d   1     -46.800  14.335  22.550  0.00  0.00     0.104 A 
ATOM      9  C   UNL d   1     -48.428  12.172  22.802  0.00  0.00     0.063 A 
ATOM     10  C   UNL d   1     -46.209  14.897  22.459  0.00  0.00     0.023 C 
ENDROOT
BRANCH   3  11
ATOM     11  N   UNL d   1     -49.341  14.144  22.935  0.00  0.00    -0.286 N 
ATOM     12  C   UNL d   1     -49.354  14.616  23.613  0.00  0.00     0.101 A 
ATOM     13  C   UNL d   1     -49.922  15.207  23.698  0.00  0.00     0.100 A 
ATOM     14  N   UNL d   1     -50.481  15.330  23.105  0.00  0.00    -0.299 N 
ATOM     15  C   UNL d   1     -50.471  14.862  22.429  0.00  0.00     0.100 A 
ATOM     16  C   UNL d   1     -51.050  15.921  23.190  0.00  0.00     0.100 C 
ATOM     17  C   UNL d   1     -49.903  14.270  22.344  0.00  0.00     0.101 A 
ENDBRANCH   3  11
BRANCH   9  18
ATOM     18  C   UNL d   1     -48.665  11.363  22.839  0.00  0.00     0.036 C 
ATOM     19  C   UNL d   1     -48.898  10.565  22.877  0.00  0.00     0.006 C 
ATOM     20  C   UNL d   1     -48.730  11.344  22.009  0.00  0.00     0.006 C 
ATOM     21  C   UNL d   1     -48.598  11.386  23.671  0.00  0.00     0.006 C 
ENDBRANCH   9  18
BRANCH   5  22
ATOM     22  C   UNL d   1     -45.931  13.219  22.421  0.00  0.00     0.004 A 
ATOM     23  C   UNL d   1     -45.510  12.887  23.054  0.00  0.00     0.000 A 
ATOM     24  C   UNL d   1     -44.754  12.584  22.935  0.00  0.00     0.000 A 
ATOM     25  C   UNL d   1     -44.405  12.607  22.184  0.00  0.00     0.000 A 
ATOM     26  C   UNL d   1     -44.829  12.941  21.548  0.00  0.00     0.000 A 
ATOM     27  C   UNL d   1     -45.586  13.244  21.671  0.00  0.00     0.000 A 
ENDBRANCH   5  22
TORSDOF 3
ENDMDL
MODEL 4
REMARK VINA RESULT:      -5.4      8.187      9.625
REMARK  3 active torsions:
REMARK  status: ('A' for Active; 'I' for Inactive)
REMARK    1  A    between atoms: N_10  and  C_3 
REMARK    2  A    between atoms: C_13  and  C_5 
REMARK    3  A    between atoms: C_12  and  C_9 
ROOT
ATOM      1  N   UNL d   1     -40.245  14.850  18.950  0.00  0.00    -0.196 N 
ATOM      2  C   UNL d   1     -39.759  14.528  19.526  0.00  0.00     0.167 A 
ATOM      3  C   UNL d   1     -40.164  14.624  18.160  0.00  0.00     0.152 A 
ATOM      4  N   UNL d   1     -40.757  15.378  19.315  0.00  0.00    -0.163 NA
ATOM      5  C   UNL d   1     -39.967  14.855  20.249  0.00  0.00     0.055 A 
ATOM      6  N   UNL d   1     -39.183  13.973  19.322  0.00  0.00    -0.231 NA
ATOM      7  C   UNL d   1     -39.588  14.069  17.956  0.00  0.00     0.052 A 
ATOM      8  C   UNL d   1     -40.581  15.379  20.124  0.00  0.00     0.104 A 
ATOM      9  C   UNL d   1     -39.101  13.746  18.532  0.00  0.00     0.063 A 
ATOM     10  C   UNL d   1     -40.953  15.824  20.706  0.00  0.00     0.023 C 
ENDROOT
BRANCH   3  11
ATOM     11  N   UNL d   1     -40.651  14.946  17.585  0.00  0.00    -0.286 N 
ATOM     12  C   UNL d   1     -41.444  14.722  17.535  0.00  0.00     0.101 A 
ATOM     13  C   UNL d   1     -41.933  15.046  16.956  0.00  0.00     0.100 A 
ATOM     14  N   UNL d   1     -41.632  15.597  16.423  0.00  0.00    -0.299 N 
ATOM     15  C   UNL d   1     -40.842  15.823  16.469  0.00  0.00     0.100 A 
ATOM     16  C   UNL d   1     -42.121  15.922  15.844  0.00  0.00     0.100 C 
ATOM     17  C   UNL d   1     -40.353  15.499  17.049  0.00  0.00     0.101 A 
ENDBRANCH   3  11
BRANCH   9  18
ATOM     18  C   UNL d   1     -38.517  13.180  18.310  0.00  0.00     0.036 C 
ATOM     19  C   UNL d   1     -37.940  12.622  18.090  0.00  0.00     0.006 C 
ATOM     20  C   UNL d   1     -39.090  12.576  18.344  0.00  0.00     0.006 C 
ATOM     21  C   UNL d   1     -37.946  13.789  18.276  0.00  0.00     0.006 C 
ENDBRANCH   9  18
BRANCH   5  22
ATOM     22  C   UNL d   1     -39.676  14.743  21.013  0.00  0.00     0.004 A 
ATOM     23  C   UNL d   1     -39.828  14.040  21.425  0.00  0.00     0.000 A 
ATOM     24  C   UNL d   1     -39.536  13.932  22.187  0.00  0.00     0.000 A 
ATOM     25  C   UNL d   1     -39.086  14.525  22.551  0.00  0.00     0.000 A 
ATOM     26  C   UNL d   1     -38.932  15.233  22.137  0.00  0.00     0.000 A 
ATOM     27  C   UNL d   1     -39.228  15.336  21.373  0.00  0.00     0.000 A 
ENDBRANCH   5  22
TORSDOF 3
ENDMDL
MODEL 5
REMARK VINA RESULT:      -4.3      5.655      9.656
REMARK  3 active torsions:
REMARK  status: ('A' for Active; 'I' for Inactive)
REMARK    1  A    between atoms: N_10  and  C_3 
REMARK    2  A    between atoms: C_13  and  C_5 
REMARK    3  A    between atoms: C_12  and  C_9 
ROOT
ATOM      1  N   UNL d   1     -40.310  14.450  19.597  0.00  0.00    -0.196 N 
ATOM      2  C   UNL d   1     -39.591  14.730  19.320  0.00  0.00     0.167 A 
ATOM      3  C   UNL d   1     -40.451  14.392  20.408  0.00  0.00     0.152 A 
ATOM      4  N   UNL d   1     -40.781  14.272  18.948  0.00  0.00    -0.163 NA
ATOM      5  C   UNL d   1     -39.613  14.725  18.499  0.00  0.00     0.055 A 
ATOM      6  N   UNL d   1     -39.000  14.955  19.850  0.00  0.00    -0.231 NA
ATOM      7  C   UNL d   1     -39.860  14.617  20.938  0.00  0.00     0.052 A 
ATOM      8  C   UNL d   1     -40.344  14.444  18.266  0.00  0.00     0.104 A 
ATOM      9  C   UNL d   1     -39.140  14.897  20.662  0.00  0.00     0.063 A 
ATOM     10  C   UNL d   1     -40.592  14.352  17.489  0.00  0.00     0.023 C 
ENDROOT
BRANCH   3  11
ATOM     11  N   UNL d   1     -41.171  14.112  20.684  0.00  0.00    -0.286 N 
ATOM     12  C   UNL d   1     -41.288  13.302  20.798  0.00  0.00     0.101 A 
ATOM     13  C   UNL d   1     -42.012  13.021  21.076  0.00  0.00     0.100 A 
ATOM     14  N   UNL d   1     -42.622  13.549  21.242  0.00  0.00    -0.299 N 
ATOM     15  C   UNL d   1     -42.510  14.356  21.129  0.00  0.00     0.100 A 
ATOM     16  C   UNL d   1     -43.346  13.267  21.520  0.00  0.00     0.100 C 
ATOM     17  C   UNL d   1     -41.786  14.637  20.851  0.00  0.00     0.101 A 
ENDBRANCH   3  11
BRANCH   9  18
ATOM     18  C   UNL d   1     -38.545  15.124  21.214  0.00  0.00     0.036 C 
ATOM     19  C   UNL d   1     -37.958  15.348  21.760  0.00  0.00     0.006 C 
ATOM     20  C   UNL d   1     -38.848  15.900  21.220  0.00  0.00     0.006 C 
ATOM     21  C   UNL d   1     -38.245  14.345  21.206  0.00  0.00     0.006 C 
ENDBRANCH   9  18
BRANCH   5  22
ATOM     22  C   UNL d   1     -39.058  14.943  17.928  0.00  0.00     0.004 A 
ATOM     23  C   UNL d   1     -39.055  15.710  17.613  0.00  0.00     0.000 A 
ATOM     24  C   UNL d   1     -38.501  15.922  17.043  0.00  0.00     0.000 A 
ATOM     25  C   UNL d   1     -37.940  15.373  16.779  0.00  0.00     0.000 A 
ATOM     26  C   UNL d   1     -37.943  14.601  17.096  0.00  0.00     0.000 A 
ATOM     27  C   UNL d   1     -38.501  14.393  17.666  0.00  0.00     0.000 A 
ENDBRANCH   5  22
TORSDOF 3
ENDMDL
