MODEL 1
REMARK VINA RESULT:      -3.5      0.000      0.000
REMARK  4 active torsions:
REMARK  status: ('A' for Active; 'I' for Inactive)
REMARK       I    between atoms: C_5  and  N_1 
REMARK    1  A    between atoms: N_3  and  C_8 
REMARK    2  A    between atoms: C_7  and  C_5 
REMARK    3  A    between atoms: C_11  and  C_7 
REMARK    4  A    between atoms: C_15  and  C_11 
ROOT
ATOM      1  N   UNL d   1      32.837  21.112 -21.768  0.00  0.00    -0.256 N 
ATOM      2  C   UNL d   1      32.619  20.761 -21.046  0.00  0.00     0.185 A 
ATOM      3  N   UNL d   1      32.490  21.374 -20.532  0.00  0.00    -0.224 NA
ATOM      4  C   UNL d   1      33.029  20.711 -22.479  0.00  0.00     0.266 C 
ATOM      5  C   UNL d   1      32.832  21.923 -21.662  0.00  0.00     0.086 A 
ATOM      6  C   UNL d   1      32.618  22.090 -20.897  0.00  0.00     0.099 A 
ATOM      7  O   UNL d   1      33.241  21.132 -23.171  0.00  0.00    -0.267 OA
ATOM      8  C   UNL d   1      33.003  22.539 -22.192  0.00  0.00     0.019 A 
ATOM      9  C   UNL d   1      32.568  22.863 -20.639  0.00  0.00     0.021 A 
ATOM     10  C   UNL d   1      32.957  23.335 -21.945  0.00  0.00     0.002 A 
ATOM     11  C   UNL d   1      32.731  23.509 -21.139  0.00  0.00     0.002 A 
ENDROOT
BRANCH   4  12
ATOM     12  C   UNL d   1      33.011  19.891 -22.506  0.00  0.00     0.061 C 
BRANCH  12  13
ATOM     13  C   UNL d   1      33.090  19.508 -23.232  0.00  0.00     0.005 C 
BRANCH  13  14
ATOM     14  C   UNL d   1      32.890  18.710 -23.288  0.00  0.00     0.002 A 
ATOM     15  C   UNL d   1      32.328  18.467 -23.862  0.00  0.00     0.024 A 
ATOM     16  C   UNL d   1      32.127  17.681 -23.921  0.00  0.00     0.127 A 
ATOM     17  C   UNL d   1      32.476  17.121 -23.418  0.00  0.00     0.024 A 
ATOM     18  C   UNL d   1      33.028  17.365 -22.856  0.00  0.00     0.002 A 
ATOM     19  C   UNL d   1      33.241  18.161 -22.785  0.00  0.00     0.000 A 
BRANCH  16  20
ATOM     20  N   UNL d   1      31.581  17.408 -24.471  0.00  0.00    -0.114 N 
ATOM     21  O   UNL d   1      30.777  17.624 -24.398  0.00  0.00    -0.532 OA
ATOM     22  O   UNL d   1      31.819  16.929 -25.085  0.00  0.00    -0.532 OA
ENDBRANCH  16  20
ENDBRANCH  13  14
ENDBRANCH  12  13
ENDBRANCH   4  12
TORSDOF 4
ENDMDL
MODEL 2
REMARK VINA RESULT:      -3.4      1.442      5.142
REMARK  4 active torsions:
REMARK  status: ('A' for Active; 'I' for Inactive)
REMARK       I    between atoms: C_5  and  N_1 
REMARK    1  A    between atoms: N_3  and  C_8 
REMARK    2  A    between atoms: C_7  and  C_5 
REMARK    3  A    between atoms: C_11  and  C_7 
REMARK    4  A    between atoms: C_15  and  C_11 
ROOT
ATOM      1  N   UNL d   1      32.456  18.049 -23.600  0.00  0.00    -0.256 N 
ATOM      2  C   UNL d   1      32.052  18.441 -24.212  0.00  0.00     0.185 A 
ATOM      3  N   UNL d   1      31.764  17.858 -24.697  0.00  0.00    -0.224 NA
ATOM      4  C   UNL d   1      32.853  18.408 -22.955  0.00  0.00     0.266 C 
ATOM      5  C   UNL d   1      32.397  17.245 -23.739  0.00  0.00     0.086 A 
ATOM      6  C   UNL d   1      31.970  17.122 -24.418  0.00  0.00     0.099 A 
ATOM      7  O   UNL d   1      33.241  17.947 -22.373  0.00  0.00    -0.267 OA
ATOM      8  C   UNL d   1      32.695  16.598 -23.310  0.00  0.00     0.019 A 
ATOM      9  C   UNL d   1      31.826  16.364 -24.687  0.00  0.00     0.021 A 
ATOM     10  C   UNL d   1      32.557  15.818 -23.571  0.00  0.00     0.002 A 
ATOM     11  C   UNL d   1      32.107  15.690 -24.286  0.00  0.00     0.002 A 
ENDROOT
BRANCH   4  12
ATOM     12  C   UNL d   1      32.867  19.225 -22.885  0.00  0.00     0.061 C 
BRANCH  12  13
ATOM     13  C   UNL d   1      33.012  19.566 -22.149  0.00  0.00     0.005 C 
BRANCH  13  14
ATOM     14  C   UNL d   1      32.957  20.385 -22.068  0.00  0.00     0.002 A 
ATOM     15  C   UNL d   1      32.609  20.707 -21.375  0.00  0.00     0.024 A 
ATOM     16  C   UNL d   1      32.553  21.514 -21.291  0.00  0.00     0.127 A 
ATOM     17  C   UNL d   1      32.837  22.017 -21.886  0.00  0.00     0.024 A 
ATOM     18  C   UNL d   1      33.177  21.696 -22.565  0.00  0.00     0.002 A 
ATOM     19  C   UNL d   1      33.241  20.877 -22.663  0.00  0.00     0.000 A 
BRANCH  16  20
ATOM     20  N   UNL d   1      32.218  21.864 -20.626  0.00  0.00    -0.114 N 
ATOM     21  O   UNL d   1      32.711  22.128 -20.005  0.00  0.00    -0.532 OA
ATOM     22  O   UNL d   1      31.411  21.954 -20.571  0.00  0.00    -0.532 OA
ENDBRANCH  16  20
ENDBRANCH  13  14
ENDBRANCH  12  13
ENDBRANCH   4  12
TORSDOF 4
ENDMDL
MODEL 3
REMARK VINA RESULT:      -2.7      2.310      5.364
REMARK  4 active torsions:
REMARK  status: ('A' for Active; 'I' for Inactive)
REMARK       I    between atoms: C_5  and  N_1 
REMARK    1  A    between atoms: N_3  and  C_8 
REMARK    2  A    between atoms: C_7  and  C_5 
REMARK    3  A    between atoms: C_11  and  C_7 
REMARK    4  A    between atoms: C_15  and  C_11 
ROOT
ATOM      1  N   UNL d   1      30.037  17.102 -24.017  0.00  0.00    -0.256 N 
ATOM      2  C   UNL d   1      29.630  17.681 -24.453  0.00  0.00     0.185 A 
ATOM      3  N   UNL d   1      28.845  17.486 -24.404  0.00  0.00    -0.224 NA
ATOM      4  C   UNL d   1      30.866  17.058 -23.899  0.00  0.00     0.266 C 
ATOM      5  C   UNL d   1      29.482  16.579 -23.721  0.00  0.00     0.086 A 
ATOM      6  C   UNL d   1      28.742  16.812 -23.958  0.00  0.00     0.099 A 
ATOM      7  O   UNL d   1      31.207  16.442 -23.445  0.00  0.00    -0.267 OA
ATOM      8  C   UNL d   1      29.575  15.900 -23.250  0.00  0.00     0.019 A 
ATOM      9  C   UNL d   1      28.082  16.386 -23.739  0.00  0.00     0.021 A 
ATOM     10  C   UNL d   1      28.910  15.453 -23.017  0.00  0.00     0.002 A 
ATOM     11  C   UNL d   1      28.132  15.700 -23.268  0.00  0.00     0.002 A 
ENDROOT
BRANCH   4  12
ATOM     12  C   UNL d   1      31.358  17.624 -24.230  0.00  0.00     0.061 C 
BRANCH  12  13
ATOM     13  C   UNL d   1      32.147  17.665 -23.991  0.00  0.00     0.005 C 
BRANCH  13  14
ATOM     14  C   UNL d   1      32.513  18.402 -23.941  0.00  0.00     0.002 A 
ATOM     15  C   UNL d   1      32.599  18.767 -23.190  0.00  0.00     0.024 A 
ATOM     16  C   UNL d   1      32.959  19.494 -23.136  0.00  0.00     0.127 A 
ATOM     17  C   UNL d   1      33.241  19.874 -23.817  0.00  0.00     0.024 A 
ATOM     18  C   UNL d   1      33.154  19.510 -24.552  0.00  0.00     0.002 A 
ATOM     19  C   UNL d   1      32.789  18.771 -24.622  0.00  0.00     0.000 A 
BRANCH  16  20
ATOM     20  N   UNL d   1      33.061  19.881 -22.417  0.00  0.00    -0.114 N 
ATOM     21  O   UNL d   1      33.237  19.439 -21.730  0.00  0.00    -0.532 OA
ATOM     22  O   UNL d   1      32.990  20.691 -22.372  0.00  0.00    -0.532 OA
ENDBRANCH  16  20
ENDBRANCH  13  14
ENDBRANCH  12  13
ENDBRANCH   4  12
TORSDOF 4
ENDMDL
MODEL 4
REMARK VINA RESULT:      -2.5      1.052      1.436
REMARK  4 active torsions:
REMARK  status: ('A' for Active; 'I' for Inactive)
REMARK       I    between atoms: C_5  and  N_1 
REMARK    1  A    between atoms: N_3  and  C_8 
REMARK    2  A    between atoms: C_7  and  C_5 
REMARK    3  A    between atoms: C_11  and  C_7 
REMARK    4  A    between atoms: C_15  and  C_11 
ROOT
ATOM      1  N   UNL d   1      32.798  21.522 -20.585  0.00  0.00    -0.256 N 
ATOM      2  C   UNL d   1      33.185  21.097 -19.985  0.00  0.00     0.185 A 
ATOM      3  N   UNL d   1      33.241  21.604 -19.355  0.00  0.00    -0.224 NA
ATOM      4  C   UNL d   1      32.606  21.240 -21.352  0.00  0.00     0.266 C 
ATOM      5  C   UNL d   1      32.635  22.269 -20.296  0.00  0.00     0.086 A 
ATOM      6  C   UNL d   1      32.908  22.325 -19.534  0.00  0.00     0.099 A 
ATOM      7  O   UNL d   1      32.214  21.727 -21.908  0.00  0.00    -0.267 OA
ATOM      8  C   UNL d   1      32.260  22.919 -20.654  0.00  0.00     0.019 A 
ATOM      9  C   UNL d   1      32.818  23.017 -19.110  0.00  0.00     0.021 A 
ATOM     10  C   UNL d   1      32.160  23.633 -20.234  0.00  0.00     0.002 A 
ATOM     11  C   UNL d   1      32.448  23.690 -19.432  0.00  0.00     0.002 A 
ENDROOT
BRANCH   4  12
ATOM     12  C   UNL d   1      32.804  20.474 -21.568  0.00  0.00     0.061 C 
BRANCH  12  13
ATOM     13  C   UNL d   1      32.986  20.309 -22.355  0.00  0.00     0.005 C 
BRANCH  13  14
ATOM     14  C   UNL d   1      33.000  19.525 -22.609  0.00  0.00     0.002 A 
ATOM     15  C   UNL d   1      32.773  19.344 -23.396  0.00  0.00     0.024 A 
ATOM     16  C   UNL d   1      32.784  18.571 -23.651  0.00  0.00     0.127 A 
ATOM     17  C   UNL d   1      33.019  17.965 -23.136  0.00  0.00     0.024 A 
ATOM     18  C   UNL d   1      33.241  18.148 -22.363  0.00  0.00     0.002 A 
ATOM     19  C   UNL d   1      33.234  18.929 -22.091  0.00  0.00     0.000 A 
BRANCH  16  20
ATOM     20  N   UNL d   1      32.569  18.358 -24.415  0.00  0.00    -0.114 N 
ATOM     21  O   UNL d   1      33.109  18.465 -25.043  0.00  0.00    -0.532 OA
ATOM     22  O   UNL d   1      31.832  18.043 -24.562  0.00  0.00    -0.532 OA
ENDBRANCH  16  20
ENDBRANCH  13  14
ENDBRANCH  12  13
ENDBRANCH   4  12
TORSDOF 4
ENDMDL
