MODEL 1
REMARK VINA RESULT:      28.6      0.000      0.000
REMARK  8 active torsions:
REMARK  status: ('A' for Active; 'I' for Inactive)
REMARK    1  A    between atoms: C_4  and  C_1 
REMARK    2  A    between atoms: C_2  and  C_15 
REMARK    3  A    between atoms: C_3  and  C_2 
REMARK    4  A    between atoms: C_16  and  C_4 
REMARK    5  A    between atoms: O_14  and  C_9 
REMARK    6  A    between atoms: S_13  and  C_16 
REMARK    7  A    between atoms: C_15  and  S_13 
REMARK    8  A    between atoms: C_17  and  O_14 
ROOT
ATOM      1  C   UNL d   1      58.981  49.443  50.276  0.00  0.00     0.040 A 
ATOM      2  C   UNL d   1      58.533  49.366  49.590  0.00  0.00     0.005 A 
ATOM      3  C   UNL d   1      58.604  49.551  51.007  0.00  0.00     0.005 A 
ATOM      4  C   UNL d   1      57.332  49.506  50.356  0.00  0.00     0.100 A 
ATOM      5  C   UNL d   1      57.710  49.398  49.625  0.00  0.00     0.025 A 
ATOM      6  C   UNL d   1      57.782  49.583  51.043  0.00  0.00     0.025 A 
ENDROOT
BRANCH   1   7
ATOM      7  C   UNL d   1      59.811  49.409  50.225  0.00  0.00     0.202 C 
ATOM      8  O   UNL d   1      60.185  49.281  49.503  0.00  0.00    -0.286 OA
BRANCH   7   9
ATOM      9  C   UNL d   1      60.270  49.507  50.917  0.00  0.00     0.077 C 
BRANCH   9  10
ATOM     10  S   UNL d   1      61.033  49.150  50.966  0.00  0.00    -0.082 SA
BRANCH  10  11
ATOM     11  C   UNL d   1      61.372  49.008  51.703  0.00  0.00     0.042 C 
BRANCH  11  12
ATOM     12  C   UNL d   1      61.402  49.610  52.263  0.00  0.00     0.077 C 
BRANCH  12  13
ATOM     13  C   UNL d   1      61.884  49.534  52.930  0.00  0.00     0.211 C 
ATOM     14  O   UNL d   1      62.690  49.377  52.835  0.00  0.00    -0.644 OA
ATOM     15  O   UNL d   1      61.564  49.615  53.684  0.00  0.00    -0.644 OA
ENDBRANCH  12  13
ENDBRANCH  11  12
ENDBRANCH  10  11
ENDBRANCH   9  10
ENDBRANCH   7   9
ENDBRANCH   1   7
BRANCH   4  16
ATOM     16  O   UNL d   1      56.489  49.539  50.399  0.00  0.00    -0.305 OA
BRANCH  16  17
ATOM     17  C   UNL d   1      56.036  49.268  49.765  0.00  0.00     0.123 C 
ATOM     18  C   UNL d   1      56.199  49.533  49.001  0.00  0.00     0.029 C 
ENDBRANCH  16  17
ENDBRANCH   4  16
TORSDOF 8
ENDMDL
