MODEL 1
REMARK VINA RESULT:      20.7      0.000      0.000
REMARK  2 active torsions:
REMARK  status: ('A' for Active; 'I' for Inactive)
REMARK    1  A    between atoms: C_12  and  C_4 
REMARK    2  A    between atoms: O_14  and  C_10 
ROOT
ATOM      1  C   UNL d   1      46.296 -18.084  42.976  0.00  0.00     0.101 A 
ATOM      2  C   UNL d   1      46.181 -17.387  42.545  0.00  0.00     0.203 A 
ATOM      3  C   UNL d   1      45.992 -16.689  42.944  0.00  0.00     0.067 A 
ATOM      4  C   UNL d   1      45.919 -16.686  43.758  0.00  0.00     0.103 A 
ATOM      5  C   UNL d   1      46.224 -18.081  43.790  0.00  0.00     0.108 A 
ATOM      6  O   UNL d   1      46.034 -17.381  44.188  0.00  0.00    -0.307 OA
ATOM      7  C   UNL d   1      46.485 -18.778  42.577  0.00  0.00     0.203 A 
ATOM      8  C   UNL d   1      46.338 -18.772  44.220  0.00  0.00     0.049 A 
ATOM      9  C   UNL d   1      46.603 -19.491  43.009  0.00  0.00     0.066 A 
ATOM     10  C   UNL d   1      46.531 -19.488  43.822  0.00  0.00     0.099 A 
ATOM     11  O   UNL d   1      46.256 -17.390  41.708  0.00  0.00    -0.286 OA
ATOM     12  O   UNL d   1      46.559 -18.781  41.740  0.00  0.00    -0.286 OA
ENDROOT
BRANCH   4  13
ATOM     13  C   UNL d   1      45.732 -15.997  44.156  0.00  0.00     0.023 A 
ATOM     14  C   UNL d   1      46.275 -15.376  44.163  0.00  0.00     0.002 A 
ATOM     15  C   UNL d   1      46.090 -14.682  44.563  0.00  0.00     0.000 A 
ATOM     16  C   UNL d   1      45.365 -14.607  44.955  0.00  0.00     0.000 A 
ATOM     17  C   UNL d   1      44.820 -15.224  44.951  0.00  0.00     0.000 A 
ATOM     18  C   UNL d   1      45.008 -15.922  44.549  0.00  0.00     0.002 A 
ENDBRANCH   4  13
BRANCH  10  19
ATOM     19  O   UNL d   1      46.647 -20.196  44.276  0.00  0.00    -0.328 OA
ATOM     20  C   UNL d   1      46.207 -20.330  44.952  0.00  0.00     0.181 C 
ENDBRANCH  10  19
TORSDOF 2
ENDMDL
