MODEL 1
REMARK VINA RESULT:      45.0      0.000      0.000
REMARK  3 active torsions:
REMARK  status: ('A' for Active; 'I' for Inactive)
REMARK    1  A    between atoms: N_2  and  S_1 
REMARK    2  A    between atoms: C_3  and  S_1 
REMARK    3  A    between atoms: C_10  and  C_9 
ROOT
ATOM      1  C   UNL d   1     -54.862-102.052 -43.364  0.00  0.00     0.104 A 
ATOM      2  C   UNL d   1     -54.814-102.100 -41.710  0.00  0.00     0.000 A 
ATOM      3  C   UNL d   1     -54.963-102.766 -42.968  0.00  0.00     0.013 A 
ATOM      4  C   UNL d   1     -54.736-101.356 -42.934  0.00  0.00     0.013 A 
ATOM      5  C   UNL d   1     -54.712-101.380 -42.105  0.00  0.00     0.001 A 
ATOM      6  C   UNL d   1     -54.939-102.791 -42.140  0.00  0.00     0.001 A 
ENDROOT
BRANCH   1   7
ATOM      7  S   UNL d   1     -54.888-102.035 -44.187  0.00  0.00     0.271 S 
ATOM      8  O   UNL d   1     -54.807-102.847 -44.214  0.00  0.00    -0.200 OA
ATOM      9  O   UNL d   1     -54.914-102.011 -45.007  0.00  0.00    -0.200 OA
BRANCH   7  10
ATOM     10  N   UNL d   1     -54.971-101.215 -44.169  0.00  0.00    -0.226 N 
ATOM     11  C   UNL d   1     -54.739-100.799 -43.488  0.00  0.00     0.111 A 
ATOM     12  C   UNL d   1     -54.821 -99.978 -43.470  0.00  0.00     0.100 A 
ATOM     13  N   UNL d   1     -55.130 -99.585 -44.121  0.00  0.00    -0.299 N 
ATOM     14  C   UNL d   1     -55.359 -99.993 -44.794  0.00  0.00     0.100 A 
ATOM     15  C   UNL d   1     -55.210 -98.756 -44.095  0.00  0.00     0.100 C 
ATOM     16  C   UNL d   1     -55.278-100.813 -44.816  0.00  0.00     0.111 A 
ENDBRANCH   7  10
ENDBRANCH   1   7
BRANCH   2  17
ATOM     17  C   UNL d   1     -54.790-102.132 -40.890  0.00  0.00     0.000 A 
ATOM     18  C   UNL d   1     -54.774-102.856 -40.499  0.00  0.00     0.001 A 
ATOM     19  C   UNL d   1     -54.751-102.880 -39.675  0.00  0.00     0.011 A 
ATOM     20  C   UNL d   1     -54.744-102.180 -39.241  0.00  0.00     0.058 A 
ATOM     21  C   UNL d   1     -54.761-101.447 -39.641  0.00  0.00     0.011 A 
ATOM     22 CL   UNL d   1     -54.721-102.204 -38.426  0.00  0.00    -0.082 Cl
ATOM     23  C   UNL d   1     -54.784-101.432 -40.457  0.00  0.00     0.001 A 
ENDBRANCH   2  17
TORSDOF 3
ENDMDL
