MODEL 1
REMARK VINA RESULT:       7.8      0.000      0.000
REMARK  5 active torsions:
REMARK  status: ('A' for Active; 'I' for Inactive)
REMARK    1  A    between atoms: C_4  and  C_1 
REMARK    2  A    between atoms: N_5  and  C_2 
REMARK       I    between atoms: N_9  and  C_4 
REMARK       I    between atoms: C_7  and  N_5 
REMARK    3  A    between atoms: C_10  and  C_7 
REMARK    4  A    between atoms: C_21  and  N_9 
REMARK    5  A    between atoms: O_29  and  C_22 
ROOT
ATOM      1  C   UNL d   1      56.172   0.660  34.827  0.00  0.00     0.175 A 
ATOM      2  C   UNL d   1      56.874   0.669  34.380  0.00  0.00     0.114 A 
ATOM      3  O   UNL d   1      56.394   0.650  35.628  0.00  0.00    -0.301 OA
ATOM      4  C   UNL d   1      57.507   0.665  34.901  0.00  0.00     0.043 A 
ATOM      5  C   UNL d   1      57.213   0.653  35.673  0.00  0.00     0.102 A 
ATOM      6  C   UNL d   1      58.323   0.671  34.772  0.00  0.00     0.004 A 
ATOM      7  C   UNL d   1      57.730   0.647  36.309  0.00  0.00     0.025 A 
ATOM      8  C   UNL d   1      58.843   0.664  35.416  0.00  0.00     0.000 A 
ATOM      9  C   UNL d   1      58.540   0.652  36.187  0.00  0.00     0.002 A 
ENDROOT
BRANCH   2  10
ATOM     10  N   UNL d   1      56.919   0.681  33.550  0.00  0.00    -0.206 NA
ATOM     11  C   UNL d   1      57.184   0.013  33.146  0.00  0.00     0.279 C 
ATOM     12  O   UNL d   1      57.405  -0.664  33.560  0.00  0.00    -0.265 OA
BRANCH  11  13
ATOM     13  C   UNL d   1      57.228   0.026  32.324  0.00  0.00     0.060 A 
ATOM     14  C   UNL d   1      57.881   0.355  31.954  0.00  0.00     0.031 A 
ATOM     15  C   UNL d   1      57.923   0.367  31.139  0.00  0.00     0.119 A 
ATOM     16  O   UNL d   1      58.499   0.655  30.617  0.00  0.00    -0.300 OA
ATOM     17  C   UNL d   1      57.308   0.047  30.692  0.00  0.00     0.119 A 
ATOM     18  C   UNL d   1      58.234   0.510  29.846  0.00  0.00     0.304 A 
ATOM     19  O   UNL d   1      57.500   0.136  29.898  0.00  0.00    -0.300 OA
ATOM     20  C   UNL d   1      56.656  -0.283  31.063  0.00  0.00     0.026 A 
ATOM     21  C   UNL d   1      56.622  -0.290  31.892  0.00  0.00     0.007 A 
ENDBRANCH  11  13
ENDBRANCH   2  10
BRANCH   1  22
ATOM     22  C   UNL d   1      55.401   0.661  34.529  0.00  0.00     0.303 C 
ATOM     23  N   UNL d   1      54.766   0.678  35.046  0.00  0.00    -0.206 NA
ATOM     24  O   UNL d   1      55.276   0.644  33.711  0.00  0.00    -0.263 OA
BRANCH  23  25
ATOM     25  C   UNL d   1      53.993   0.679  34.752  0.00  0.00     0.085 A 
ATOM     26  C   UNL d   1      53.876   0.678  33.935  0.00  0.00     0.021 A 
ATOM     27  C   UNL d   1      53.105   0.679  33.631  0.00  0.00     0.026 A 
ATOM     28  C   UNL d   1      52.461   0.680  34.153  0.00  0.00     0.094 A 
ATOM     29  C   UNL d   1      52.587   0.682  34.965  0.00  0.00     0.026 A 
ATOM     30  C   UNL d   1      53.362   0.681  35.262  0.00  0.00     0.021 A 
BRANCH  28  31
ATOM     31  O   UNL d   1      51.693   0.681  33.857  0.00  0.00    -0.328 OA
ATOM     32  C   UNL d   1      51.064   0.493  34.357  0.00  0.00     0.181 C 
ENDBRANCH  28  31
ENDBRANCH  23  25
ENDBRANCH   1  22
TORSDOF 5
ENDMDL
MODEL 2
REMARK VINA RESULT:       9.5      0.899      4.640
REMARK  5 active torsions:
REMARK  status: ('A' for Active; 'I' for Inactive)
REMARK    1  A    between atoms: C_4  and  C_1 
REMARK    2  A    between atoms: N_5  and  C_2 
REMARK       I    between atoms: N_9  and  C_4 
REMARK       I    between atoms: C_7  and  N_5 
REMARK    3  A    between atoms: C_10  and  C_7 
REMARK    4  A    between atoms: C_21  and  N_9 
REMARK    5  A    between atoms: O_29  and  C_22 
ROOT
ATOM      1  C   UNL d   1      57.621   0.529  33.597  0.00  0.00     0.175 A 
ATOM      2  C   UNL d   1      57.015   0.610  34.163  0.00  0.00     0.114 A 
ATOM      3  O   UNL d   1      58.338   0.486  34.014  0.00  0.00    -0.301 OA
ATOM      4  C   UNL d   1      57.361   0.616  34.905  0.00  0.00     0.043 A 
ATOM      5  C   UNL d   1      58.179   0.539  34.816  0.00  0.00     0.102 A 
ATOM      6  C   UNL d   1      57.034   0.681  35.661  0.00  0.00     0.004 A 
ATOM      7  C   UNL d   1      58.665   0.529  35.477  0.00  0.00     0.025 A 
ATOM      8  C   UNL d   1      57.527   0.670  36.327  0.00  0.00     0.000 A 
ATOM      9  C   UNL d   1      58.345   0.594  36.229  0.00  0.00     0.002 A 
ENDROOT
BRANCH   2  10
ATOM     10  N   UNL d   1      56.204   0.673  33.996  0.00  0.00    -0.206 NA
ATOM     11  C   UNL d   1      55.680   0.109  34.294  0.00  0.00     0.279 C 
ATOM     12  O   UNL d   1      55.958  -0.514  34.756  0.00  0.00    -0.265 OA
BRANCH  11  13
ATOM     13  C   UNL d   1      54.877   0.173  34.129  0.00  0.00     0.060 A 
ATOM     14  C   UNL d   1      54.352   0.382  34.723  0.00  0.00     0.031 A 
ATOM     15  C   UNL d   1      53.555   0.444  34.557  0.00  0.00     0.119 A 
ATOM     16  O   UNL d   1      52.903   0.641  35.030  0.00  0.00    -0.300 OA
ATOM     17  C   UNL d   1      53.282   0.296  33.793  0.00  0.00     0.119 A 
ATOM     18  C   UNL d   1      52.228   0.613  34.552  0.00  0.00     0.304 A 
ATOM     19  O   UNL d   1      52.466   0.400  33.791  0.00  0.00    -0.300 OA
ATOM     20  C   UNL d   1      53.807   0.087  33.199  0.00  0.00     0.026 A 
ATOM     21  C   UNL d   1      54.616   0.026  33.377  0.00  0.00     0.007 A 
ENDBRANCH  11  13
ENDBRANCH   2  10
BRANCH   1  22
ATOM     22  C   UNL d   1      57.525   0.498  32.777  0.00  0.00     0.303 C 
ATOM     23  N   UNL d   1      58.171   0.615  32.287  0.00  0.00    -0.206 NA
ATOM     24  O   UNL d   1      56.776   0.348  32.455  0.00  0.00    -0.263 OA
BRANCH  23  25
ATOM     25  C   UNL d   1      58.078   0.584  31.466  0.00  0.00     0.085 A 
ATOM     26  C   UNL d   1      58.743   0.671  30.985  0.00  0.00     0.021 A 
ATOM     27  C   UNL d   1      58.659   0.641  30.161  0.00  0.00     0.026 A 
ATOM     28  C   UNL d   1      57.908   0.525  29.831  0.00  0.00     0.094 A 
ATOM     29  C   UNL d   1      57.251   0.440  30.317  0.00  0.00     0.026 A 
ATOM     30  C   UNL d   1      57.343   0.471  31.142  0.00  0.00     0.021 A 
BRANCH  28  31
ATOM     31  O   UNL d   1      57.819   0.495  29.013  0.00  0.00    -0.328 OA
ATOM     32  C   UNL d   1      58.487   0.524  28.529  0.00  0.00     0.181 C 
ENDBRANCH  28  31
ENDBRANCH  23  25
ENDBRANCH   1  22
TORSDOF 5
ENDMDL
