MODEL 1
REMARK VINA RESULT:      81.1      0.000      0.000
REMARK  4 active torsions:
REMARK  status: ('A' for Active; 'I' for Inactive)
REMARK       I    between atoms: N_2  and  C_1 
REMARK    1  A    between atoms: C_4  and  C_1 
REMARK    2  A    between atoms: C_14  and  N_3 
REMARK    3  A    between atoms: C_5  and  C_6 
REMARK    4  A    between atoms: C_17  and  C_14 
ROOT
ATOM      1  C   UNL d   1      61.338  48.058  50.477  0.00  0.00     0.265 C 
ATOM      2  N   UNL d   1      60.634  48.452  50.605  0.00  0.00    -0.269 N 
ATOM      3  N   UNL d   1      59.222  49.253  50.864  0.00  0.00    -0.300 N 
ATOM      4  O   UNL d   1      62.047  48.472  50.505  0.00  0.00    -0.267 OA
ATOM      5  C   UNL d   1      59.922  48.049  50.579  0.00  0.00     0.102 A 
ATOM      6  C   UNL d   1      60.641  49.271  50.763  0.00  0.00     0.102 A 
ATOM      7  C   UNL d   1      59.935  49.665  50.891  0.00  0.00     0.100 A 
ATOM      8  C   UNL d   1      59.216  48.456  50.710  0.00  0.00     0.100 A 
ENDROOT
BRANCH   1   9
ATOM      9  C   UNL d   1      61.331  47.239  50.319  0.00  0.00     0.057 A 
ATOM     10  C   UNL d   1      61.330  46.706  50.936  0.00  0.00     0.004 A 
ATOM     11  C   UNL d   1      61.324  45.887  50.778  0.00  0.00    -0.004 A 
ATOM     12  C   UNL d   1      61.318  45.623  50.007  0.00  0.00    -0.023 A 
ATOM     13  C   UNL d   1      61.319  46.157  49.381  0.00  0.00    -0.004 A 
ATOM     14  C   UNL d   1      61.326  46.976  49.539  0.00  0.00     0.004 A 
BRANCH  12  15
ATOM     15  C   UNL d   1      61.312  44.815  49.852  0.00  0.00     0.019 C 
ATOM     16  C   UNL d   1      60.679  44.720  50.371  0.00  0.00     0.004 C 
ATOM     17  C   UNL d   1      61.305  44.003  49.695  0.00  0.00     0.004 C 
ATOM     18  C   UNL d   1      61.952  44.912  49.326  0.00  0.00     0.004 C 
ENDBRANCH  12  15
ENDBRANCH   1   9
BRANCH   3  19
ATOM     19  C   UNL d   1      58.511  49.642  50.991  0.00  0.00     0.080 C 
BRANCH  19  20
ATOM     20  C   UNL d   1      57.888  49.556  50.464  0.00  0.00     0.018 A 
ATOM     21  C   UNL d   1      57.992  49.708  49.642  0.00  0.00     0.002 A 
ATOM     22  C   UNL d   1      57.359  49.617  49.127  0.00  0.00     0.000 A 
ATOM     23  C   UNL d   1      56.613  49.375  49.414  0.00  0.00     0.000 A 
ATOM     24  C   UNL d   1      56.513  49.227  50.226  0.00  0.00     0.000 A 
ATOM     25  C   UNL d   1      57.149  49.317  50.749  0.00  0.00     0.002 A 
ENDBRANCH  19  20
ENDBRANCH   3  19
TORSDOF 4
ENDMDL
