MODEL 1
REMARK VINA RESULT:      -3.3      0.000      0.000
REMARK  4 active torsions:
REMARK  status: ('A' for Active; 'I' for Inactive)
REMARK    1  A    between atoms: C_12  and  N_3 
REMARK    2  A    between atoms: C_10  and  C_5 
REMARK       I    between atoms: N_11  and  C_10 
REMARK    3  A    between atoms: C_24  and  C_12 
REMARK    4  A    between atoms: C_25  and  N_14 
ROOT
ATOM      1  C   UNL d   1      57.764  -0.021  31.377  0.00  0.00     0.154 A 
ATOM      2  C   UNL d   1      57.324  -0.714  31.289  0.00  0.00     0.093 A 
ATOM      3  N   UNL d   1      58.244   0.062  30.708  0.00  0.00    -0.286 N 
ATOM      4  N   UNL d   1      57.666   0.436  32.050  0.00  0.00    -0.210 NA
ATOM      5  C   UNL d   1      58.103  -0.574  30.211  0.00  0.00     0.122 A 
ATOM      6  C   UNL d   1      56.792  -0.943  31.875  0.00  0.00     0.269 A 
ATOM      7  N   UNL d   1      56.700  -0.478  32.548  0.00  0.00    -0.258 N 
ATOM      8  C   UNL d   1      57.139   0.215  32.636  0.00  0.00     0.152 A 
ATOM      9  C   UNL d   1      57.532  -1.061  30.566  0.00  0.00     0.030 A 
ATOM     10  C   UNL d   1      56.168  -0.707  33.134  0.00  0.00     0.084 A 
ATOM     11  O   UNL d   1      56.353  -1.635  31.787  0.00  0.00    -0.266 OA
ATOM     12  C   UNL d   1      57.042   0.672  33.309  0.00  0.00     0.038 A 
ATOM     13  C   UNL d   1      56.074  -0.241  33.810  0.00  0.00     0.019 A 
ATOM     14  C   UNL d   1      56.513   0.451  33.898  0.00  0.00     0.005 A 
ENDROOT
BRANCH   5  15
ATOM     15  C   UNL d   1      58.465  -0.711  29.481  0.00  0.00     0.281 C 
ATOM     16  N   UNL d   1      58.852  -1.424  29.341  0.00  0.00    -0.268 N 
ATOM     17  C   UNL d   1      58.879  -1.999  29.928  0.00  0.00     0.102 A 
ATOM     18  C   UNL d   1      59.215  -1.561  28.608  0.00  0.00     0.102 A 
ATOM     19  C   UNL d   1      59.268  -2.715  29.789  0.00  0.00     0.100 A 
ATOM     20  N   UNL d   1      59.631  -2.853  29.056  0.00  0.00    -0.300 N 
ATOM     21  C   UNL d   1      59.603  -2.273  28.467  0.00  0.00     0.100 A 
ATOM     22  O   UNL d   1      58.438  -0.136  28.894  0.00  0.00    -0.265 OA
BRANCH  20  23
ATOM     23  C   UNL d   1      60.025  -3.574  28.911  0.00  0.00     0.080 C 
ATOM     24  C   UNL d   1      60.810  -3.679  29.156  0.00  0.00     0.021 C 
ENDBRANCH  20  23
ENDBRANCH   5  15
BRANCH   3  25
ATOM     25  C   UNL d   1      58.773   0.682  30.571  0.00  0.00     0.082 C 
BRANCH  25  26
ATOM     26  C   UNL d   1      59.522   0.667  30.904  0.00  0.00     0.018 A 
ATOM     27  C   UNL d   1      59.612   0.655  31.725  0.00  0.00     0.002 A 
ATOM     28  C   UNL d   1      60.363   0.640  32.063  0.00  0.00     0.000 A 
ATOM     29  C   UNL d   1      61.025   0.637  31.582  0.00  0.00     0.000 A 
ATOM     30  C   UNL d   1      60.939   0.650  30.760  0.00  0.00     0.000 A 
ATOM     31  C   UNL d   1      60.188   0.664  30.422  0.00  0.00     0.002 A 
ENDBRANCH  25  26
ENDBRANCH   3  25
TORSDOF 4
ENDMDL
MODEL 2
REMARK VINA RESULT:      -0.9      8.326      9.559
REMARK  4 active torsions:
REMARK  status: ('A' for Active; 'I' for Inactive)
REMARK    1  A    between atoms: C_12  and  N_3 
REMARK    2  A    between atoms: C_10  and  C_5 
REMARK       I    between atoms: N_11  and  C_10 
REMARK    3  A    between atoms: C_24  and  C_12 
REMARK    4  A    between atoms: C_25  and  N_14 
ROOT
ATOM      1  C   UNL d   1      59.024  -9.762  30.502  0.00  0.00     0.154 A 
ATOM      2  C   UNL d   1      58.493  -9.706  31.130  0.00  0.00     0.093 A 
ATOM      3  N   UNL d   1      59.789  -9.768  30.816  0.00  0.00    -0.286 N 
ATOM      4  N   UNL d   1      58.740  -9.798  29.734  0.00  0.00    -0.210 NA
ATOM      5  C   UNL d   1      59.732  -9.718  31.632  0.00  0.00     0.122 A 
ATOM      6  C   UNL d   1      57.682  -9.688  30.985  0.00  0.00     0.269 A 
ATOM      7  N   UNL d   1      57.404  -9.725  30.211  0.00  0.00    -0.258 N 
ATOM      8  C   UNL d   1      57.935  -9.780  29.583  0.00  0.00     0.152 A 
ATOM      9  C   UNL d   1      58.928  -9.679  31.835  0.00  0.00     0.030 A 
ATOM     10  C   UNL d   1      56.593  -9.707  30.066  0.00  0.00     0.084 A 
ATOM     11  O   UNL d   1      57.151  -9.633  31.613  0.00  0.00    -0.266 OA
ATOM     12  C   UNL d   1      57.651  -9.817  28.815  0.00  0.00     0.038 A 
ATOM     13  C   UNL d   1      56.312  -9.744  29.290  0.00  0.00     0.019 A 
ATOM     14  C   UNL d   1      56.843  -9.799  28.661  0.00  0.00     0.005 A 
ENDROOT
BRANCH   5  15
ATOM     15  C   UNL d   1      60.363  -9.707  32.164  0.00  0.00     0.281 C 
ATOM     16  N   UNL d   1      60.223  -9.588  32.967  0.00  0.00    -0.268 N 
ATOM     17  C   UNL d   1      59.453  -9.481  33.238  0.00  0.00     0.102 A 
ATOM     18  C   UNL d   1      60.856  -9.578  33.502  0.00  0.00     0.102 A 
ATOM     19  C   UNL d   1      59.311  -9.362  34.043  0.00  0.00     0.100 A 
ATOM     20  N   UNL d   1      59.944  -9.351  34.578  0.00  0.00    -0.300 N 
ATOM     21  C   UNL d   1      60.717  -9.459  34.304  0.00  0.00     0.100 A 
ATOM     22  O   UNL d   1      61.132  -9.815  31.894  0.00  0.00    -0.265 OA
BRANCH  20  23
ATOM     23  C   UNL d   1      59.806  -9.231  35.393  0.00  0.00     0.080 C 
ATOM     24  C   UNL d   1      59.702  -8.464  35.691  0.00  0.00     0.021 C 
ENDBRANCH  20  23
ENDBRANCH   5  15
BRANCH   3  25
ATOM     25  C   UNL d   1      60.488  -9.818  30.377  0.00  0.00     0.082 C 
BRANCH  25  26
ATOM     26  C   UNL d   1      60.692  -9.218  29.856  0.00  0.00     0.018 A 
ATOM     27  C   UNL d   1      60.673  -9.350  29.041  0.00  0.00     0.002 A 
ATOM     28  C   UNL d   1      60.878  -8.750  28.516  0.00  0.00     0.000 A 
ATOM     29  C   UNL d   1      61.102  -8.017  28.803  0.00  0.00     0.000 A 
ATOM     30  C   UNL d   1      61.122  -7.881  29.618  0.00  0.00     0.000 A 
ATOM     31  C   UNL d   1      60.918  -8.482  30.144  0.00  0.00     0.002 A 
ENDBRANCH  25  26
ENDBRANCH   3  25
TORSDOF 4
ENDMDL
