MODEL 1
REMARK VINA RESULT:      38.2      0.000      0.000
REMARK  4 active torsions:
REMARK  status: ('A' for Active; 'I' for Inactive)
REMARK    1  A    between atoms: N_5  and  C_2 
REMARK    2  A    between atoms: C_9  and  C_3 
REMARK       I    between atoms: C_7  and  N_5 
REMARK    3  A    between atoms: C_8  and  C_7 
REMARK    4  A    between atoms: O_16  and  C_13 
ROOT
ATOM      1  N   UNL d   1     -54.910-100.925 -43.092  0.00  0.00    -0.200 NA
ATOM      2  C   UNL d   1     -54.853-101.713 -42.872  0.00  0.00     0.216 A 
ATOM      3  C   UNL d   1     -54.947-100.885 -43.912  0.00  0.00     0.172 A 
ATOM      4  N   UNL d   1     -54.912-101.657 -44.202  0.00  0.00    -0.187 NA
ATOM      5  S   UNL d   1     -54.854-102.164 -43.558  0.00  0.00     0.054 SA
ENDROOT
BRANCH   2   6
ATOM      6  N   UNL d   1     -54.804-102.000 -42.101  0.00  0.00    -0.181 NA
ATOM      7  C   UNL d   1     -54.922-101.491 -41.471  0.00  0.00     0.281 C 
ATOM      8  O   UNL d   1     -55.090-100.695 -41.605  0.00  0.00    -0.265 OA
BRANCH   7   9
ATOM      9  C   UNL d   1     -54.872-101.779 -40.699  0.00  0.00     0.058 A 
ATOM     10  C   UNL d   1     -54.915-102.589 -40.558  0.00  0.00     0.007 A 
ATOM     11  C   UNL d   1     -54.865-102.877 -39.787  0.00  0.00     0.024 A 
ATOM     12  C   UNL d   1     -54.773-102.354 -39.156  0.00  0.00     0.094 A 
ATOM     13  C   UNL d   1     -54.731-101.545 -39.298  0.00  0.00     0.024 A 
ATOM     14  C   UNL d   1     -54.780-101.257 -40.070  0.00  0.00     0.007 A 
BRANCH  12  15
ATOM     15  O   UNL d   1     -54.723-102.642 -38.385  0.00  0.00    -0.328 OA
ATOM     16  C   UNL d   1     -55.401-102.699 -37.921  0.00  0.00     0.181 C 
ENDBRANCH  12  15
ENDBRANCH   7   9
ENDBRANCH   2   6
BRANCH   3  17
ATOM     17  C   UNL d   1     -55.007-100.205 -44.364  0.00  0.00     0.036 A 
ATOM     18  C   UNL d   1     -54.723-100.201 -45.138  0.00  0.00     0.003 A 
ATOM     19  C   UNL d   1     -54.785 -99.508 -45.597  0.00  0.00     0.000 A 
ATOM     20  C   UNL d   1     -55.131 -98.825 -45.275  0.00  0.00     0.000 A 
ATOM     21  C   UNL d   1     -55.413 -98.838 -44.496  0.00  0.00     0.000 A 
ATOM     22  C   UNL d   1     -55.353 -99.522 -44.042  0.00  0.00     0.003 A 
ENDBRANCH   3  17
TORSDOF 4
ENDMDL
MODEL 2
REMARK VINA RESULT:      38.7      1.400      5.237
REMARK  4 active torsions:
REMARK  status: ('A' for Active; 'I' for Inactive)
REMARK    1  A    between atoms: N_5  and  C_2 
REMARK    2  A    between atoms: C_9  and  C_3 
REMARK       I    between atoms: C_7  and  N_5 
REMARK    3  A    between atoms: C_8  and  C_7 
REMARK    4  A    between atoms: O_16  and  C_13 
ROOT
ATOM      1  N   UNL d   1     -55.008-101.558 -41.046  0.00  0.00    -0.200 NA
ATOM      2  C   UNL d   1     -54.809-101.711 -41.826  0.00  0.00     0.216 A 
ATOM      3  C   UNL d   1     -55.042-102.273 -40.641  0.00  0.00     0.172 A 
ATOM      4  N   UNL d   1     -54.861-102.874 -41.178  0.00  0.00    -0.187 NA
ATOM      5  S   UNL d   1     -54.718-102.523 -41.907  0.00  0.00     0.054 SA
ENDROOT
BRANCH   2   6
ATOM      6  N   UNL d   1     -54.716-101.149 -42.424  0.00  0.00    -0.181 NA
ATOM      7  C   UNL d   1     -55.083-101.264 -43.146  0.00  0.00     0.281 C 
ATOM      8  O   UNL d   1     -55.542-101.935 -43.278  0.00  0.00    -0.265 OA
BRANCH   7   9
ATOM      9  C   UNL d   1     -54.990-100.702 -43.744  0.00  0.00     0.058 A 
ATOM     10  C   UNL d   1     -54.965 -99.901 -43.556  0.00  0.00     0.007 A 
ATOM     11  C   UNL d   1     -54.872 -99.340 -44.153  0.00  0.00     0.024 A 
ATOM     12  C   UNL d   1     -54.804 -99.579 -44.938  0.00  0.00     0.094 A 
ATOM     13  C   UNL d   1     -54.829-100.381 -45.125  0.00  0.00     0.024 A 
ATOM     14  C   UNL d   1     -54.922-100.942 -44.528  0.00  0.00     0.007 A 
BRANCH  12  15
ATOM     15  O   UNL d   1     -54.711 -99.018 -45.536  0.00  0.00    -0.328 OA
ATOM     16  C   UNL d   1     -55.365 -98.755 -45.960  0.00  0.00     0.181 C 
ENDBRANCH  12  15
ENDBRANCH   7   9
ENDBRANCH   2   6
BRANCH   3  17
ATOM     17  C   UNL d   1     -55.221-102.375 -39.849  0.00  0.00     0.036 A 
ATOM     18  C   UNL d   1     -54.713-102.078 -39.272  0.00  0.00     0.003 A 
ATOM     19  C   UNL d   1     -54.896-102.182 -38.466  0.00  0.00     0.000 A 
ATOM     20  C   UNL d   1     -55.589-102.583 -38.245  0.00  0.00     0.000 A 
ATOM     21  C   UNL d   1     -56.094-102.879 -38.832  0.00  0.00     0.000 A 
ATOM     22  C   UNL d   1     -55.913-102.777 -39.628  0.00  0.00     0.003 A 
ENDBRANCH   3  17
TORSDOF 4
ENDMDL
