MODEL 1
REMARK VINA RESULT:      86.9      0.000      0.000
REMARK  7 active torsions:
REMARK  status: ('A' for Active; 'I' for Inactive)
REMARK    1  A    between atoms: S_2  and  C_1 
REMARK    2  A    between atoms: C_9  and  S_2 
REMARK    3  A    between atoms: C_10  and  N_3 
REMARK    4  A    between atoms: C_8  and  C_10 
REMARK       I    between atoms: N_15  and  C_8 
REMARK    5  A    between atoms: C_20  and  N_15 
REMARK    6  A    between atoms: O_32  and  C_21 
REMARK    7  A    between atoms: C_33  and  C_27 
ROOT
ATOM      1  C   UNL d   1      13.867  15.447  -4.954  0.00  0.00     0.144 A 
ATOM      2  N   UNL d   1      13.343  14.495  -4.022  0.00  0.00    -0.299 N 
ATOM      3  C   UNL d   1      13.980  14.835  -5.506  0.00  0.00     0.209 A 
ATOM      4  C   UNL d   1      13.549  15.276  -4.212  0.00  0.00     0.095 A 
ATOM      5  C   UNL d   1      13.774  14.061  -5.312  0.00  0.00     0.058 A 
ATOM      6  C   UNL d   1      13.456  13.891  -4.570  0.00  0.00     0.068 A 
ATOM      7  C   UNL d   1      13.250  13.118  -4.378  0.00  0.00     0.020 A 
ATOM      8  C   UNL d   1      13.887  13.458  -5.861  0.00  0.00     0.029 A 
ATOM      9  O   UNL d   1      14.299  15.006  -6.251  0.00  0.00    -0.286 OA
ATOM     10  C   UNL d   1      13.680  12.681  -5.669  0.00  0.00     0.094 A 
ATOM     11  C   UNL d   1      13.362  12.510  -4.927  0.00  0.00     0.026 A 
ENDROOT
BRANCH   2  12
ATOM     12  C   UNL d   1      13.025  14.325  -3.280  0.00  0.00     0.144 C 
BRANCH  12  13
ATOM     13  C   UNL d   1      13.494  13.977  -2.699  0.00  0.00     0.297 C 
ATOM     14  N   UNL d   1      13.430  13.170  -2.544  0.00  0.00    -0.207 NA
ATOM     15  O   UNL d   1      14.028  14.439  -2.274  0.00  0.00    -0.264 OA
BRANCH  14  16
ATOM     16  C   UNL d   1      13.899  12.824  -1.963  0.00  0.00     0.085 A 
ATOM     17  C   UNL d   1      13.571  12.620  -1.236  0.00  0.00     0.019 A 
ATOM     18  C   UNL d   1      14.040  12.274  -0.655  0.00  0.00     0.002 A 
ATOM     19  C   UNL d   1      14.840  12.131  -0.801  0.00  0.00     0.000 A 
ATOM     20  C   UNL d   1      15.169  12.336  -1.532  0.00  0.00     0.002 A 
ATOM     21  C   UNL d   1      14.698  12.682  -2.112  0.00  0.00     0.019 A 
BRANCH  19  22
ATOM     22  C   UNL d   1      15.318  11.784  -0.223  0.00  0.00     0.000 C 
ATOM     23  C   UNL d   1      16.031  12.144  -0.019  0.00  0.00     0.000 C 
ENDBRANCH  19  22
ENDBRANCH  14  16
ENDBRANCH  12  13
ENDBRANCH   2  12
BRANCH   1  24
ATOM     24  S   UNL d   1      14.073  16.223  -5.147  0.00  0.00     0.214 S 
ATOM     25  O   UNL d   1      14.675  16.205  -4.584  0.00  0.00    -0.217 OA
ATOM     26  O   UNL d   1      13.467  16.248  -5.718  0.00  0.00    -0.217 OA
BRANCH  24  27
ATOM     27  C   UNL d   1      14.283  17.004  -5.338  0.00  0.00     0.088 A 
ATOM     28  C   UNL d   1      14.976  17.338  -5.034  0.00  0.00     0.014 A 
ATOM     29  C   UNL d   1      15.179  18.111  -5.226  0.00  0.00     0.030 A 
ATOM     30  C   UNL d   1      14.698  18.562  -5.722  0.00  0.00     0.140 A 
ATOM     31  C   UNL d   1      14.003  18.226  -6.027  0.00  0.00     0.030 A 
ATOM     32  F   UNL d   1      14.904  19.340  -5.914  0.00  0.00    -0.204 F 
ATOM     33  C   UNL d   1      13.799  17.451  -5.834  0.00  0.00     0.014 A 
ENDBRANCH  24  27
ENDBRANCH   1  24
BRANCH  10  34
ATOM     34  O   UNL d   1      13.798  12.080  -6.229  0.00  0.00    -0.328 OA
ATOM     35  C   UNL d   1      14.569  11.814  -6.386  0.00  0.00     0.181 C 
ENDBRANCH  10  34
TORSDOF 7
ENDMDL
