MODEL 1
REMARK VINA RESULT:      -9.8      0.000      0.000
REMARK  7 active torsions:
REMARK  status: ('A' for Active; 'I' for Inactive)
REMARK    1  A    between atoms: S_2  and  C_1 
REMARK    2  A    between atoms: C_7  and  S_2 
REMARK    3  A    between atoms: C_9  and  N_3 
REMARK    4  A    between atoms: C_11  and  C_7 
REMARK    5  A    between atoms: C_8  and  C_9 
REMARK       I    between atoms: N_10  and  C_8 
REMARK       I    between atoms: N_15  and  C_11 
REMARK    6  A    between atoms: C_12  and  C_16 
REMARK    7  A    between atoms: C_23  and  N_15 
ROOT
ATOM      1  C   UNL d   1      52.979  33.638  53.780  0.00  0.00     0.107 A 
ATOM      2  N   UNL d   1      53.582  32.457  53.663  0.00  0.00    -0.299 N 
ATOM      3  C   UNL d   1      52.940  32.902  53.402  0.00  0.00     0.092 A 
ATOM      4  C   UNL d   1      53.643  33.641  54.270  0.00  0.00     0.028 A 
ATOM      5  C   UNL d   1      54.016  32.907  54.196  0.00  0.00     0.065 A 
ATOM      6  C   UNL d   1      53.954  34.215  54.770  0.00  0.00     0.002 A 
ATOM      7  C   UNL d   1      54.701  32.755  54.628  0.00  0.00     0.018 A 
ATOM      8  C   UNL d   1      54.643  34.063  55.205  0.00  0.00     0.000 A 
ATOM      9  C   UNL d   1      55.013  33.328  55.129  0.00  0.00     0.002 A 
ENDROOT
BRANCH   1  10
ATOM     10  S   UNL d   1      52.443  34.263  53.682  0.00  0.00     0.217 S 
ATOM     11  O   UNL d   1      52.922  34.644  53.137  0.00  0.00    -0.217 OA
ATOM     12  O   UNL d   1      51.961  33.873  54.236  0.00  0.00    -0.217 OA
BRANCH  10  13
ATOM     13  C   UNL d   1      51.904  34.886  53.588  0.00  0.00     0.161 C 
BRANCH  13  14
ATOM     14  C   UNL d   1      51.287  34.813  53.063  0.00  0.00     0.291 C 
ATOM     15  N   UNL d   1      50.516  34.995  53.295  0.00  0.00    -0.207 NA
ATOM     16  O   UNL d   1      51.431  34.553  52.289  0.00  0.00    -0.264 OA
BRANCH  15  17
ATOM     17  C   UNL d   1      49.893  34.919  52.760  0.00  0.00     0.085 A 
ATOM     18  C   UNL d   1      49.161  35.271  52.918  0.00  0.00     0.019 A 
ATOM     19  C   UNL d   1      48.536  35.200  52.390  0.00  0.00     0.006 A 
ATOM     20  C   UNL d   1      48.635  34.769  51.685  0.00  0.00     0.059 A 
ATOM     21  C   UNL d   1      49.361  34.413  51.516  0.00  0.00     0.006 A 
ATOM     22  C   UNL d   1      49.996  34.487  52.055  0.00  0.00     0.019 A 
BRANCH  20  23
ATOM     23  C   UNL d   1      48.019  34.692  51.152  0.00  0.00     0.297 C 
ATOM     24  O   UNL d   1      47.951  34.020  50.672  0.00  0.00    -0.264 OA
ATOM     25  N   UNL d   1      47.448  35.302  51.091  0.00  0.00    -0.102 N 
ENDBRANCH  20  23
ENDBRANCH  15  17
ENDBRANCH  13  14
ENDBRANCH  10  13
ENDBRANCH   1  10
BRANCH   2  26
ATOM     26  C   UNL d   1      53.759  31.687  53.428  0.00  0.00     0.142 C 
BRANCH  26  27
ATOM     27  C   UNL d   1      53.176  31.214  53.095  0.00  0.00     0.282 C 
ATOM     28  N   UNL d   1      53.088  30.432  53.339  0.00  0.00    -0.271 N 
ATOM     29  C   UNL d   1      53.538  30.045  53.907  0.00  0.00     0.083 A 
ATOM     30  C   UNL d   1      52.527  29.891  53.053  0.00  0.00     0.083 A 
ATOM     31  C   UNL d   1      53.266  29.274  53.980  0.00  0.00     0.021 A 
ATOM     32  C   UNL d   1      52.639  29.175  53.452  0.00  0.00     0.021 A 
ATOM     33  O   UNL d   1      52.679  31.523  52.516  0.00  0.00    -0.265 OA
ENDBRANCH  26  27
ENDBRANCH   2  26
TORSDOF 7
ENDMDL
MODEL 2
REMARK VINA RESULT:      -9.2      1.481      1.948
REMARK  7 active torsions:
REMARK  status: ('A' for Active; 'I' for Inactive)
REMARK    1  A    between atoms: S_2  and  C_1 
REMARK    2  A    between atoms: C_7  and  S_2 
REMARK    3  A    between atoms: C_9  and  N_3 
REMARK    4  A    between atoms: C_11  and  C_7 
REMARK    5  A    between atoms: C_8  and  C_9 
REMARK       I    between atoms: N_10  and  C_8 
REMARK       I    between atoms: N_15  and  C_11 
REMARK    6  A    between atoms: C_12  and  C_16 
REMARK    7  A    between atoms: C_23  and  N_15 
ROOT
ATOM      1  C   UNL d   1      51.735  33.774  52.989  0.00  0.00     0.107 A 
ATOM      2  N   UNL d   1      52.616  32.902  53.476  0.00  0.00    -0.299 N 
ATOM      3  C   UNL d   1      51.954  32.975  52.991  0.00  0.00     0.092 A 
ATOM      4  C   UNL d   1      52.262  34.186  53.472  0.00  0.00     0.028 A 
ATOM      5  C   UNL d   1      52.808  33.643  53.774  0.00  0.00     0.065 A 
ATOM      6  C   UNL d   1      52.314  34.981  53.674  0.00  0.00     0.002 A 
ATOM      7  C   UNL d   1      53.404  33.905  54.278  0.00  0.00     0.018 A 
ATOM      8  C   UNL d   1      52.913  35.246  54.182  0.00  0.00     0.000 A 
ATOM      9  C   UNL d   1      53.457  34.701  54.481  0.00  0.00     0.002 A 
ENDROOT
BRANCH   1  10
ATOM     10  S   UNL d   1      51.097  34.102  52.573  0.00  0.00     0.217 S 
ATOM     11  O   UNL d   1      51.586  34.508  52.058  0.00  0.00    -0.217 OA
ATOM     12  O   UNL d   1      50.604  33.687  53.099  0.00  0.00    -0.217 OA
BRANCH  10  13
ATOM     13  C   UNL d   1      50.456  34.427  52.161  0.00  0.00     0.161 C 
BRANCH  13  14
ATOM     14  C   UNL d   1      49.782  34.643  52.563  0.00  0.00     0.291 C 
ATOM     15  N   UNL d   1      49.411  35.362  52.402  0.00  0.00    -0.207 NA
ATOM     16  O   UNL d   1      49.464  34.138  53.139  0.00  0.00    -0.264 OA
BRANCH  15  17
ATOM     17  C   UNL d   1      48.728  35.577  52.811  0.00  0.00     0.085 A 
ATOM     18  C   UNL d   1      48.780  35.892  53.575  0.00  0.00     0.019 A 
ATOM     19  C   UNL d   1      48.104  36.109  53.988  0.00  0.00     0.006 A 
ATOM     20  C   UNL d   1      47.355  36.012  53.640  0.00  0.00     0.059 A 
ATOM     21  C   UNL d   1      47.291  35.699  52.878  0.00  0.00     0.006 A 
ATOM     22  C   UNL d   1      47.980  35.479  52.459  0.00  0.00     0.019 A 
BRANCH  20  23
ATOM     23  C   UNL d   1      46.675  36.225  54.043  0.00  0.00     0.297 C 
ATOM     24  O   UNL d   1      46.542  35.970  54.820  0.00  0.00    -0.264 OA
ATOM     25  N   UNL d   1      46.105  36.709  53.664  0.00  0.00    -0.102 N 
ENDBRANCH  20  23
ENDBRANCH  15  17
ENDBRANCH  13  14
ENDBRANCH  10  13
ENDBRANCH   1  10
BRANCH   2  26
ATOM     26  C   UNL d   1      53.018  32.201  53.637  0.00  0.00     0.142 C 
BRANCH  26  27
ATOM     27  C   UNL d   1      52.977  31.573  53.109  0.00  0.00     0.282 C 
ATOM     28  N   UNL d   1      53.072  30.800  53.378  0.00  0.00    -0.271 N 
ATOM     29  C   UNL d   1      53.212  30.567  54.153  0.00  0.00     0.083 A 
ATOM     30  C   UNL d   1      53.045  30.114  52.912  0.00  0.00     0.083 A 
ATOM     31  C   UNL d   1      53.272  29.749  54.177  0.00  0.00     0.021 A 
ATOM     32  C   UNL d   1      53.169  29.465  53.409  0.00  0.00     0.021 A 
ATOM     33  O   UNL d   1      52.840  31.717  52.310  0.00  0.00    -0.265 OA
ENDBRANCH  26  27
ENDBRANCH   2  26
TORSDOF 7
ENDMDL
MODEL 3
REMARK VINA RESULT:      -7.3      1.689      6.108
REMARK  7 active torsions:
REMARK  status: ('A' for Active; 'I' for Inactive)
REMARK    1  A    between atoms: S_2  and  C_1 
REMARK    2  A    between atoms: C_7  and  S_2 
REMARK    3  A    between atoms: C_9  and  N_3 
REMARK    4  A    between atoms: C_11  and  C_7 
REMARK    5  A    between atoms: C_8  and  C_9 
REMARK       I    between atoms: N_10  and  C_8 
REMARK       I    between atoms: N_15  and  C_11 
REMARK    6  A    between atoms: C_12  and  C_16 
REMARK    7  A    between atoms: C_23  and  N_15 
ROOT
ATOM      1  C   UNL d   1      50.024  34.734  52.737  0.00  0.00     0.107 A 
ATOM      2  N   UNL d   1      48.797  35.251  52.752  0.00  0.00    -0.299 N 
ATOM      3  C   UNL d   1      49.481  35.154  53.201  0.00  0.00     0.092 A 
ATOM      4  C   UNL d   1      49.671  34.576  52.008  0.00  0.00     0.028 A 
ATOM      5  C   UNL d   1      48.909  34.898  52.019  0.00  0.00     0.065 A 
ATOM      6  C   UNL d   1      49.944  34.183  51.339  0.00  0.00     0.002 A 
ATOM      7  C   UNL d   1      48.427  34.822  51.356  0.00  0.00     0.018 A 
ATOM      8  C   UNL d   1      49.459  34.106  50.672  0.00  0.00     0.000 A 
ATOM      9  C   UNL d   1      48.699  34.429  50.687  0.00  0.00     0.002 A 
ENDROOT
BRANCH   1  10
ATOM     10  S   UNL d   1      50.789  34.511  52.966  0.00  0.00     0.217 S 
ATOM     11  O   UNL d   1      50.513  34.014  53.556  0.00  0.00    -0.217 OA
ATOM     12  O   UNL d   1      51.064  35.017  52.366  0.00  0.00    -0.217 OA
BRANCH  10  13
ATOM     13  C   UNL d   1      51.556  34.291  53.192  0.00  0.00     0.161 C 
BRANCH  13  14
ATOM     14  C   UNL d   1      51.737  33.505  53.301  0.00  0.00     0.291 C 
ATOM     15  N   UNL d   1      52.454  33.199  53.031  0.00  0.00    -0.207 NA
ATOM     16  O   UNL d   1      51.199  33.007  53.687  0.00  0.00    -0.264 OA
BRANCH  15  17
ATOM     17  C   UNL d   1      52.634  32.403  53.144  0.00  0.00     0.085 A 
ATOM     18  C   UNL d   1      52.327  31.828  52.633  0.00  0.00     0.019 A 
ATOM     19  C   UNL d   1      52.502  31.032  52.740  0.00  0.00     0.006 A 
ATOM     20  C   UNL d   1      52.994  30.796  53.368  0.00  0.00     0.059 A 
ATOM     21  C   UNL d   1      53.306  31.361  53.884  0.00  0.00     0.006 A 
ATOM     22  C   UNL d   1      53.127  32.170  53.774  0.00  0.00     0.019 A 
BRANCH  20  23
ATOM     23  C   UNL d   1      53.175  30.006  53.483  0.00  0.00     0.297 C 
ATOM     24  O   UNL d   1      52.604  29.416  53.369  0.00  0.00    -0.264 OA
ATOM     25  N   UNL d   1      53.950  29.791  53.720  0.00  0.00    -0.102 N 
ENDBRANCH  20  23
ENDBRANCH  15  17
ENDBRANCH  13  14
ENDBRANCH  10  13
ENDBRANCH   1  10
BRANCH   2  26
ATOM     26  C   UNL d   1      48.113  35.639  52.999  0.00  0.00     0.142 C 
BRANCH  26  27
ATOM     27  C   UNL d   1      48.130  36.118  53.667  0.00  0.00     0.282 C 
ATOM     28  N   UNL d   1      47.442  36.243  54.103  0.00  0.00    -0.271 N 
ATOM     29  C   UNL d   1      46.699  35.930  53.942  0.00  0.00     0.083 A 
ATOM     30  C   UNL d   1      47.374  36.709  54.785  0.00  0.00     0.083 A 
ATOM     31  C   UNL d   1      46.172  36.194  54.514  0.00  0.00     0.021 A 
ATOM     32  C   UNL d   1      46.587  36.678  55.038  0.00  0.00     0.021 A 
ATOM     33  O   UNL d   1      48.835  36.472  53.900  0.00  0.00    -0.265 OA
ENDBRANCH  26  27
ENDBRANCH   2  26
TORSDOF 7
ENDMDL
MODEL 4
REMARK VINA RESULT:      -7.3     10.184     11.610
REMARK  7 active torsions:
REMARK  status: ('A' for Active; 'I' for Inactive)
REMARK    1  A    between atoms: S_2  and  C_1 
REMARK    2  A    between atoms: C_7  and  S_2 
REMARK    3  A    between atoms: C_9  and  N_3 
REMARK    4  A    between atoms: C_11  and  C_7 
REMARK    5  A    between atoms: C_8  and  C_9 
REMARK       I    between atoms: N_10  and  C_8 
REMARK       I    between atoms: N_15  and  C_11 
REMARK    6  A    between atoms: C_12  and  C_16 
REMARK    7  A    between atoms: C_23  and  N_15 
ROOT
ATOM      1  C   UNL d   1      44.866  28.818  58.276  0.00  0.00     0.107 A 
ATOM      2  N   UNL d   1      44.528  29.305  59.469  0.00  0.00    -0.299 N 
ATOM      3  C   UNL d   1      44.680  28.609  59.056  0.00  0.00     0.092 A 
ATOM      4  C   UNL d   1      44.828  29.640  58.215  0.00  0.00     0.028 A 
ATOM      5  C   UNL d   1      44.618  29.941  58.956  0.00  0.00     0.065 A 
ATOM      6  C   UNL d   1      44.957  30.150  57.583  0.00  0.00     0.002 A 
ATOM      7  C   UNL d   1      44.539  30.755  59.056  0.00  0.00     0.018 A 
ATOM      8  C   UNL d   1      44.877  30.969  57.683  0.00  0.00     0.000 A 
ATOM      9  C   UNL d   1      44.668  31.266  58.424  0.00  0.00     0.002 A 
ENDROOT
BRANCH   1  10
ATOM     10  S   UNL d   1      45.057  28.293  57.665  0.00  0.00     0.217 S 
ATOM     11  O   UNL d   1      44.320  28.363  57.316  0.00  0.00    -0.217 OA
ATOM     12  O   UNL d   1      45.805  28.224  58.022  0.00  0.00    -0.217 OA
BRANCH  10  13
ATOM     13  C   UNL d   1      45.253  27.766  57.055  0.00  0.00     0.161 C 
BRANCH  13  14
ATOM     14  C   UNL d   1      45.240  26.964  57.191  0.00  0.00     0.291 C 
ATOM     15  N   UNL d   1      44.765  26.470  56.732  0.00  0.00    -0.207 NA
ATOM     16  O   UNL d   1      45.706  26.639  57.794  0.00  0.00    -0.264 OA
BRANCH  15  17
ATOM     17  C   UNL d   1      44.753  25.657  56.873  0.00  0.00     0.085 A 
ATOM     18  C   UNL d   1      45.077  25.132  56.321  0.00  0.00     0.019 A 
ATOM     19  C   UNL d   1      45.069  24.322  56.455  0.00  0.00     0.006 A 
ATOM     20  C   UNL d   1      44.733  24.019  57.153  0.00  0.00     0.059 A 
ATOM     21  C   UNL d   1      44.407  24.533  57.712  0.00  0.00     0.006 A 
ATOM     22  C   UNL d   1      44.416  25.358  57.574  0.00  0.00     0.019 A 
BRANCH  20  23
ATOM     23  C   UNL d   1      44.720  23.214  57.297  0.00  0.00     0.297 C 
ATOM     24  O   UNL d   1      45.061  22.679  56.763  0.00  0.00    -0.264 OA
ATOM     25  N   UNL d   1      44.357  22.925  57.995  0.00  0.00    -0.102 N 
ENDBRANCH  20  23
ENDBRANCH  15  17
ENDBRANCH  13  14
ENDBRANCH  10  13
ENDBRANCH   1  10
BRANCH   2  26
ATOM     26  C   UNL d   1      44.321  29.355  60.264  0.00  0.00     0.142 C 
BRANCH  26  27
ATOM     27  C   UNL d   1      44.367  28.690  60.745  0.00  0.00     0.282 C 
ATOM     28  N   UNL d   1      44.459  28.775  61.559  0.00  0.00    -0.271 N 
ATOM     29  C   UNL d   1      44.513  29.482  61.974  0.00  0.00     0.083 A 
ATOM     30  C   UNL d   1      44.514  28.157  62.111  0.00  0.00     0.083 A 
ATOM     31  C   UNL d   1      44.601  29.314  62.772  0.00  0.00     0.021 A 
ATOM     32  C   UNL d   1      44.602  28.494  62.861  0.00  0.00     0.021 A 
ATOM     33  O   UNL d   1      44.322  27.940  60.411  0.00  0.00    -0.265 OA
ENDBRANCH  26  27
ENDBRANCH   2  26
TORSDOF 7
ENDMDL
MODEL 5
REMARK VINA RESULT:      -7.2      2.604      7.066
REMARK  7 active torsions:
REMARK  status: ('A' for Active; 'I' for Inactive)
REMARK    1  A    between atoms: S_2  and  C_1 
REMARK    2  A    between atoms: C_7  and  S_2 
REMARK    3  A    between atoms: C_9  and  N_3 
REMARK    4  A    between atoms: C_11  and  C_7 
REMARK    5  A    between atoms: C_8  and  C_9 
REMARK       I    between atoms: N_10  and  C_8 
REMARK       I    between atoms: N_15  and  C_11 
REMARK    6  A    between atoms: C_12  and  C_16 
REMARK    7  A    between atoms: C_23  and  N_15 
ROOT
ATOM      1  C   UNL d   1      47.616  35.564  52.103  0.00  0.00     0.107 A 
ATOM      2  N   UNL d   1      46.753  36.259  52.841  0.00  0.00    -0.299 N 
ATOM      3  C   UNL d   1      47.524  35.968  52.820  0.00  0.00     0.092 A 
ATOM      4  C   UNL d   1      46.904  35.608  51.689  0.00  0.00     0.028 A 
ATOM      5  C   UNL d   1      46.370  36.040  52.148  0.00  0.00     0.065 A 
ATOM      6  C   UNL d   1      46.676  35.312  50.956  0.00  0.00     0.002 A 
ATOM      7  C   UNL d   1      45.607  36.172  51.867  0.00  0.00     0.018 A 
ATOM      8  C   UNL d   1      45.909  35.444  50.672  0.00  0.00     0.000 A 
ATOM      9  C   UNL d   1      45.377  35.876  51.134  0.00  0.00     0.002 A 
ENDROOT
BRANCH   1  10
ATOM     10  S   UNL d   1      48.306  35.181  51.847  0.00  0.00     0.217 S 
ATOM     11  O   UNL d   1      47.991  34.436  51.975  0.00  0.00    -0.217 OA
ATOM     12  O   UNL d   1      48.622  35.939  51.719  0.00  0.00    -0.217 OA
BRANCH  10  13
ATOM     13  C   UNL d   1      48.997  34.802  51.590  0.00  0.00     0.161 C 
BRANCH  13  14
ATOM     14  C   UNL d   1      49.595  34.645  52.120  0.00  0.00     0.291 C 
ATOM     15  N   UNL d   1      50.297  34.293  51.867  0.00  0.00    -0.207 NA
ATOM     16  O   UNL d   1      49.499  34.838  52.921  0.00  0.00    -0.264 OA
BRANCH  15  17
ATOM     17  C   UNL d   1      50.900  34.135  52.407  0.00  0.00     0.085 A 
ATOM     18  C   UNL d   1      50.850  33.479  52.909  0.00  0.00     0.019 A 
ATOM     19  C   UNL d   1      51.447  33.315  53.449  0.00  0.00     0.006 A 
ATOM     20  C   UNL d   1      52.112  33.813  53.496  0.00  0.00     0.059 A 
ATOM     21  C   UNL d   1      52.173  34.471  53.000  0.00  0.00     0.006 A 
ATOM     22  C   UNL d   1      51.564  34.636  52.451  0.00  0.00     0.019 A 
BRANCH  20  23
ATOM     23  C   UNL d   1      52.713  33.659  54.031  0.00  0.00     0.297 C 
ATOM     24  O   UNL d   1      52.934  34.222  54.598  0.00  0.00    -0.264 OA
ATOM     25  N   UNL d   1      53.110  32.922  54.004  0.00  0.00    -0.102 N 
ENDBRANCH  20  23
ENDBRANCH  15  17
ENDBRANCH  13  14
ENDBRANCH  10  13
ENDBRANCH   1  10
BRANCH   2  26
ATOM     26  C   UNL d   1      46.423  36.697  53.455  0.00  0.00     0.142 C 
BRANCH  26  27
ATOM     27  C   UNL d   1      46.608  36.517  54.235  0.00  0.00     0.282 C 
ATOM     28  N   UNL d   1      46.020  36.528  54.813  0.00  0.00    -0.271 N 
ATOM     29  C   UNL d   1      45.227  36.707  54.698  0.00  0.00     0.083 A 
ATOM     30  C   UNL d   1      46.124  36.360  55.618  0.00  0.00     0.083 A 
ATOM     31  C   UNL d   1      44.836  36.653  55.418  0.00  0.00     0.021 A 
ATOM     32  C   UNL d   1      45.390  36.438  55.991  0.00  0.00     0.021 A 
ATOM     33  O   UNL d   1      47.382  36.326  54.439  0.00  0.00    -0.265 OA
ENDBRANCH  26  27
ENDBRANCH   2  26
TORSDOF 7
ENDMDL
MODEL 6
REMARK VINA RESULT:      -6.9      1.425      3.008
REMARK  7 active torsions:
REMARK  status: ('A' for Active; 'I' for Inactive)
REMARK    1  A    between atoms: S_2  and  C_1 
REMARK    2  A    between atoms: C_7  and  S_2 
REMARK    3  A    between atoms: C_9  and  N_3 
REMARK    4  A    between atoms: C_11  and  C_7 
REMARK    5  A    between atoms: C_8  and  C_9 
REMARK       I    between atoms: N_10  and  C_8 
REMARK       I    between atoms: N_15  and  C_11 
REMARK    6  A    between atoms: C_12  and  C_16 
REMARK    7  A    between atoms: C_23  and  N_15 
ROOT
ATOM      1  C   UNL d   1      52.433  32.333  53.092  0.00  0.00     0.107 A 
ATOM      2  N   UNL d   1      53.460  32.185  53.927  0.00  0.00    -0.299 N 
ATOM      3  C   UNL d   1      52.953  32.741  53.591  0.00  0.00     0.092 A 
ATOM      4  C   UNL d   1      52.623  31.530  53.124  0.00  0.00     0.028 A 
ATOM      5  C   UNL d   1      53.260  31.440  53.643  0.00  0.00     0.065 A 
ATOM      6  C   UNL d   1      52.298  30.874  52.750  0.00  0.00     0.002 A 
ATOM      7  C   UNL d   1      53.568  30.689  53.782  0.00  0.00     0.018 A 
ATOM      8  C   UNL d   1      52.607  30.118  52.889  0.00  0.00     0.000 A 
ATOM      9  C   UNL d   1      53.244  30.032  53.408  0.00  0.00     0.002 A 
ENDROOT
BRANCH   1  10
ATOM     10  S   UNL d   1      51.828  32.672  52.639  0.00  0.00     0.217 S 
ATOM     11  O   UNL d   1      51.238  32.324  53.089  0.00  0.00    -0.217 OA
ATOM     12  O   UNL d   1      52.430  33.023  52.185  0.00  0.00    -0.217 OA
BRANCH  10  13
ATOM     13  C   UNL d   1      51.225  33.014  52.183  0.00  0.00     0.161 C 
BRANCH  13  14
ATOM     14  C   UNL d   1      50.668  33.490  52.537  0.00  0.00     0.291 C 
ATOM     15  N   UNL d   1      50.377  34.155  52.146  0.00  0.00    -0.207 NA
ATOM     16  O   UNL d   1      50.390  33.307  53.296  0.00  0.00    -0.264 OA
BRANCH  15  17
ATOM     17  C   UNL d   1      49.813  34.635  52.509  0.00  0.00     0.085 A 
ATOM     18  C   UNL d   1      49.091  34.789  52.133  0.00  0.00     0.019 A 
ATOM     19  C   UNL d   1      48.524  35.266  52.488  0.00  0.00     0.006 A 
ATOM     20  C   UNL d   1      48.673  35.602  53.235  0.00  0.00     0.059 A 
ATOM     21  C   UNL d   1      49.389  35.455  53.619  0.00  0.00     0.006 A 
ATOM     22  C   UNL d   1      49.965  34.969  53.256  0.00  0.00     0.019 A 
BRANCH  20  23
ATOM     23  C   UNL d   1      48.115  36.079  53.598  0.00  0.00     0.297 C 
ATOM     24  O   UNL d   1      47.912  35.969  54.393  0.00  0.00    -0.264 OA
ATOM     25  N   UNL d   1      47.743  36.687  53.157  0.00  0.00    -0.102 N 
ENDBRANCH  20  23
ENDBRANCH  15  17
ENDBRANCH  13  14
ENDBRANCH  10  13
ENDBRANCH   1  10
BRANCH   2  26
ATOM     26  C   UNL d   1      54.066  32.349  54.460  0.00  0.00     0.142 C 
BRANCH  26  27
ATOM     27  C   UNL d   1      54.644  32.901  54.269  0.00  0.00     0.282 C 
ATOM     28  N   UNL d   1      54.938  33.409  54.848  0.00  0.00    -0.271 N 
ATOM     29  C   UNL d   1      54.711  33.433  55.637  0.00  0.00     0.083 A 
ATOM     30  C   UNL d   1      55.519  33.991  54.737  0.00  0.00     0.083 A 
ATOM     31  C   UNL d   1      55.141  34.019  56.018  0.00  0.00     0.021 A 
ATOM     32  C   UNL d   1      55.643  34.367  55.463  0.00  0.00     0.021 A 
ATOM     33  O   UNL d   1      54.929  32.946  53.499  0.00  0.00    -0.265 OA
ENDBRANCH  26  27
ENDBRANCH   2  26
TORSDOF 7
ENDMDL
