MODEL 1
REMARK VINA RESULT:      -2.4      0.000      0.000
REMARK  3 active torsions:
REMARK  status: ('A' for Active; 'I' for Inactive)
REMARK    1  A    between atoms: O_3  and  C_1 
REMARK    2  A    between atoms: C_4  and  O_3 
REMARK    3  A    between atoms: C_8  and  C_4 
ROOT
ATOM      1  C   UNL d   1     -41.998-122.776 -53.190  0.00  0.00     0.131 A 
ATOM      2  C   UNL d   1     -42.199-122.409 -53.902  0.00  0.00     0.106 A 
ATOM      3  C   UNL d   1     -41.910-122.696 -54.618  0.00  0.00     0.030 A 
ATOM      4  C   UNL d   1     -41.500-123.440 -53.196  0.00  0.00     0.083 A 
ATOM      5  C   UNL d   1     -41.412-123.360 -54.625  0.00  0.00     0.060 A 
ATOM      6  C   UNL d   1     -41.208-123.730 -53.919  0.00  0.00     0.025 A 
ATOM      7  N   UNL d   1     -42.695-121.748 -53.894  0.00  0.00    -0.242 NA
ATOM      8 CL   UNL d   1     -41.291-123.816 -52.496  0.00  0.00    -0.080 Cl
ATOM      9 CL   UNL d   1     -41.123-123.647 -55.341  0.00  0.00    -0.082 Cl
ATOM     10  C   UNL d   1     -42.109-122.332 -55.319  0.00  0.00     0.004 A 
ATOM     11  C   UNL d   1     -42.898-121.378 -54.599  0.00  0.00     0.099 A 
ATOM     12  C   UNL d   1     -42.606-121.670 -55.316  0.00  0.00     0.021 A 
ENDROOT
BRANCH   1  13
ATOM     13  O   UNL d   1     -42.281-122.497 -52.477  0.00  0.00    -0.269 OA
BRANCH  13  14
ATOM     14  C   UNL d   1     -41.771-122.139 -51.936  0.00  0.00     0.323 C 
ATOM     15  O   UNL d   1     -41.123-121.714 -52.211  0.00  0.00    -0.257 OA
BRANCH  14  16
ATOM     16  C   UNL d   1     -41.908-122.204 -51.127  0.00  0.00     0.163 A 
ATOM     17  O   UNL d   1     -41.330-122.243 -50.535  0.00  0.00    -0.300 OA
ATOM     18  C   UNL d   1     -41.708-122.305 -49.815  0.00  0.00     0.123 A 
ATOM     19  C   UNL d   1     -42.533-122.304 -49.953  0.00  0.00     0.029 A 
ATOM     20  C   UNL d   1     -42.645-122.242 -50.766  0.00  0.00     0.032 A 
ENDBRANCH  14  16
ENDBRANCH  13  14
ENDBRANCH   1  13
TORSDOF 3
ENDMDL
MODEL 2
REMARK VINA RESULT:      -2.1      1.839      3.888
REMARK  3 active torsions:
REMARK  status: ('A' for Active; 'I' for Inactive)
REMARK    1  A    between atoms: O_3  and  C_1 
REMARK    2  A    between atoms: C_4  and  O_3 
REMARK    3  A    between atoms: C_8  and  C_4 
ROOT
ATOM      1  C   UNL d   1     -41.225-121.704 -52.558  0.00  0.00     0.131 A 
ATOM      2  C   UNL d   1     -41.193-122.394 -52.103  0.00  0.00     0.106 A 
ATOM      3  C   UNL d   1     -41.199-122.353 -51.280  0.00  0.00     0.030 A 
ATOM      4  C   UNL d   1     -41.263-120.966 -52.182  0.00  0.00     0.083 A 
ATOM      5  C   UNL d   1     -41.238-121.615 -50.904  0.00  0.00     0.060 A 
ATOM      6  C   UNL d   1     -41.270-120.925 -51.351  0.00  0.00     0.025 A 
ATOM      7  N   UNL d   1     -41.154-123.129 -52.479  0.00  0.00    -0.242 NA
ATOM      8 CL   UNL d   1     -41.296-120.272 -52.621  0.00  0.00    -0.080 Cl
ATOM      9 CL   UNL d   1     -41.244-121.574 -50.081  0.00  0.00    -0.082 Cl
ATOM     10  C   UNL d   1     -41.168-123.034 -50.834  0.00  0.00     0.004 A 
ATOM     11  C   UNL d   1     -41.123-123.817 -52.032  0.00  0.00     0.099 A 
ATOM     12  C   UNL d   1     -41.129-123.773 -51.206  0.00  0.00     0.021 A 
ENDROOT
BRANCH   1  13
ATOM     13  O   UNL d   1     -41.219-121.737 -53.373  0.00  0.00    -0.269 OA
BRANCH  13  14
ATOM     14  C   UNL d   1     -41.925-121.705 -53.798  0.00  0.00     0.323 C 
ATOM     15  O   UNL d   1     -42.632-121.571 -53.400  0.00  0.00    -0.257 OA
BRANCH  14  16
ATOM     16  C   UNL d   1     -41.926-121.807 -54.615  0.00  0.00     0.163 A 
ATOM     17  O   UNL d   1     -41.265-121.972 -55.088  0.00  0.00    -0.300 OA
ATOM     18  C   UNL d   1     -41.515-122.028 -55.862  0.00  0.00     0.123 A 
ATOM     19  C   UNL d   1     -42.342-121.897 -55.879  0.00  0.00     0.029 A 
ATOM     20  C   UNL d   1     -42.584-121.761 -55.104  0.00  0.00     0.032 A 
ENDBRANCH  14  16
ENDBRANCH  13  14
ENDBRANCH   1  13
TORSDOF 3
ENDMDL
MODEL 3
REMARK VINA RESULT:      -2.0      1.654      2.417
REMARK  3 active torsions:
REMARK  status: ('A' for Active; 'I' for Inactive)
REMARK    1  A    between atoms: O_3  and  C_1 
REMARK    2  A    between atoms: C_4  and  O_3 
REMARK    3  A    between atoms: C_8  and  C_4 
ROOT
ATOM      1  C   UNL d   1     -41.301-122.272 -51.472  0.00  0.00     0.131 A 
ATOM      2  C   UNL d   1     -41.351-122.631 -52.215  0.00  0.00     0.106 A 
ATOM      3  C   UNL d   1     -41.352-122.176 -52.901  0.00  0.00     0.030 A 
ATOM      4  C   UNL d   1     -41.252-121.446 -51.418  0.00  0.00     0.083 A 
ATOM      5  C   UNL d   1     -41.303-121.349 -52.847  0.00  0.00     0.060 A 
ATOM      6  C   UNL d   1     -41.253-120.985 -52.111  0.00  0.00     0.025 A 
ATOM      7  N   UNL d   1     -41.400-123.454 -52.267  0.00  0.00    -0.242 NA
ATOM      8 CL   UNL d   1     -41.202-121.074 -50.686  0.00  0.00    -0.080 Cl
ATOM      9 CL   UNL d   1     -41.304-120.893 -53.534  0.00  0.00    -0.082 Cl
ATOM     10  C   UNL d   1     -41.401-122.532 -53.633  0.00  0.00     0.004 A 
ATOM     11  C   UNL d   1     -41.449-123.817 -53.002  0.00  0.00     0.099 A 
ATOM     12  C   UNL d   1     -41.450-123.356 -53.690  0.00  0.00     0.021 A 
ENDROOT
BRANCH   1  13
ATOM     13  O   UNL d   1     -41.300-122.717 -50.788  0.00  0.00    -0.269 OA
BRANCH  13  14
ATOM     14  C   UNL d   1     -41.971-122.750 -50.310  0.00  0.00     0.323 C 
ATOM     15  O   UNL d   1     -42.674-122.417 -50.574  0.00  0.00    -0.257 OA
BRANCH  14  16
ATOM     16  C   UNL d   1     -41.940-123.114 -49.572  0.00  0.00     0.163 A 
ATOM     17  O   UNL d   1     -41.303-123.550 -49.268  0.00  0.00    -0.300 OA
ATOM     18  C   UNL d   1     -41.507-123.810 -48.522  0.00  0.00     0.123 A 
ATOM     19  C   UNL d   1     -42.280-123.537 -48.353  0.00  0.00     0.029 A 
ATOM     20  C   UNL d   1     -42.537-123.109 -49.008  0.00  0.00     0.032 A 
ENDBRANCH  14  16
ENDBRANCH  13  14
ENDBRANCH   1  13
TORSDOF 3
ENDMDL
MODEL 4
REMARK VINA RESULT:      -1.8      1.328      3.764
REMARK  3 active torsions:
REMARK  status: ('A' for Active; 'I' for Inactive)
REMARK    1  A    between atoms: O_3  and  C_1 
REMARK    2  A    between atoms: C_4  and  O_3 
REMARK    3  A    between atoms: C_8  and  C_4 
ROOT
ATOM      1  C   UNL d   1     -42.100-122.937 -51.510  0.00  0.00     0.131 A 
ATOM      2  C   UNL d   1     -42.441-122.693 -50.798  0.00  0.00     0.106 A 
ATOM      3  C   UNL d   1     -42.162-122.983 -50.079  0.00  0.00     0.030 A 
ATOM      4  C   UNL d   1     -41.472-123.479 -51.500  0.00  0.00     0.083 A 
ATOM      5  C   UNL d   1     -41.534-123.525 -50.069  0.00  0.00     0.060 A 
ATOM      6  C   UNL d   1     -41.190-123.772 -50.774  0.00  0.00     0.025 A 
ATOM      7  N   UNL d   1     -43.066-122.153 -50.809  0.00  0.00    -0.242 NA
ATOM      8 CL   UNL d   1     -41.123-123.732 -52.200  0.00  0.00    -0.080 Cl
ATOM      9 CL   UNL d   1     -41.255-123.815 -49.350  0.00  0.00    -0.082 Cl
ATOM     10  C   UNL d   1     -42.499-122.740 -49.378  0.00  0.00     0.004 A 
ATOM     11  C   UNL d   1     -43.409-121.906 -50.105  0.00  0.00     0.099 A 
ATOM     12  C   UNL d   1     -43.126-122.200 -49.384  0.00  0.00     0.021 A 
ENDROOT
BRANCH   1  13
ATOM     13  O   UNL d   1     -42.370-122.655 -52.226  0.00  0.00    -0.269 OA
BRANCH  13  14
ATOM     14  C   UNL d   1     -41.864-122.244 -52.731  0.00  0.00     0.323 C 
ATOM     15  O   UNL d   1     -41.165-121.929 -52.437  0.00  0.00    -0.257 OA
BRANCH  14  16
ATOM     16  C   UNL d   1     -42.056-122.149 -53.526  0.00  0.00     0.163 A 
ATOM     17  O   UNL d   1     -41.909-122.693 -54.134  0.00  0.00    -0.300 OA
ATOM     18  C   UNL d   1     -42.187-122.377 -54.832  0.00  0.00     0.123 A 
ATOM     19  C   UNL d   1     -42.514-121.625 -54.664  0.00  0.00     0.029 A 
ATOM     20  C   UNL d   1     -42.427-121.494 -53.856  0.00  0.00     0.032 A 
ENDBRANCH  14  16
ENDBRANCH  13  14
ENDBRANCH   1  13
TORSDOF 3
ENDMDL
