MODEL 1
REMARK VINA RESULT:      -4.4      0.000      0.000
REMARK  6 active torsions:
REMARK  status: ('A' for Active; 'I' for Inactive)
REMARK       I    between atoms: C_5  and  N_1 
REMARK    1  A    between atoms: C_10  and  C_5 
REMARK    2  A    between atoms: C_7  and  C_13 
REMARK       I    between atoms: N_8  and  C_7 
REMARK    3  A    between atoms: C_12  and  N_8 
REMARK    4  A    between atoms: C_13  and  C_10 
REMARK    5  A    between atoms: O_20  and  C_14 
REMARK    6  A    between atoms: C_22  and  O_20 
ROOT
ATOM      1  C   UNL d   1      57.861   0.064  29.818  0.00  0.00     0.279 C 
ATOM      2  N   UNL d   1      58.336  -0.067  29.167  0.00  0.00    -0.208 NA
ATOM      3  O   UNL d   1      57.295   0.680  29.809  0.00  0.00    -0.265 OA
ENDROOT
BRANCH   1   4
ATOM      4  C   UNL d   1      57.940  -0.405  30.474  0.00  0.00     0.068 C 
BRANCH   4   5
ATOM      5  C   UNL d   1      57.657  -0.151  31.202  0.00  0.00     0.068 C 
BRANCH   5   6
ATOM      6  C   UNL d   1      57.113  -0.609  31.621  0.00  0.00     0.281 C 
ATOM      7  N   UNL d   1      56.891  -0.385  32.392  0.00  0.00    -0.195 N 
ATOM      8  N   UNL d   1      57.105   0.240  32.873  0.00  0.00    -0.163 NA
ATOM      9  C   UNL d   1      56.348  -0.846  32.804  0.00  0.00     0.088 A 
ATOM     10  C   UNL d   1      56.687   0.167  33.601  0.00  0.00     0.103 A 
ATOM     11  C   UNL d   1      56.724   0.669  34.257  0.00  0.00     0.022 C 
ATOM     12  C   UNL d   1      56.230  -0.501  33.542  0.00  0.00     0.040 A 
ATOM     13  C   UNL d   1      55.978  -1.541  32.534  0.00  0.00     0.021 C 
ATOM     14  O   UNL d   1      56.792  -1.290  31.274  0.00  0.00    -0.265 OA
ENDBRANCH   5   6
ENDBRANCH   4   5
ENDBRANCH   1   4
BRANCH   2  15
ATOM     15  C   UNL d   1      58.895  -0.676  29.177  0.00  0.00     0.085 A 
ATOM     16  C   UNL d   1      58.702  -1.425  28.869  0.00  0.00     0.021 A 
ATOM     17  C   UNL d   1      59.261  -2.035  28.879  0.00  0.00     0.026 A 
ATOM     18  C   UNL d   1      59.998  -1.897  29.191  0.00  0.00     0.100 A 
ATOM     19  C   UNL d   1      60.196  -1.151  29.500  0.00  0.00     0.026 A 
ATOM     20  C   UNL d   1      59.646  -0.541  29.493  0.00  0.00     0.021 A 
BRANCH  18  21
ATOM     21  O   UNL d   1      60.547  -2.520  29.193  0.00  0.00    -0.305 OA
BRANCH  21  22
ATOM     22  C   UNL d   1      60.295  -3.297  29.178  0.00  0.00     0.123 C 
ATOM     23  C   UNL d   1      60.838  -3.906  29.098  0.00  0.00     0.029 C 
ENDBRANCH  21  22
ENDBRANCH  18  21
ENDBRANCH   2  15
TORSDOF 6
ENDMDL
MODEL 2
REMARK VINA RESULT:      -3.8      1.524      4.633
REMARK  6 active torsions:
REMARK  status: ('A' for Active; 'I' for Inactive)
REMARK       I    between atoms: C_5  and  N_1 
REMARK    1  A    between atoms: C_10  and  C_5 
REMARK    2  A    between atoms: C_7  and  C_13 
REMARK       I    between atoms: N_8  and  C_7 
REMARK    3  A    between atoms: C_12  and  N_8 
REMARK    4  A    between atoms: C_13  and  C_10 
REMARK    5  A    between atoms: O_20  and  C_14 
REMARK    6  A    between atoms: C_22  and  O_20 
ROOT
ATOM      1  C   UNL d   1      59.256   0.090  29.611  0.00  0.00     0.279 C 
ATOM      2  N   UNL d   1      58.952   0.675  30.091  0.00  0.00    -0.208 NA
ATOM      3  O   UNL d   1      59.845   0.272  29.045  0.00  0.00    -0.265 OA
ENDROOT
BRANCH   1   4
ATOM      4  C   UNL d   1      58.987  -0.671  29.684  0.00  0.00     0.068 C 
BRANCH   4   5
ATOM      5  C   UNL d   1      59.441  -1.300  29.413  0.00  0.00     0.068 C 
BRANCH   5   6
ATOM      6  C   UNL d   1      59.078  -1.985  29.132  0.00  0.00     0.281 C 
ATOM      7  N   UNL d   1      59.523  -2.684  29.047  0.00  0.00    -0.195 N 
ATOM      8  N   UNL d   1      60.307  -2.865  29.190  0.00  0.00    -0.163 NA
ATOM      9  C   UNL d   1      59.154  -3.365  28.766  0.00  0.00     0.088 A 
ATOM     10  C   UNL d   1      60.430  -3.676  28.994  0.00  0.00     0.103 A 
ATOM     11  C   UNL d   1      61.133  -4.107  29.047  0.00  0.00     0.022 C 
ATOM     12  C   UNL d   1      59.717  -3.965  28.737  0.00  0.00     0.040 A 
ATOM     13  C   UNL d   1      58.355  -3.444  28.546  0.00  0.00     0.021 C 
ATOM     14  O   UNL d   1      58.272  -1.976  28.936  0.00  0.00    -0.265 OA
ENDBRANCH   5   6
ENDBRANCH   4   5
ENDBRANCH   1   4
BRANCH   2  15
ATOM     15  C   UNL d   1      58.370   0.493  30.650  0.00  0.00     0.085 A 
ATOM     16  C   UNL d   1      57.595   0.314  30.403  0.00  0.00     0.021 A 
ATOM     17  C   UNL d   1      57.013   0.131  30.962  0.00  0.00     0.026 A 
ATOM     18  C   UNL d   1      57.203   0.128  31.751  0.00  0.00     0.100 A 
ATOM     19  C   UNL d   1      57.975   0.306  32.003  0.00  0.00     0.026 A 
ATOM     20  C   UNL d   1      58.558   0.489  31.453  0.00  0.00     0.021 A 
BRANCH  18  21
ATOM     21  O   UNL d   1      56.608  -0.057  32.299  0.00  0.00    -0.305 OA
BRANCH  21  22
ATOM     22  C   UNL d   1      56.327  -0.821  32.365  0.00  0.00     0.123 C 
ATOM     23  C   UNL d   1      55.872  -1.040  33.011  0.00  0.00     0.029 C 
ENDBRANCH  21  22
ENDBRANCH  18  21
ENDBRANCH   2  15
TORSDOF 6
ENDMDL
MODEL 3
REMARK VINA RESULT:      -2.6      1.323      4.833
REMARK  6 active torsions:
REMARK  status: ('A' for Active; 'I' for Inactive)
REMARK       I    between atoms: C_5  and  N_1 
REMARK    1  A    between atoms: C_10  and  C_5 
REMARK    2  A    between atoms: C_7  and  C_13 
REMARK       I    between atoms: N_8  and  C_7 
REMARK    3  A    between atoms: C_12  and  N_8 
REMARK    4  A    between atoms: C_13  and  C_10 
REMARK    5  A    between atoms: O_20  and  C_14 
REMARK    6  A    between atoms: C_22  and  O_20 
ROOT
ATOM      1  C   UNL d   1      57.594   0.217  30.127  0.00  0.00     0.279 C 
ATOM      2  N   UNL d   1      57.162   0.679  30.644  0.00  0.00    -0.208 NA
ATOM      3  O   UNL d   1      57.760   0.491  29.354  0.00  0.00    -0.265 OA
ENDROOT
BRANCH   1   4
ATOM      4  C   UNL d   1      57.862  -0.510  30.365  0.00  0.00     0.068 C 
BRANCH   4   5
ATOM      5  C   UNL d   1      58.535  -0.836  30.025  0.00  0.00     0.068 C 
BRANCH   5   6
ATOM      6  C   UNL d   1      58.533  -1.621  29.770  0.00  0.00     0.281 C 
ATOM      7  N   UNL d   1      59.200  -1.929  29.377  0.00  0.00    -0.195 N 
ATOM      8  N   UNL d   1      59.920  -1.605  29.165  0.00  0.00    -0.163 NA
ATOM      9  C   UNL d   1      59.192  -2.713  29.125  0.00  0.00     0.088 A 
ATOM     10  C   UNL d   1      60.371  -2.200  28.774  0.00  0.00     0.103 A 
ATOM     11  C   UNL d   1      61.133  -2.131  28.460  0.00  0.00     0.022 C 
ATOM     12  C   UNL d   1      59.912  -2.869  28.758  0.00  0.00     0.040 A 
ATOM     13  C   UNL d   1      58.573  -3.261  29.220  0.00  0.00     0.021 C 
ATOM     14  O   UNL d   1      57.870  -2.100  29.906  0.00  0.00    -0.265 OA
ENDBRANCH   5   6
ENDBRANCH   4   5
ENDBRANCH   1   4
BRANCH   2  15
ATOM     15  C   UNL d   1      56.999   0.406  31.407  0.00  0.00     0.085 A 
ATOM     16  C   UNL d   1      57.487   0.629  32.044  0.00  0.00     0.021 A 
ATOM     17  C   UNL d   1      57.325   0.357  32.808  0.00  0.00     0.026 A 
ATOM     18  C   UNL d   1      56.687  -0.129  32.931  0.00  0.00     0.100 A 
ATOM     19  C   UNL d   1      56.196  -0.356  32.300  0.00  0.00     0.026 A 
ATOM     20  C   UNL d   1      56.352  -0.089  31.539  0.00  0.00     0.021 A 
BRANCH  18  21
ATOM     21  O   UNL d   1      56.537  -0.394  33.704  0.00  0.00    -0.305 OA
BRANCH  21  22
ATOM     22  C   UNL d   1      55.901  -0.105  34.127  0.00  0.00     0.123 C 
ATOM     23  C   UNL d   1      56.000   0.153  34.898  0.00  0.00     0.029 C 
ENDBRANCH  21  22
ENDBRANCH  18  21
ENDBRANCH   2  15
TORSDOF 6
ENDMDL
MODEL 4
REMARK VINA RESULT:      -2.3      1.709      5.130
REMARK  6 active torsions:
REMARK  status: ('A' for Active; 'I' for Inactive)
REMARK       I    between atoms: C_5  and  N_1 
REMARK    1  A    between atoms: C_10  and  C_5 
REMARK    2  A    between atoms: C_7  and  C_13 
REMARK       I    between atoms: N_8  and  C_7 
REMARK    3  A    between atoms: C_12  and  N_8 
REMARK    4  A    between atoms: C_13  and  C_10 
REMARK    5  A    between atoms: O_20  and  C_14 
REMARK    6  A    between atoms: C_22  and  O_20 
ROOT
ATOM      1  C   UNL d   1      57.381  -0.917  30.958  0.00  0.00     0.279 C 
ATOM      2  N   UNL d   1      56.764  -1.152  31.438  0.00  0.00    -0.208 NA
ATOM      3  O   UNL d   1      57.608  -1.386  30.303  0.00  0.00    -0.265 OA
ENDROOT
BRANCH   1   4
ATOM      4  C   UNL d   1      57.773  -0.226  31.116  0.00  0.00     0.068 C 
BRANCH   4   5
ATOM      5  C   UNL d   1      58.275   0.105  30.556  0.00  0.00     0.068 C 
BRANCH   5   6
ATOM      6  C   UNL d   1      59.052   0.297  30.755  0.00  0.00     0.281 C 
ATOM      7  N   UNL d   1      59.668   0.135  30.218  0.00  0.00    -0.195 N 
ATOM      8  N   UNL d   1      59.683  -0.199  29.472  0.00  0.00    -0.163 NA
ATOM      9  C   UNL d   1      60.442   0.329  30.423  0.00  0.00     0.088 A 
ATOM     10  C   UNL d   1      60.483  -0.214  29.207  0.00  0.00     0.103 A 
ATOM     11  C   UNL d   1      60.770  -0.502  28.486  0.00  0.00     0.022 C 
ATOM     12  C   UNL d   1      60.932   0.111  29.798  0.00  0.00     0.040 A 
ATOM     13  C   UNL d   1      60.696   0.682  31.133  0.00  0.00     0.021 C 
ATOM     14  O   UNL d   1      59.217   0.648  31.487  0.00  0.00    -0.265 OA
ENDBRANCH   5   6
ENDBRANCH   4   5
ENDBRANCH   1   4
BRANCH   2  15
ATOM     15  C   UNL d   1      56.541  -0.688  32.084  0.00  0.00     0.085 A 
ATOM     16  C   UNL d   1      56.683  -0.955  32.860  0.00  0.00     0.021 A 
ATOM     17  C   UNL d   1      56.460  -0.490  33.507  0.00  0.00     0.026 A 
ATOM     18  C   UNL d   1      56.102   0.227  33.380  0.00  0.00     0.100 A 
ATOM     19  C   UNL d   1      55.957   0.499  32.607  0.00  0.00     0.026 A 
ATOM     20  C   UNL d   1      56.177   0.043  31.960  0.00  0.00     0.021 A 
BRANCH  18  21
ATOM     21  O   UNL d   1      55.884   0.682  34.039  0.00  0.00    -0.305 OA
BRANCH  21  22
ATOM     22  C   UNL d   1      55.123   0.647  34.335  0.00  0.00     0.123 C 
ATOM     23  C   UNL d   1      54.994   0.623  35.144  0.00  0.00     0.029 C 
ENDBRANCH  21  22
ENDBRANCH  18  21
ENDBRANCH   2  15
TORSDOF 6
ENDMDL
