MODEL 1
REMARK VINA RESULT:      53.9      0.000      0.000
REMARK  7 active torsions:
REMARK  status: ('A' for Active; 'I' for Inactive)
REMARK    1  A    between atoms: C_6  and  N_2 
REMARK    2  A    between atoms: C_7  and  C_3 
REMARK    3  A    between atoms: C_12  and  C_6 
REMARK    4  A    between atoms: C_21  and  C_7 
REMARK    5  A    between atoms: C_9  and  O_11 
REMARK    6  A    between atoms: O_11  and  C_12 
REMARK    7  A    between atoms: C_19  and  C_21 
ROOT
ATOM      1  N   UNL d   1     -51.151  24.766  33.327  0.00  0.00    -0.227 NA
ATOM      2  N   UNL d   1     -51.816  25.405  34.327  0.00  0.00    -0.287 N 
ATOM      3  C   UNL d   1     -51.171  25.457  33.798  0.00  0.00     0.148 A 
ATOM      4  C   UNL d   1     -52.196  24.673  34.180  0.00  0.00     0.083 A 
ATOM      5  C   UNL d   1     -51.791  24.287  33.572  0.00  0.00     0.099 A 
ATOM      6  C   UNL d   1     -52.858  24.312  34.523  0.00  0.00     0.019 A 
ATOM      7  C   UNL d   1     -52.041  23.548  33.307  0.00  0.00     0.021 A 
ATOM      8  C   UNL d   1     -53.110  23.573  34.258  0.00  0.00     0.002 A 
ATOM      9  C   UNL d   1     -52.701  23.191  33.649  0.00  0.00     0.002 A 
ENDROOT
BRANCH   2  10
ATOM     10  C   UNL d   1     -52.040  25.961  34.888  0.00  0.00     0.108 C 
BRANCH  10  11
ATOM     11  C   UNL d   1     -51.985  25.788  35.698  0.00  0.00     0.142 C 
BRANCH  11  12
ATOM     12  O   UNL d   1     -52.224  26.344  36.250  0.00  0.00    -0.304 OA
BRANCH  12  13
ATOM     13  C   UNL d   1     -51.998  26.266  37.037  0.00  0.00     0.100 A 
ATOM     14  C   UNL d   1     -52.392  25.733  37.522  0.00  0.00     0.025 A 
ATOM     15  C   UNL d   1     -52.168  25.652  38.312  0.00  0.00     0.002 A 
ATOM     16  C   UNL d   1     -52.563  25.117  38.801  0.00  0.00     0.000 C 
ATOM     17  C   UNL d   1     -51.545  26.108  38.616  0.00  0.00     0.000 A 
ATOM     18  C   UNL d   1     -51.151  26.645  38.120  0.00  0.00     0.002 A 
ATOM     19  C   UNL d   1     -51.376  26.724  37.333  0.00  0.00     0.025 A 
ENDBRANCH  12  13
ENDBRANCH  11  12
ENDBRANCH  10  11
ENDBRANCH   2  10
BRANCH   3  20
ATOM     20  C   UNL d   1     -50.512  25.815  33.455  0.00  0.00     0.041 C 
BRANCH  20  21
ATOM     21  C   UNL d   1     -50.471  26.636  33.402  0.00  0.00     0.049 C 
BRANCH  21  22
ATOM     22  C   UNL d   1     -49.740  27.006  33.307  0.00  0.00     0.234 C 
ATOM     23  O   UNL d   1     -49.526  27.630  33.799  0.00  0.00    -0.283 OA
ENDBRANCH  21  22
ENDBRANCH  20  21
ENDBRANCH   3  20
TORSDOF 7
ENDMDL
MODEL 2
REMARK VINA RESULT:      56.4      2.754      3.664
REMARK  7 active torsions:
REMARK  status: ('A' for Active; 'I' for Inactive)
REMARK    1  A    between atoms: C_6  and  N_2 
REMARK    2  A    between atoms: C_7  and  C_3 
REMARK    3  A    between atoms: C_12  and  C_6 
REMARK    4  A    between atoms: C_21  and  C_7 
REMARK    5  A    between atoms: C_9  and  O_11 
REMARK    6  A    between atoms: O_11  and  C_12 
REMARK    7  A    between atoms: C_19  and  C_21 
ROOT
ATOM      1  N   UNL d   1     -50.687  25.295  33.326  0.00  0.00    -0.227 NA
ATOM      2  N   UNL d   1     -50.438  26.632  33.315  0.00  0.00    -0.287 N 
ATOM      3  C   UNL d   1     -50.084  25.875  33.322  0.00  0.00     0.148 A 
ATOM      4  C   UNL d   1     -51.268  26.516  33.315  0.00  0.00     0.083 A 
ATOM      5  C   UNL d   1     -51.416  25.703  33.322  0.00  0.00     0.099 A 
ATOM      6  C   UNL d   1     -51.903  27.048  33.309  0.00  0.00     0.019 A 
ATOM      7  C   UNL d   1     -52.190  25.420  33.323  0.00  0.00     0.021 A 
ATOM      8  C   UNL d   1     -52.678  26.765  33.310  0.00  0.00     0.002 A 
ATOM      9  C   UNL d   1     -52.822  25.951  33.317  0.00  0.00     0.002 A 
ENDROOT
BRANCH   2  10
ATOM     10  C   UNL d   1     -50.052  27.357  33.310  0.00  0.00     0.108 C 
BRANCH  10  11
ATOM     11  C   UNL d   1     -49.546  27.570  33.933  0.00  0.00     0.142 C 
BRANCH  11  12
ATOM     12  O   UNL d   1     -49.120  28.268  33.891  0.00  0.00    -0.304 OA
BRANCH  12  13
ATOM     13  C   UNL d   1     -48.678  28.520  34.537  0.00  0.00     0.100 A 
ATOM     14  C   UNL d   1     -48.948  28.371  35.297  0.00  0.00     0.025 A 
ATOM     15  C   UNL d   1     -48.506  28.622  35.948  0.00  0.00     0.002 A 
ATOM     16  C   UNL d   1     -48.777  28.474  36.713  0.00  0.00     0.000 C 
ATOM     17  C   UNL d   1     -47.790  29.024  35.833  0.00  0.00     0.000 A 
ATOM     18  C   UNL d   1     -47.522  29.171  35.061  0.00  0.00     0.002 A 
ATOM     19  C   UNL d   1     -47.964  28.920  34.414  0.00  0.00     0.025 A 
ENDBRANCH  12  13
ENDBRANCH  11  12
ENDBRANCH  10  11
ENDBRANCH   2  10
BRANCH   3  20
ATOM     20  C   UNL d   1     -49.453  25.344  33.328  0.00  0.00     0.041 C 
BRANCH  20  21
ATOM     21  C   UNL d   1     -49.598  24.534  33.361  0.00  0.00     0.049 C 
BRANCH  21  22
ATOM     22  C   UNL d   1     -49.143  24.055  33.856  0.00  0.00     0.234 C 
ATOM     23  O   UNL d   1     -48.879  23.322  33.592  0.00  0.00    -0.283 OA
ENDBRANCH  21  22
ENDBRANCH  20  21
ENDBRANCH   3  20
TORSDOF 7
ENDMDL
