MODEL 1
REMARK VINA RESULT:      -0.4      0.000      0.000
REMARK  4 active torsions:
REMARK  status: ('A' for Active; 'I' for Inactive)
REMARK    1  A    between atoms: S_2  and  N_1 
REMARK    2  A    between atoms: N_6  and  S_2 
REMARK    3  A    between atoms: C_10  and  C_3 
REMARK    4  A    between atoms: C_11  and  C_10 
ROOT
ATOM      1  N   UNL d   1      31.875  17.331 -23.721  0.00  0.00    -0.201 N 
ATOM      2  C   UNL d   1      31.126  17.024 -23.938  0.00  0.00     0.158 A 
ATOM      3  N   UNL d   1      31.058  16.269 -23.603  0.00  0.00    -0.226 NA
ATOM      4  C   UNL d   1      32.252  16.763 -23.262  0.00  0.00     0.095 A 
ATOM      5  C   UNL d   1      31.752  16.110 -23.188  0.00  0.00     0.100 A 
ATOM      6  C   UNL d   1      32.993  16.764 -22.901  0.00  0.00     0.020 A 
ATOM      7  C   UNL d   1      31.999  15.456 -22.749  0.00  0.00     0.021 A 
ATOM      8  C   UNL d   1      33.240  16.112 -22.463  0.00  0.00     0.002 A 
ATOM      9  C   UNL d   1      32.742  15.453 -22.386  0.00  0.00     0.002 A 
ENDROOT
BRANCH   1  10
ATOM     10  S   UNL d   1      32.174  18.061 -23.931  0.00  0.00     0.338 S 
ATOM     11  O   UNL d   1      32.344  17.784 -24.687  0.00  0.00    -0.181 OA
ATOM     12  O   UNL d   1      32.004  18.342 -23.175  0.00  0.00    -0.181 OA
BRANCH  10  13
ATOM     13  N   UNL d   1      32.472  18.802 -24.130  0.00  0.00    -0.216 N 
ATOM     14  C   UNL d   1      32.515  19.396 -23.559  0.00  0.00     0.093 A 
ATOM     15  C   UNL d   1      32.812  20.133 -23.757  0.00  0.00     0.020 A 
ATOM     16  C   UNL d   1      33.066  20.289 -24.518  0.00  0.00     0.003 A 
ATOM     17  C   UNL d   1      33.026  19.701 -25.096  0.00  0.00     0.020 A 
ATOM     18  C   UNL d   1      32.726  18.951 -24.898  0.00  0.00     0.093 A 
ENDBRANCH  10  13
ENDBRANCH   1  10
BRANCH   2  19
ATOM     19  C   UNL d   1      30.560  17.410 -24.401  0.00  0.00     0.038 C 
BRANCH  19  20
ATOM     20  C   UNL d   1      29.767  17.203 -24.328  0.00  0.00     0.003 A 
ATOM     21  C   UNL d   1      29.284  17.622 -23.803  0.00  0.00     0.000 A 
ATOM     22  C   UNL d   1      28.492  17.415 -23.729  0.00  0.00     0.000 A 
ATOM     23  C   UNL d   1      28.180  16.801 -24.169  0.00  0.00     0.000 A 
ATOM     24  C   UNL d   1      28.666  16.379 -24.696  0.00  0.00     0.000 A 
ATOM     25  C   UNL d   1      29.461  16.586 -24.771  0.00  0.00     0.000 A 
ENDBRANCH  19  20
ENDBRANCH   2  19
TORSDOF 4
ENDMDL
