MODEL 1
REMARK VINA RESULT:      -3.9      0.000      0.000
REMARK  4 active torsions:
REMARK  status: ('A' for Active; 'I' for Inactive)
REMARK    1  A    between atoms: C_2  and  C_1 
REMARK    2  A    between atoms: C_3  and  C_1 
REMARK       I    between atoms: N_7  and  C_2 
REMARK    3  A    between atoms: C_4  and  C_3 
REMARK    4  A    between atoms: C_13  and  N_7 
ROOT
ATOM      1  C   UNL d   1      58.358  -0.132  29.944  0.00  0.00     0.128 C 
ATOM      2  C   UNL d   1      58.967   0.256  30.326  0.00  0.00     0.106 C 
ATOM      3  N   UNL d   1      59.590   0.655  30.713  0.00  0.00    -0.191 NA
ENDROOT
BRANCH   1   4
ATOM      4  C   UNL d   1      58.173   0.040  29.149  0.00  0.00     0.289 C 
ATOM      5  N   UNL d   1      58.481  -0.431  28.549  0.00  0.00    -0.207 NA
ATOM      6  O   UNL d   1      57.683   0.681  28.978  0.00  0.00    -0.264 OA
BRANCH   5   7
ATOM      7  C   UNL d   1      58.971  -1.073  28.721  0.00  0.00     0.085 A 
ATOM      8  C   UNL d   1      58.646  -1.825  28.816  0.00  0.00     0.019 A 
ATOM      9  C   UNL d   1      59.136  -2.466  28.987  0.00  0.00     0.002 A 
ATOM     10  C   UNL d   1      59.950  -2.356  29.063  0.00  0.00     0.000 A 
ATOM     11  C   UNL d   1      60.274  -1.604  28.967  0.00  0.00     0.002 A 
ATOM     12  C   UNL d   1      60.436  -3.006  29.235  0.00  0.00     0.000 C 
ATOM     13  C   UNL d   1      59.785  -0.963  28.796  0.00  0.00     0.019 A 
ENDBRANCH   5   7
ENDBRANCH   1   4
BRANCH   1  14
ATOM     14  C   UNL d   1      57.919  -0.703  30.346  0.00  0.00     0.040 C 
BRANCH  14  15
ATOM     15  C   UNL d   1      57.425  -0.488  30.977  0.00  0.00     0.101 A 
ATOM     16  O   UNL d   1      57.139   0.236  31.237  0.00  0.00    -0.307 OA
ATOM     17  C   UNL d   1      56.668   0.092  31.900  0.00  0.00     0.100 A 
ATOM     18  C   UNL d   1      56.261   0.671  32.348  0.00  0.00     0.027 C 
ATOM     19  C   UNL d   1      56.661  -0.709  32.049  0.00  0.00     0.027 A 
ATOM     20  C   UNL d   1      57.133  -1.074  31.474  0.00  0.00     0.027 A 
ENDBRANCH  14  15
ENDBRANCH   1  14
TORSDOF 4
ENDMDL
MODEL 2
REMARK VINA RESULT:      -2.2      1.200      3.591
REMARK  4 active torsions:
REMARK  status: ('A' for Active; 'I' for Inactive)
REMARK    1  A    between atoms: C_2  and  C_1 
REMARK    2  A    between atoms: C_3  and  C_1 
REMARK       I    between atoms: N_7  and  C_2 
REMARK    3  A    between atoms: C_4  and  C_3 
REMARK    4  A    between atoms: C_13  and  N_7 
ROOT
ATOM      1  C   UNL d   1      58.815  -0.560  29.682  0.00  0.00     0.128 C 
ATOM      2  C   UNL d   1      59.545  -0.283  29.921  0.00  0.00     0.106 C 
ATOM      3  N   UNL d   1      60.290   0.005  30.164  0.00  0.00    -0.191 NA
ENDROOT
BRANCH   1   4
ATOM      4  C   UNL d   1      58.281  -0.065  29.275  0.00  0.00     0.289 C 
ATOM      5  N   UNL d   1      57.687   0.320  29.692  0.00  0.00    -0.207 NA
ATOM      6  O   UNL d   1      58.359   0.029  28.459  0.00  0.00    -0.264 OA
BRANCH   5   7
ATOM      7  C   UNL d   1      57.609   0.226  30.508  0.00  0.00     0.085 A 
ATOM      8  C   UNL d   1      58.067   0.682  31.021  0.00  0.00     0.019 A 
ATOM      9  C   UNL d   1      57.990   0.588  31.837  0.00  0.00     0.002 A 
ATOM     10  C   UNL d   1      57.455   0.038  32.140  0.00  0.00     0.000 A 
ATOM     11  C   UNL d   1      56.997  -0.418  31.627  0.00  0.00     0.002 A 
ATOM     12  C   UNL d   1      57.382  -0.051  32.962  0.00  0.00     0.000 C 
ATOM     13  C   UNL d   1      57.074  -0.324  30.812  0.00  0.00     0.019 A 
ENDBRANCH   5   7
ENDBRANCH   1   4
BRANCH   1  14
ATOM     14  C   UNL d   1      58.600  -1.341  29.843  0.00  0.00     0.040 C 
BRANCH  14  15
ATOM     15  C   UNL d   1      58.972  -1.970  29.451  0.00  0.00     0.101 A 
ATOM     16  O   UNL d   1      59.751  -2.107  29.233  0.00  0.00    -0.307 OA
ATOM     17  C   UNL d   1      59.777  -2.841  28.854  0.00  0.00     0.100 A 
ATOM     18  C   UNL d   1      60.462  -3.206  28.538  0.00  0.00     0.027 C 
ATOM     19  C   UNL d   1      59.026  -3.155  28.838  0.00  0.00     0.027 A 
ATOM     20  C   UNL d   1      58.520  -2.614  29.210  0.00  0.00     0.027 A 
ENDBRANCH  14  15
ENDBRANCH   1  14
TORSDOF 4
ENDMDL
MODEL 3
REMARK VINA RESULT:      -1.8      1.569      3.390
REMARK  4 active torsions:
REMARK  status: ('A' for Active; 'I' for Inactive)
REMARK    1  A    between atoms: C_2  and  C_1 
REMARK    2  A    between atoms: C_3  and  C_1 
REMARK       I    between atoms: N_7  and  C_2 
REMARK    3  A    between atoms: C_4  and  C_3 
REMARK    4  A    between atoms: C_13  and  N_7 
ROOT
ATOM      1  C   UNL d   1      58.671  -0.944  29.482  0.00  0.00     0.128 C 
ATOM      2  C   UNL d   1      58.204  -1.184  30.109  0.00  0.00     0.106 C 
ATOM      3  N   UNL d   1      57.726  -1.426  30.748  0.00  0.00    -0.191 NA
ENDROOT
BRANCH   1   4
ATOM      4  C   UNL d   1      58.495  -0.246  29.060  0.00  0.00     0.289 C 
ATOM      5  N   UNL d   1      58.881   0.453  29.253  0.00  0.00    -0.207 NA
ATOM      6  O   UNL d   1      57.935  -0.271  28.455  0.00  0.00    -0.264 OA
BRANCH   5   7
ATOM      7  C   UNL d   1      59.441   0.477  29.859  0.00  0.00     0.085 A 
ATOM      8  C   UNL d   1      60.234   0.320  29.693  0.00  0.00     0.019 A 
ATOM      9  C   UNL d   1      60.794   0.345  30.298  0.00  0.00     0.002 A 
ATOM     10  C   UNL d   1      60.562   0.525  31.069  0.00  0.00     0.000 A 
ATOM     11  C   UNL d   1      59.770   0.682  31.234  0.00  0.00     0.002 A 
ATOM     12  C   UNL d   1      61.131   0.548  31.672  0.00  0.00     0.000 C 
ATOM     13  C   UNL d   1      59.210   0.658  30.630  0.00  0.00     0.019 A 
ENDBRANCH   5   7
ENDBRANCH   1   4
BRANCH   1  14
ATOM     14  C   UNL d   1      59.326  -1.396  29.262  0.00  0.00     0.040 C 
BRANCH  14  15
ATOM     15  C   UNL d   1      59.235  -2.189  29.039  0.00  0.00     0.101 A 
ATOM     16  O   UNL d   1      58.575  -2.666  28.937  0.00  0.00    -0.307 OA
ATOM     17  C   UNL d   1      58.843  -3.413  28.707  0.00  0.00     0.100 A 
ATOM     18  C   UNL d   1      58.361  -4.078  28.542  0.00  0.00     0.027 C 
ATOM     19  C   UNL d   1      59.656  -3.400  28.667  0.00  0.00     0.027 A 
ATOM     20  C   UNL d   1      59.905  -2.637  28.873  0.00  0.00     0.027 A 
ENDBRANCH  14  15
ENDBRANCH   1  14
TORSDOF 4
ENDMDL
MODEL 4
REMARK VINA RESULT:      -1.5      8.923      9.635
REMARK  4 active torsions:
REMARK  status: ('A' for Active; 'I' for Inactive)
REMARK    1  A    between atoms: C_2  and  C_1 
REMARK    2  A    between atoms: C_3  and  C_1 
REMARK       I    between atoms: N_7  and  C_2 
REMARK    3  A    between atoms: C_4  and  C_3 
REMARK    4  A    between atoms: C_13  and  N_7 
ROOT
ATOM      1  C   UNL d   1      59.882  -8.866  35.334  0.00  0.00     0.128 C 
ATOM      2  C   UNL d   1      59.256  -9.088  35.810  0.00  0.00     0.106 C 
ATOM      3  N   UNL d   1      58.618  -9.318  36.297  0.00  0.00    -0.191 NA
ENDROOT
BRANCH   1   4
ATOM      4  C   UNL d   1      60.516  -9.388  35.189  0.00  0.00     0.289 C 
ATOM      5  N   UNL d   1      60.545  -9.806  34.482  0.00  0.00    -0.207 NA
ATOM      6  O   UNL d   1      61.106  -9.476  35.760  0.00  0.00    -0.264 OA
BRANCH   5   7
ATOM      7  C   UNL d   1      59.956  -9.718  33.911  0.00  0.00     0.085 A 
ATOM      8  C   UNL d   1      60.160  -9.529  33.134  0.00  0.00     0.019 A 
ATOM      9  C   UNL d   1      59.571  -9.441  32.563  0.00  0.00     0.002 A 
ATOM     10  C   UNL d   1      58.779  -9.541  32.768  0.00  0.00     0.000 A 
ATOM     11  C   UNL d   1      58.575  -9.730  33.545  0.00  0.00     0.002 A 
ATOM     12  C   UNL d   1      58.192  -9.451  32.189  0.00  0.00     0.000 C 
ATOM     13  C   UNL d   1      59.163  -9.818  34.116  0.00  0.00     0.019 A 
ENDBRANCH   5   7
ENDBRANCH   1   4
BRANCH   1  14
ATOM     14  C   UNL d   1      59.890  -8.116  34.990  0.00  0.00     0.040 C 
BRANCH  14  15
ATOM     15  C   UNL d   1      60.056  -7.444  35.446  0.00  0.00     0.101 A 
ATOM     16  O   UNL d   1      60.727  -6.978  35.526  0.00  0.00    -0.307 OA
ATOM     17  C   UNL d   1      60.551  -6.381  36.070  0.00  0.00     0.100 A 
ATOM     18  C   UNL d   1      61.073  -5.777  36.322  0.00  0.00     0.027 C 
ATOM     19  C   UNL d   1      59.783  -6.476  36.324  0.00  0.00     0.027 A 
ATOM     20  C   UNL d   1      59.470  -7.138  35.937  0.00  0.00     0.027 A 
ENDBRANCH  14  15
ENDBRANCH   1  14
TORSDOF 4
ENDMDL
