MODEL 1
REMARK VINA RESULT:      -3.5      0.000      0.000
REMARK  2 active torsions:
REMARK  status: ('A' for Active; 'I' for Inactive)
REMARK    1  A    between atoms: C_2  and  C_1 
REMARK       I    between atoms: N_3  and  C_1 
REMARK    2  A    between atoms: C_5  and  N_4 
ROOT
ATOM      1  C   UNL d   1      32.986  21.325 -20.844  0.00  0.00     0.267 C 
ATOM      2  N   UNL d   1      32.997  20.729 -21.414  0.00  0.00    -0.269 N 
ATOM      3  N   UNL d   1      33.019  19.534 -22.555  0.00  0.00    -0.301 N 
ATOM      4  O   UNL d   1      33.208  21.160 -20.070  0.00  0.00    -0.267 OA
ATOM      5  C   UNL d   1      33.230  19.965 -21.211  0.00  0.00     0.102 A 
ATOM      6  C   UNL d   1      32.775  20.893 -22.191  0.00  0.00     0.102 A 
ATOM      7  C   UNL d   1      32.786  20.297 -22.761  0.00  0.00     0.100 A 
ATOM      8  C   UNL d   1      33.241  19.369 -21.781  0.00  0.00     0.100 A 
ENDROOT
BRANCH   1   9
ATOM      9  C   UNL d   1      32.752  22.088 -21.049  0.00  0.00     0.084 A 
ATOM     10  C   UNL d   1      32.039  22.394 -20.765  0.00  0.00     0.145 A 
ATOM     11  F   UNL d   1      31.559  21.936 -20.275  0.00  0.00    -0.204 F 
ATOM     12  C   UNL d   1      31.806  23.163 -20.974  0.00  0.00     0.030 A 
ATOM     13  C   UNL d   1      32.285  23.617 -21.461  0.00  0.00     0.002 A 
ATOM     14  C   UNL d   1      32.999  23.311 -21.746  0.00  0.00     0.000 A 
ATOM     15  C   UNL d   1      33.233  22.552 -21.542  0.00  0.00     0.007 A 
ENDBRANCH   1   9
BRANCH   3  16
ATOM     16  C   UNL d   1      33.030  18.936 -23.127  0.00  0.00     0.064 A 
ATOM     17  C   UNL d   1      33.133  19.127 -23.919  0.00  0.00     0.016 A 
ATOM     18  C   UNL d   1      33.144  18.529 -24.490  0.00  0.00     0.001 A 
ATOM     19  C   UNL d   1      33.224  19.913 -24.147  0.00  0.00     0.002 C 
ATOM     20  C   UNL d   1      33.053  17.743 -24.267  0.00  0.00     0.000 A 
ATOM     21  C   UNL d   1      32.950  17.552 -23.472  0.00  0.00     0.002 A 
ATOM     22  C   UNL d   1      33.064  17.146 -24.837  0.00  0.00     0.000 C 
ATOM     23  C   UNL d   1      32.939  18.150 -22.900  0.00  0.00     0.018 A 
ENDBRANCH   3  16
TORSDOF 2
ENDMDL
MODEL 2
REMARK VINA RESULT:      -3.4      2.607      5.147
REMARK  2 active torsions:
REMARK  status: ('A' for Active; 'I' for Inactive)
REMARK    1  A    between atoms: C_2  and  C_1 
REMARK       I    between atoms: N_3  and  C_1 
REMARK    2  A    between atoms: C_5  and  N_4 
ROOT
ATOM      1  C   UNL d   1      32.090  16.291 -23.570  0.00  0.00     0.267 C 
ATOM      2  N   UNL d   1      32.255  17.075 -23.371  0.00  0.00    -0.269 N 
ATOM      3  N   UNL d   1      32.583  18.643 -22.971  0.00  0.00    -0.301 N 
ATOM      4  O   UNL d   1      32.641  15.701 -23.414  0.00  0.00    -0.267 OA
ATOM      5  C   UNL d   1      32.970  17.271 -23.014  0.00  0.00     0.102 A 
ATOM      6  C   UNL d   1      31.702  17.667 -23.527  0.00  0.00     0.102 A 
ATOM      7  C   UNL d   1      31.866  18.451 -23.327  0.00  0.00     0.100 A 
ATOM      8  C   UNL d   1      33.135  18.054 -22.815  0.00  0.00     0.100 A 
ENDROOT
BRANCH   1   9
ATOM      9  C   UNL d   1      31.373  16.097 -23.927  0.00  0.00     0.084 A 
ATOM     10  C   UNL d   1      30.796  15.687 -23.500  0.00  0.00     0.145 A 
ATOM     11  F   UNL d   1      30.936  15.470 -22.718  0.00  0.00    -0.204 F 
ATOM     12  C   UNL d   1      30.074  15.493 -23.862  0.00  0.00     0.030 A 
ATOM     13  C   UNL d   1      29.936  15.709 -24.641  0.00  0.00     0.002 A 
ATOM     14  C   UNL d   1      30.514  16.120 -25.068  0.00  0.00     0.000 A 
ATOM     15  C   UNL d   1      31.228  16.314 -24.715  0.00  0.00     0.007 A 
ENDBRANCH   1   9
BRANCH   3  16
ATOM     16  C   UNL d   1      32.748  19.430 -22.771  0.00  0.00     0.064 A 
ATOM     17  C   UNL d   1      33.064  19.938 -23.332  0.00  0.00     0.016 A 
ATOM     18  C   UNL d   1      33.229  20.724 -23.132  0.00  0.00     0.001 A 
ATOM     19  C   UNL d   1      33.219  19.669 -24.095  0.00  0.00     0.002 C 
ATOM     20  C   UNL d   1      33.077  20.997 -22.372  0.00  0.00     0.000 A 
ATOM     21  C   UNL d   1      32.759  20.485 -21.809  0.00  0.00     0.002 A 
ATOM     22  C   UNL d   1      33.241  21.780 -22.172  0.00  0.00     0.000 C 
ATOM     23  C   UNL d   1      32.595  19.700 -22.009  0.00  0.00     0.018 A 
ENDBRANCH   3  16
TORSDOF 2
ENDMDL
MODEL 3
REMARK VINA RESULT:      -3.1      1.831      4.731
REMARK  2 active torsions:
REMARK  status: ('A' for Active; 'I' for Inactive)
REMARK    1  A    between atoms: C_2  and  C_1 
REMARK       I    between atoms: N_3  and  C_1 
REMARK    2  A    between atoms: C_5  and  N_4 
ROOT
ATOM      1  C   UNL d   1      32.958  18.702 -24.087  0.00  0.00     0.267 C 
ATOM      2  N   UNL d   1      32.986  19.245 -23.466  0.00  0.00    -0.269 N 
ATOM      3  N   UNL d   1      33.043  20.331 -22.223  0.00  0.00    -0.301 N 
ATOM      4  O   UNL d   1      33.156  18.937 -24.850  0.00  0.00    -0.267 OA
ATOM      5  C   UNL d   1      33.213  20.024 -23.606  0.00  0.00     0.102 A 
ATOM      6  C   UNL d   1      32.788  19.010 -22.701  0.00  0.00     0.102 A 
ATOM      7  C   UNL d   1      32.816  19.553 -22.080  0.00  0.00     0.100 A 
ATOM      8  C   UNL d   1      33.241  20.567 -22.985  0.00  0.00     0.100 A 
ENDROOT
BRANCH   1   9
ATOM      9  C   UNL d   1      32.731  17.923 -23.945  0.00  0.00     0.084 A 
ATOM     10  C   UNL d   1      32.006  17.644 -24.227  0.00  0.00     0.145 A 
ATOM     11  F   UNL d   1      31.508  18.145 -24.652  0.00  0.00    -0.204 F 
ATOM     12  C   UNL d   1      31.780  16.859 -24.082  0.00  0.00     0.030 A 
ATOM     13  C   UNL d   1      32.278  16.362 -23.659  0.00  0.00     0.002 A 
ATOM     14  C   UNL d   1      33.003  16.640 -23.376  0.00  0.00     0.000 A 
ATOM     15  C   UNL d   1      33.231  17.416 -23.517  0.00  0.00     0.007 A 
ENDBRANCH   1   9
BRANCH   3  16
ATOM     16  C   UNL d   1      33.071  20.876 -21.600  0.00  0.00     0.064 A 
ATOM     17  C   UNL d   1      33.045  21.681 -21.757  0.00  0.00     0.016 A 
ATOM     18  C   UNL d   1      33.073  22.225 -21.135  0.00  0.00     0.001 A 
ATOM     19  C   UNL d   1      32.989  21.950 -22.535  0.00  0.00     0.002 C 
ATOM     20  C   UNL d   1      33.128  21.961 -20.358  0.00  0.00     0.000 A 
ATOM     21  C   UNL d   1      33.155  21.153 -20.202  0.00  0.00     0.002 A 
ATOM     22  C   UNL d   1      33.156  22.504 -19.737  0.00  0.00     0.000 C 
ATOM     23  C   UNL d   1      33.127  20.609 -20.824  0.00  0.00     0.018 A 
ENDBRANCH   3  16
TORSDOF 2
ENDMDL
MODEL 4
REMARK VINA RESULT:      -3.0      1.991      4.928
REMARK  2 active torsions:
REMARK  status: ('A' for Active; 'I' for Inactive)
REMARK    1  A    between atoms: C_2  and  C_1 
REMARK       I    between atoms: N_3  and  C_1 
REMARK    2  A    between atoms: C_5  and  N_4 
ROOT
ATOM      1  C   UNL d   1      32.918  18.082 -24.297  0.00  0.00     0.267 C 
ATOM      2  N   UNL d   1      32.964  18.696 -23.748  0.00  0.00    -0.269 N 
ATOM      3  N   UNL d   1      33.055  19.925 -22.648  0.00  0.00    -0.301 N 
ATOM      4  O   UNL d   1      33.086  18.224 -25.090  0.00  0.00    -0.267 OA
ATOM      5  C   UNL d   1      33.177  19.454 -23.989  0.00  0.00     0.102 A 
ATOM      6  C   UNL d   1      32.796  18.555 -22.953  0.00  0.00     0.102 A 
ATOM      7  C   UNL d   1      32.842  19.168 -22.403  0.00  0.00     0.100 A 
ATOM      8  C   UNL d   1      33.223  20.068 -23.440  0.00  0.00     0.100 A 
ENDROOT
BRANCH   1   9
ATOM      9  C   UNL d   1      32.705  17.325 -24.053  0.00  0.00     0.084 A 
ATOM     10  C   UNL d   1      31.969  17.013 -24.265  0.00  0.00     0.145 A 
ATOM     11  F   UNL d   1      31.447  17.460 -24.720  0.00  0.00    -0.204 F 
ATOM     12  C   UNL d   1      31.757  16.250 -24.017  0.00  0.00     0.030 A 
ATOM     13  C   UNL d   1      32.278  15.807 -23.564  0.00  0.00     0.002 A 
ATOM     14  C   UNL d   1      33.014  16.118 -23.353  0.00  0.00     0.000 A 
ATOM     15  C   UNL d   1      33.228  16.872 -23.595  0.00  0.00     0.007 A 
ENDBRANCH   1   9
BRANCH   3  16
ATOM     16  C   UNL d   1      33.101  20.541 -22.097  0.00  0.00     0.064 A 
ATOM     17  C   UNL d   1      33.194  20.372 -21.299  0.00  0.00     0.016 A 
ATOM     18  C   UNL d   1      33.239  20.987 -20.748  0.00  0.00     0.001 A 
ATOM     19  C   UNL d   1      33.241  19.589 -21.044  0.00  0.00     0.002 C 
ATOM     20  C   UNL d   1      33.193  21.769 -20.998  0.00  0.00     0.000 A 
ATOM     21  C   UNL d   1      33.100  21.938 -21.799  0.00  0.00     0.002 A 
ATOM     22  C   UNL d   1      33.238  22.383 -20.449  0.00  0.00     0.000 C 
ATOM     23  C   UNL d   1      33.054  21.322 -22.350  0.00  0.00     0.018 A 
ENDBRANCH   3  16
TORSDOF 2
ENDMDL
MODEL 5
REMARK VINA RESULT:      -1.7      3.171      5.382
REMARK  2 active torsions:
REMARK  status: ('A' for Active; 'I' for Inactive)
REMARK    1  A    between atoms: C_2  and  C_1 
REMARK       I    between atoms: N_3  and  C_1 
REMARK    2  A    between atoms: C_5  and  N_4 
ROOT
ATOM      1  C   UNL d   1      30.924  16.068 -23.572  0.00  0.00     0.267 C 
ATOM      2  N   UNL d   1      31.255  16.808 -23.723  0.00  0.00    -0.269 N 
ATOM      3  N   UNL d   1      31.917  18.291 -24.025  0.00  0.00    -0.301 N 
ATOM      4  O   UNL d   1      31.388  15.464 -23.259  0.00  0.00    -0.267 OA
ATOM      5  C   UNL d   1      32.050  16.948 -23.562  0.00  0.00     0.102 A 
ATOM      6  C   UNL d   1      30.791  17.414 -24.037  0.00  0.00     0.102 A 
ATOM      7  C   UNL d   1      31.121  18.154 -24.188  0.00  0.00     0.100 A 
ATOM      8  C   UNL d   1      32.381  17.689 -23.713  0.00  0.00     0.100 A 
ENDROOT
BRANCH   1   9
ATOM      9  C   UNL d   1      30.128  15.930 -23.734  0.00  0.00     0.084 A 
ATOM     10  C   UNL d   1      29.597  15.793 -23.115  0.00  0.00     0.145 A 
ATOM     11  F   UNL d   1      29.863  15.793 -22.335  0.00  0.00    -0.204 F 
ATOM     12  C   UNL d   1      28.796  15.654 -23.282  0.00  0.00     0.030 A 
ATOM     13  C   UNL d   1      28.533  15.654 -24.059  0.00  0.00     0.002 A 
ATOM     14  C   UNL d   1      29.065  15.791 -24.678  0.00  0.00     0.000 A 
ATOM     15  C   UNL d   1      29.858  15.928 -24.518  0.00  0.00     0.007 A 
ENDBRANCH   1   9
BRANCH   3  16
ATOM     16  C   UNL d   1      32.249  19.034 -24.177  0.00  0.00     0.064 A 
ATOM     17  C   UNL d   1      32.565  19.476 -23.561  0.00  0.00     0.016 A 
ATOM     18  C   UNL d   1      32.896  20.218 -23.713  0.00  0.00     0.001 A 
ATOM     19  C   UNL d   1      32.553  19.181 -22.792  0.00  0.00     0.002 C 
ATOM     20  C   UNL d   1      32.910  20.516 -24.479  0.00  0.00     0.000 A 
ATOM     21  C   UNL d   1      32.592  20.071 -25.096  0.00  0.00     0.002 A 
ATOM     22  C   UNL d   1      33.241  21.256 -24.630  0.00  0.00     0.000 C 
ATOM     23  C   UNL d   1      32.261  19.329 -24.945  0.00  0.00     0.018 A 
ENDBRANCH   3  16
TORSDOF 2
ENDMDL
