MODEL 1
REMARK VINA RESULT:      -2.2      0.000      0.000
REMARK  3 active torsions:
REMARK  status: ('A' for Active; 'I' for Inactive)
REMARK    1  A    between atoms: S_6  and  C_2 
REMARK    2  A    between atoms: C_9  and  S_6 
REMARK    3  A    between atoms: C_7  and  C_9 
ROOT
ATOM      1  N   UNL d   1      33.132  20.099 -22.840  0.00  0.00    -0.196 NA
ATOM      2  C   UNL d   1      33.146  20.135 -22.007  0.00  0.00     0.213 A 
ATOM      3  N   UNL d   1      33.241  18.846 -22.372  0.00  0.00    -0.123 NA
ATOM      4  N   UNL d   1      33.214  19.362 -21.722  0.00  0.00    -0.120 NA
ATOM      5  C   UNL d   1      33.191  19.297 -23.059  0.00  0.00     0.224 A 
ENDROOT
BRANCH   2   6
ATOM      6  S   UNL d   1      33.102  20.821 -21.554  0.00  0.00    -0.062 SA
BRANCH   6   7
ATOM      7  C   UNL d   1      32.410  20.999 -21.132  0.00  0.00     0.162 C 
BRANCH   7   8
ATOM      8  C   UNL d   1      32.323  21.729 -20.757  0.00  0.00     0.197 C 
ATOM      9  O   UNL d   1      32.870  21.959 -20.173  0.00  0.00    -0.647 OA
ATOM     10  O   UNL d   1      31.697  22.227 -20.958  0.00  0.00    -0.647 OA
ENDBRANCH   7   8
ENDBRANCH   6   7
ENDBRANCH   2   6
TORSDOF 3
ENDMDL
MODEL 2
REMARK VINA RESULT:      -2.1      2.540      3.273
REMARK  3 active torsions:
REMARK  status: ('A' for Active; 'I' for Inactive)
REMARK    1  A    between atoms: S_6  and  C_2 
REMARK    2  A    between atoms: C_9  and  S_6 
REMARK    3  A    between atoms: C_7  and  C_9 
ROOT
ATOM      1  N   UNL d   1      32.691  23.079 -20.391  0.00  0.00    -0.196 NA
ATOM      2  C   UNL d   1      32.456  22.573 -21.011  0.00  0.00     0.213 A 
ATOM      3  N   UNL d   1      31.574  23.583 -20.937  0.00  0.00    -0.123 NA
ATOM      4  N   UNL d   1      31.768  22.886 -21.345  0.00  0.00    -0.120 NA
ATOM      5  C   UNL d   1      32.139  23.702 -20.351  0.00  0.00     0.224 A 
ENDROOT
BRANCH   2   6
ATOM      6  S   UNL d   1      32.844  21.885 -21.245  0.00  0.00    -0.062 SA
BRANCH   6   7
ATOM      7  C   UNL d   1      32.539  21.142 -21.039  0.00  0.00     0.162 C 
BRANCH   7   8
ATOM      8  C   UNL d   1      32.935  20.451 -21.253  0.00  0.00     0.197 C 
ATOM      9  O   UNL d   1      33.239  19.951 -20.661  0.00  0.00    -0.647 OA
ATOM     10  O   UNL d   1      33.030  20.257 -22.049  0.00  0.00    -0.647 OA
ENDBRANCH   7   8
ENDBRANCH   6   7
ENDBRANCH   2   6
TORSDOF 3
ENDMDL
MODEL 3
REMARK VINA RESULT:      -2.0      1.181      1.436
REMARK  3 active torsions:
REMARK  status: ('A' for Active; 'I' for Inactive)
REMARK    1  A    between atoms: S_6  and  C_2 
REMARK    2  A    between atoms: C_9  and  S_6 
REMARK    3  A    between atoms: C_7  and  C_9 
ROOT
ATOM      1  N   UNL d   1      32.990  20.747 -22.073  0.00  0.00    -0.196 NA
ATOM      2  C   UNL d   1      32.941  21.217 -21.387  0.00  0.00     0.213 A 
ATOM      3  N   UNL d   1      33.241  19.962 -21.014  0.00  0.00    -0.123 NA
ATOM      4  N   UNL d   1      33.096  20.731 -20.736  0.00  0.00    -0.120 NA
ATOM      5  C   UNL d   1      33.176  19.970 -21.834  0.00  0.00     0.224 A 
ENDROOT
BRANCH   2   6
ATOM      6  S   UNL d   1      32.769  22.022 -21.366  0.00  0.00    -0.062 SA
BRANCH   6   7
ATOM      7  C   UNL d   1      32.214  22.317 -20.825  0.00  0.00     0.162 C 
BRANCH   7   8
ATOM      8  C   UNL d   1      32.031  23.122 -20.807  0.00  0.00     0.197 C 
ATOM      9  O   UNL d   1      32.419  23.619 -20.264  0.00  0.00    -0.647 OA
ATOM     10  O   UNL d   1      31.468  23.430 -21.324  0.00  0.00    -0.647 OA
ENDBRANCH   7   8
ENDBRANCH   6   7
ENDBRANCH   2   6
TORSDOF 3
ENDMDL
MODEL 4
REMARK VINA RESULT:      -1.8      3.780      4.573
REMARK  3 active torsions:
REMARK  status: ('A' for Active; 'I' for Inactive)
REMARK    1  A    between atoms: S_6  and  C_2 
REMARK    2  A    between atoms: C_9  and  S_6 
REMARK    3  A    between atoms: C_7  and  C_9 
ROOT
ATOM      1  N   UNL d   1      33.241  22.729 -17.830  0.00  0.00    -0.196 NA
ATOM      2  C   UNL d   1      32.846  23.155 -18.428  0.00  0.00     0.213 A 
ATOM      3  N   UNL d   1      32.426  23.617 -17.239  0.00  0.00    -0.123 NA
ATOM      4  N   UNL d   1      32.346  23.701 -18.061  0.00  0.00    -0.120 NA
ATOM      5  C   UNL d   1      32.975  23.022 -17.095  0.00  0.00     0.224 A 
ENDROOT
BRANCH   2   6
ATOM      6  S   UNL d   1      32.942  23.047 -19.239  0.00  0.00    -0.062 SA
BRANCH   6   7
ATOM      7  C   UNL d   1      32.285  23.069 -19.744  0.00  0.00     0.162 C 
BRANCH   7   8
ATOM      8  C   UNL d   1      32.372  22.931 -20.553  0.00  0.00     0.197 C 
ATOM      9  O   UNL d   1      31.807  22.469 -20.955  0.00  0.00    -0.647 OA
ATOM     10  O   UNL d   1      33.014  23.250 -20.961  0.00  0.00    -0.647 OA
ENDBRANCH   7   8
ENDBRANCH   6   7
ENDBRANCH   2   6
TORSDOF 3
ENDMDL
MODEL 5
REMARK VINA RESULT:      -1.7      2.531      2.931
REMARK  3 active torsions:
REMARK  status: ('A' for Active; 'I' for Inactive)
REMARK    1  A    between atoms: S_6  and  C_2 
REMARK    2  A    between atoms: C_9  and  S_6 
REMARK    3  A    between atoms: C_7  and  C_9 
ROOT
ATOM      1  N   UNL d   1      33.232  22.641 -23.287  0.00  0.00    -0.196 NA
ATOM      2  C   UNL d   1      32.843  23.030 -22.660  0.00  0.00     0.213 A 
ATOM      3  N   UNL d   1      32.585  23.702 -23.794  0.00  0.00    -0.123 NA
ATOM      4  N   UNL d   1      32.446  23.682 -22.975  0.00  0.00    -0.120 NA
ATOM      5  C   UNL d   1      33.067  23.064 -23.987  0.00  0.00     0.224 A 
ENDROOT
BRANCH   2   6
ATOM      6  S   UNL d   1      32.856  22.800 -21.869  0.00  0.00    -0.062 SA
BRANCH   6   7
ATOM      7  C   UNL d   1      32.146  22.668 -21.461  0.00  0.00     0.162 C 
BRANCH   7   8
ATOM      8  C   UNL d   1      32.149  22.306 -20.720  0.00  0.00     0.197 C 
ATOM      9  O   UNL d   1      32.621  22.620 -20.110  0.00  0.00    -0.647 OA
ATOM     10  O   UNL d   1      31.687  21.636 -20.584  0.00  0.00    -0.647 OA
ENDBRANCH   7   8
ENDBRANCH   6   7
ENDBRANCH   2   6
TORSDOF 3
ENDMDL
MODEL 6
REMARK VINA RESULT:      -1.7      5.027      5.645
REMARK  3 active torsions:
REMARK  status: ('A' for Active; 'I' for Inactive)
REMARK    1  A    between atoms: S_6  and  C_2 
REMARK    2  A    between atoms: C_9  and  S_6 
REMARK    3  A    between atoms: C_7  and  C_9 
ROOT
ATOM      1  N   UNL d   1      29.919  15.465 -22.773  0.00  0.00    -0.196 NA
ATOM      2  C   UNL d   1      30.255  15.825 -23.445  0.00  0.00     0.213 A 
ATOM      3  N   UNL d   1      28.921  15.814 -23.600  0.00  0.00    -0.123 NA
ATOM      4  N   UNL d   1      29.639  16.039 -23.952  0.00  0.00    -0.120 NA
ATOM      5  C   UNL d   1      29.091  15.462 -22.876  0.00  0.00     0.224 A 
ENDROOT
BRANCH   2   6
ATOM      6  S   UNL d   1      31.060  15.945 -23.576  0.00  0.00    -0.062 SA
BRANCH   6   7
ATOM      7  C   UNL d   1      31.353  16.709 -23.708  0.00  0.00     0.162 C 
BRANCH   7   8
ATOM      8  C   UNL d   1      32.166  16.846 -23.750  0.00  0.00     0.197 C 
ATOM      9  O   UNL d   1      32.606  16.517 -24.375  0.00  0.00    -0.647 OA
ATOM     10  O   UNL d   1      32.538  17.305 -23.175  0.00  0.00    -0.647 OA
ENDBRANCH   7   8
ENDBRANCH   6   7
ENDBRANCH   2   6
TORSDOF 3
ENDMDL
MODEL 7
REMARK VINA RESULT:      -1.6      3.983      4.671
REMARK  3 active torsions:
REMARK  status: ('A' for Active; 'I' for Inactive)
REMARK    1  A    between atoms: S_6  and  C_2 
REMARK    2  A    between atoms: C_9  and  S_6 
REMARK    3  A    between atoms: C_7  and  C_9 
ROOT
ATOM      1  N   UNL d   1      32.866  18.041 -22.833  0.00  0.00    -0.196 NA
ATOM      2  C   UNL d   1      32.504  17.723 -23.513  0.00  0.00     0.213 A 
ATOM      3  N   UNL d   1      32.835  18.999 -23.773  0.00  0.00    -0.123 NA
ATOM      4  N   UNL d   1      32.486  18.314 -24.090  0.00  0.00    -0.120 NA
ATOM      5  C   UNL d   1      33.069  18.832 -23.002  0.00  0.00     0.224 A 
ENDROOT
BRANCH   2   6
ATOM      6  S   UNL d   1      32.216  16.955 -23.592  0.00  0.00    -0.062 SA
BRANCH   6   7
ATOM      7  C   UNL d   1      31.412  16.823 -23.744  0.00  0.00     0.162 C 
BRANCH   7   8
ATOM      8  C   UNL d   1      31.103  16.058 -23.739  0.00  0.00     0.197 C 
ATOM      9  O   UNL d   1      30.580  15.830 -23.133  0.00  0.00    -0.647 OA
ATOM     10  O   UNL d   1      31.312  15.523 -24.331  0.00  0.00    -0.647 OA
ENDBRANCH   7   8
ENDBRANCH   6   7
ENDBRANCH   2   6
TORSDOF 3
ENDMDL
MODEL 8
REMARK VINA RESULT:      -1.4      2.542      3.159
REMARK  3 active torsions:
REMARK  status: ('A' for Active; 'I' for Inactive)
REMARK    1  A    between atoms: S_6  and  C_2 
REMARK    2  A    between atoms: C_9  and  S_6 
REMARK    3  A    between atoms: C_7  and  C_9 
ROOT
ATOM      1  N   UNL d   1      32.899  20.735 -22.113  0.00  0.00    -0.196 NA
ATOM      2  C   UNL d   1      33.128  19.934 -22.097  0.00  0.00     0.213 A 
ATOM      3  N   UNL d   1      33.084  20.381 -20.831  0.00  0.00    -0.123 NA
ATOM      4  N   UNL d   1      33.241  19.719 -21.307  0.00  0.00    -0.120 NA
ATOM      5  C   UNL d   1      32.874  21.006 -21.325  0.00  0.00     0.224 A 
ENDROOT
BRANCH   2   6
ATOM      6  S   UNL d   1      33.223  19.447 -22.755  0.00  0.00    -0.062 SA
BRANCH   6   7
ATOM      7  C   UNL d   1      32.838  18.713 -22.791  0.00  0.00     0.162 C 
BRANCH   7   8
ATOM      8  C   UNL d   1      32.897  18.241 -23.465  0.00  0.00     0.197 C 
ATOM      9  O   UNL d   1      32.936  17.413 -23.385  0.00  0.00    -0.647 OA
ATOM     10  O   UNL d   1      32.918  18.587 -24.213  0.00  0.00    -0.647 OA
ENDBRANCH   7   8
ENDBRANCH   6   7
ENDBRANCH   2   6
TORSDOF 3
ENDMDL
MODEL 9
REMARK VINA RESULT:      -1.1      5.207      5.785
REMARK  3 active torsions:
REMARK  status: ('A' for Active; 'I' for Inactive)
REMARK    1  A    between atoms: S_6  and  C_2 
REMARK    2  A    between atoms: C_9  and  S_6 
REMARK    3  A    between atoms: C_7  and  C_9 
ROOT
ATOM      1  N   UNL d   1      30.968  17.193 -24.258  0.00  0.00    -0.196 NA
ATOM      2  C   UNL d   1      30.574  16.527 -23.950  0.00  0.00     0.213 A 
ATOM      3  N   UNL d   1      31.824  16.539 -23.456  0.00  0.00    -0.123 NA
ATOM      4  N   UNL d   1      31.103  16.126 -23.457  0.00  0.00    -0.120 NA
ATOM      5  C   UNL d   1      31.743  17.194 -23.948  0.00  0.00     0.224 A 
ENDROOT
BRANCH   2   6
ATOM      6  S   UNL d   1      29.796  16.310 -24.110  0.00  0.00    -0.062 SA
BRANCH   6   7
ATOM      7  C   UNL d   1      29.256  16.201 -23.491  0.00  0.00     0.162 C 
BRANCH   7   8
ATOM      8  C   UNL d   1      28.452  16.101 -23.647  0.00  0.00     0.197 C 
ATOM      9  O   UNL d   1      28.199  15.452 -24.104  0.00  0.00    -0.647 OA
ATOM     10  O   UNL d   1      27.902  16.640 -23.351  0.00  0.00    -0.647 OA
ENDBRANCH   7   8
ENDBRANCH   6   7
ENDBRANCH   2   6
TORSDOF 3
ENDMDL
