MODEL 1
REMARK VINA RESULT:     -11.0      0.000      0.000
REMARK  4 active torsions:
REMARK  status: ('A' for Active; 'I' for Inactive)
REMARK    1  A    between atoms: C_8  and  C_1 
REMARK    2  A    between atoms: C_14  and  C_5 
REMARK    3  A    between atoms: O_16  and  C_8 
REMARK    4  A    between atoms: C_21  and  O_16 
ROOT
ATOM      1  C   UNL d   1      52.909  33.436  53.316  0.00  0.00     0.106 A 
ATOM      2  C   UNL d   1      52.291  33.202  52.822  0.00  0.00     0.208 A 
ATOM      3  C   UNL d   1      53.270  32.060  53.518  0.00  0.00     0.061 A 
ATOM      4  C   UNL d   1      52.652  31.826  53.024  0.00  0.00     0.101 A 
ATOM      5  C   UNL d   1      53.407  32.858  53.670  0.00  0.00     0.014 A 
ATOM      6  O   UNL d   1      52.167  32.387  52.679  0.00  0.00    -0.288 OA
ATOM      7  C   UNL d   1      53.761  31.510  53.868  0.00  0.00     0.194 A 
ATOM      8  C   UNL d   1      52.521  31.039  52.877  0.00  0.00     0.002 A 
ATOM      9  C   UNL d   1      53.005  30.483  53.221  0.00  0.00     0.042 A 
ATOM     10  C   UNL d   1      53.623  30.718  53.715  0.00  0.00     0.019 A 
ATOM     11  O   UNL d   1      54.375  31.744  54.358  0.00  0.00    -0.287 OA
ATOM     12  N   UNL d   1      51.800  33.783  52.474  0.00  0.00    -0.121 N 
ATOM     13  C   UNL d   1      53.345  29.764  53.444  0.00  0.00     0.009 C 
ATOM     14  C   UNL d   1      52.565  29.873  52.844  0.00  0.00     0.009 C 
ENDROOT
BRANCH   5  15
ATOM     15  C   UNL d   1      54.021  33.091  54.161  0.00  0.00     0.000 A 
ATOM     16  C   UNL d   1      54.746  33.308  53.844  0.00  0.00     0.000 A 
ATOM     17  C   UNL d   1      55.350  33.540  54.364  0.00  0.00     0.000 A 
ATOM     18  C   UNL d   1      55.248  33.559  55.168  0.00  0.00     0.000 A 
ATOM     19  C   UNL d   1      54.526  33.344  55.488  0.00  0.00     0.000 A 
ATOM     20  C   UNL d   1      53.905  33.108  54.991  0.00  0.00     0.000 A 
ENDBRANCH   5  15
BRANCH   1  21
ATOM     21  C   UNL d   1      53.040  34.254  53.465  0.00  0.00     0.304 C 
ATOM     22  O   UNL d   1      53.604  34.645  53.064  0.00  0.00    -0.259 OA
BRANCH  21  23
ATOM     23  O   UNL d   1      52.581  34.637  54.025  0.00  0.00    -0.271 OA
BRANCH  23  24
ATOM     24  C   UNL d   1      52.497  35.272  53.979  0.00  0.00     0.126 C 
ATOM     25  C   UNL d   1      52.243  35.740  54.637  0.00  0.00     0.029 C 
ENDBRANCH  23  24
ENDBRANCH  21  23
ENDBRANCH   1  21
TORSDOF 4
ENDMDL
MODEL 2
REMARK VINA RESULT:     -10.9      1.075      3.133
REMARK  4 active torsions:
REMARK  status: ('A' for Active; 'I' for Inactive)
REMARK    1  A    between atoms: C_8  and  C_1 
REMARK    2  A    between atoms: C_14  and  C_5 
REMARK    3  A    between atoms: O_16  and  C_8 
REMARK    4  A    between atoms: C_21  and  O_16 
ROOT
ATOM      1  C   UNL d   1      53.134  31.727  53.319  0.00  0.00     0.106 A 
ATOM      2  C   UNL d   1      52.539  31.488  52.800  0.00  0.00     0.208 A 
ATOM      3  C   UNL d   1      52.588  33.056  53.334  0.00  0.00     0.061 A 
ATOM      4  C   UNL d   1      51.993  32.817  52.814  0.00  0.00     0.101 A 
ATOM      5  C   UNL d   1      53.160  32.523  53.591  0.00  0.00     0.014 A 
ATOM      6  O   UNL d   1      51.966  32.044  52.549  0.00  0.00    -0.288 OA
ATOM      7  C   UNL d   1      52.625  33.824  53.605  0.00  0.00     0.194 A 
ATOM      8  C   UNL d   1      51.432  33.345  52.563  0.00  0.00     0.002 A 
ATOM      9  C   UNL d   1      51.460  34.114  52.829  0.00  0.00     0.042 A 
ATOM     10  C   UNL d   1      52.055  34.353  53.348  0.00  0.00     0.019 A 
ATOM     11  O   UNL d   1      53.216  34.061  54.121  0.00  0.00    -0.287 OA
ATOM     12  N   UNL d   1      52.520  30.695  52.535  0.00  0.00    -0.121 N 
ATOM     13  C   UNL d   1      51.286  34.912  52.952  0.00  0.00     0.009 C 
ATOM     14  C   UNL d   1      50.775  34.292  52.374  0.00  0.00     0.009 C 
ENDROOT
BRANCH   5  15
ATOM     15  C   UNL d   1      53.751  32.760  54.107  0.00  0.00     0.000 A 
ATOM     16  C   UNL d   1      53.632  32.726  54.919  0.00  0.00     0.000 A 
ATOM     17  C   UNL d   1      54.248  32.972  55.418  0.00  0.00     0.000 A 
ATOM     18  C   UNL d   1      54.957  33.244  55.133  0.00  0.00     0.000 A 
ATOM     19  C   UNL d   1      55.079  33.279  54.325  0.00  0.00     0.000 A 
ATOM     20  C   UNL d   1      54.481  33.039  53.802  0.00  0.00     0.000 A 
ENDBRANCH   5  15
BRANCH   1  21
ATOM     21  C   UNL d   1      53.714  31.174  53.576  0.00  0.00     0.304 C 
ATOM     22  O   UNL d   1      54.459  31.225  53.304  0.00  0.00    -0.259 OA
BRANCH  21  23
ATOM     23  O   UNL d   1      53.499  30.588  54.107  0.00  0.00    -0.271 OA
BRANCH  23  24
ATOM     24  C   UNL d   1      53.746  29.999  54.038  0.00  0.00     0.126 C 
ATOM     25  C   UNL d   1      53.553  29.367  54.567  0.00  0.00     0.029 C 
ENDBRANCH  23  24
ENDBRANCH  21  23
ENDBRANCH   1  21
TORSDOF 4
ENDMDL
MODEL 3
REMARK VINA RESULT:     -10.9      1.038      2.348
REMARK  4 active torsions:
REMARK  status: ('A' for Active; 'I' for Inactive)
REMARK    1  A    between atoms: C_8  and  C_1 
REMARK    2  A    between atoms: C_14  and  C_5 
REMARK    3  A    between atoms: O_16  and  C_8 
REMARK    4  A    between atoms: C_21  and  O_16 
ROOT
ATOM      1  C   UNL d   1      53.376  33.583  53.772  0.00  0.00     0.106 A 
ATOM      2  C   UNL d   1      54.059  33.256  54.099  0.00  0.00     0.208 A 
ATOM      3  C   UNL d   1      52.930  32.272  53.390  0.00  0.00     0.061 A 
ATOM      4  C   UNL d   1      53.613  31.944  53.717  0.00  0.00     0.101 A 
ATOM      5  C   UNL d   1      52.802  33.085  53.412  0.00  0.00     0.014 A 
ATOM      6  O   UNL d   1      54.172  32.428  54.068  0.00  0.00    -0.288 OA
ATOM      7  C   UNL d   1      52.366  31.800  53.037  0.00  0.00     0.194 A 
ATOM      8  C   UNL d   1      53.736  31.143  53.693  0.00  0.00     0.002 A 
ATOM      9  C   UNL d   1      53.178  30.665  53.343  0.00  0.00     0.042 A 
ATOM     10  C   UNL d   1      52.495  30.992  53.017  0.00  0.00     0.019 A 
ATOM     11  O   UNL d   1      51.687  32.126  52.712  0.00  0.00    -0.287 OA
ATOM     12  N   UNL d   1      54.625  33.758  54.456  0.00  0.00    -0.121 N 
ATOM     13  C   UNL d   1      52.777  30.003  53.057  0.00  0.00     0.009 C 
ATOM     14  C   UNL d   1      53.652  29.992  53.521  0.00  0.00     0.009 C 
ENDROOT
BRANCH   5  15
ATOM     15  C   UNL d   1      52.123  33.410  53.087  0.00  0.00     0.000 A 
ATOM     16  C   UNL d   1      52.138  33.734  52.333  0.00  0.00     0.000 A 
ATOM     17  C   UNL d   1      51.436  34.056  52.029  0.00  0.00     0.000 A 
ATOM     18  C   UNL d   1      50.742  34.062  52.449  0.00  0.00     0.000 A 
ATOM     19  C   UNL d   1      50.724  33.741  53.201  0.00  0.00     0.000 A 
ATOM     20  C   UNL d   1      51.411  33.411  53.529  0.00  0.00     0.000 A 
ENDBRANCH   5  15
BRANCH   1  21
ATOM     21  C   UNL d   1      53.254  34.415  53.800  0.00  0.00     0.304 C 
ATOM     22  O   UNL d   1      53.354  34.853  53.144  0.00  0.00    -0.259 OA
BRANCH  21  23
ATOM     23  O   UNL d   1      53.034  34.763  54.508  0.00  0.00    -0.271 OA
BRANCH  23  24
ATOM     24  C   UNL d   1      53.181  35.380  54.611  0.00  0.00     0.126 C 
ATOM     25  C   UNL d   1      52.807  35.834  55.220  0.00  0.00     0.029 C 
ENDBRANCH  23  24
ENDBRANCH  21  23
ENDBRANCH   1  21
TORSDOF 4
ENDMDL
MODEL 4
REMARK VINA RESULT:      -9.3      1.290      3.039
REMARK  4 active torsions:
REMARK  status: ('A' for Active; 'I' for Inactive)
REMARK    1  A    between atoms: C_8  and  C_1 
REMARK    2  A    between atoms: C_14  and  C_5 
REMARK    3  A    between atoms: O_16  and  C_8 
REMARK    4  A    between atoms: C_21  and  O_16 
ROOT
ATOM      1  C   UNL d   1      53.304  33.661  54.433  0.00  0.00     0.106 A 
ATOM      2  C   UNL d   1      53.003  34.409  54.609  0.00  0.00     0.208 A 
ATOM      3  C   UNL d   1      52.283  33.485  53.437  0.00  0.00     0.061 A 
ATOM      4  C   UNL d   1      51.982  34.233  53.613  0.00  0.00     0.101 A 
ATOM      5  C   UNL d   1      52.939  33.191  53.838  0.00  0.00     0.014 A 
ATOM      6  O   UNL d   1      52.336  34.691  54.191  0.00  0.00    -0.288 OA
ATOM      7  C   UNL d   1      51.939  33.019  52.863  0.00  0.00     0.194 A 
ATOM      8  C   UNL d   1      51.336  34.519  53.216  0.00  0.00     0.002 A 
ATOM      9  C   UNL d   1      50.986  34.062  52.642  0.00  0.00     0.042 A 
ATOM     10  C   UNL d   1      51.286  33.314  52.466  0.00  0.00     0.019 A 
ATOM     11  O   UNL d   1      52.237  32.276  52.688  0.00  0.00    -0.287 OA
ATOM     12  N   UNL d   1      53.372  34.870  55.202  0.00  0.00    -0.121 N 
ATOM     13  C   UNL d   1      50.480  33.797  52.045  0.00  0.00     0.009 C 
ATOM     14  C   UNL d   1      50.422  34.671  52.506  0.00  0.00     0.009 C 
ENDROOT
BRANCH   5  15
ATOM     15  C   UNL d   1      53.237  32.448  53.663  0.00  0.00     0.000 A 
ATOM     16  C   UNL d   1      53.800  32.355  53.073  0.00  0.00     0.000 A 
ATOM     17  C   UNL d   1      54.084  31.590  52.917  0.00  0.00     0.000 A 
ATOM     18  C   UNL d   1      53.828  30.939  53.325  0.00  0.00     0.000 A 
ATOM     19  C   UNL d   1      53.267  31.027  53.914  0.00  0.00     0.000 A 
ATOM     20  C   UNL d   1      52.965  31.780  54.091  0.00  0.00     0.000 A 
ENDBRANCH   5  15
BRANCH   1  21
ATOM     21  C   UNL d   1      53.975  33.369  54.848  0.00  0.00     0.304 C 
ATOM     22  O   UNL d   1      53.881  32.826  55.421  0.00  0.00    -0.259 OA
BRANCH  21  23
ATOM     23  O   UNL d   1      54.718  33.652  54.655  0.00  0.00    -0.271 OA
BRANCH  23  24
ATOM     24  C   UNL d   1      55.176  33.660  55.105  0.00  0.00     0.126 C 
ATOM     25  C   UNL d   1      55.939  34.000  54.963  0.00  0.00     0.029 C 
ENDBRANCH  23  24
ENDBRANCH  21  23
ENDBRANCH   1  21
TORSDOF 4
ENDMDL
MODEL 5
REMARK VINA RESULT:      -9.1      1.186      3.719
REMARK  4 active torsions:
REMARK  status: ('A' for Active; 'I' for Inactive)
REMARK    1  A    between atoms: C_8  and  C_1 
REMARK    2  A    between atoms: C_14  and  C_5 
REMARK    3  A    between atoms: O_16  and  C_8 
REMARK    4  A    between atoms: C_21  and  O_16 
ROOT
ATOM      1  C   UNL d   1      53.216  31.896  53.435  0.00  0.00     0.106 A 
ATOM      2  C   UNL d   1      53.910  31.561  53.728  0.00  0.00     0.208 A 
ATOM      3  C   UNL d   1      53.537  33.134  54.090  0.00  0.00     0.061 A 
ATOM      4  C   UNL d   1      54.232  32.799  54.383  0.00  0.00     0.101 A 
ATOM      5  C   UNL d   1      53.025  32.695  53.618  0.00  0.00     0.014 A 
ATOM      6  O   UNL d   1      54.418  32.022  54.206  0.00  0.00    -0.288 OA
ATOM      7  C   UNL d   1      53.340  33.907  54.259  0.00  0.00     0.194 A 
ATOM      8  C   UNL d   1      54.733  33.234  54.847  0.00  0.00     0.002 A 
ATOM      9  C   UNL d   1      54.545  34.007  55.021  0.00  0.00     0.042 A 
ATOM     10  C   UNL d   1      53.851  34.342  54.728  0.00  0.00     0.019 A 
ATOM     11  O   UNL d   1      52.650  34.240  53.967  0.00  0.00    -0.287 OA
ATOM     12  N   UNL d   1      54.092  30.766  53.542  0.00  0.00    -0.121 N 
ATOM     13  C   UNL d   1      54.571  34.775  55.323  0.00  0.00     0.009 C 
ATOM     14  C   UNL d   1      55.253  34.072  55.472  0.00  0.00     0.009 C 
ENDROOT
BRANCH   5  15
ATOM     15  C   UNL d   1      52.335  33.028  53.327  0.00  0.00     0.000 A 
ATOM     16  C   UNL d   1      51.638  32.983  53.758  0.00  0.00     0.000 A 
ATOM     17  C   UNL d   1      50.954  33.329  53.438  0.00  0.00     0.000 A 
ATOM     18  C   UNL d   1      50.952  33.707  52.721  0.00  0.00     0.000 A 
ATOM     19  C   UNL d   1      51.645  33.754  52.288  0.00  0.00     0.000 A 
ATOM     20  C   UNL d   1      52.343  33.417  52.583  0.00  0.00     0.000 A 
ENDBRANCH   5  15
BRANCH   1  21
ATOM     21  C   UNL d   1      52.699  31.438  52.954  0.00  0.00     0.304 C 
ATOM     22  O   UNL d   1      52.668  31.568  52.170  0.00  0.00    -0.259 OA
BRANCH  21  23
ATOM     23  O   UNL d   1      52.233  30.862  53.303  0.00  0.00    -0.271 OA
BRANCH  23  24
ATOM     24  C   UNL d   1      52.141  30.306  52.995  0.00  0.00     0.126 C 
ATOM     25  C   UNL d   1      51.698  29.671  53.337  0.00  0.00     0.029 C 
ENDBRANCH  23  24
ENDBRANCH  21  23
ENDBRANCH   1  21
TORSDOF 4
ENDMDL
MODEL 6
REMARK VINA RESULT:      -8.3      1.055      3.013
REMARK  4 active torsions:
REMARK  status: ('A' for Active; 'I' for Inactive)
REMARK    1  A    between atoms: C_8  and  C_1 
REMARK    2  A    between atoms: C_14  and  C_5 
REMARK    3  A    between atoms: O_16  and  C_8 
REMARK    4  A    between atoms: C_21  and  O_16 
ROOT
ATOM      1  C   UNL d   1      52.438  33.833  53.181  0.00  0.00     0.106 A 
ATOM      2  C   UNL d   1      52.607  34.614  53.387  0.00  0.00     0.208 A 
ATOM      3  C   UNL d   1      53.445  33.373  54.097  0.00  0.00     0.061 A 
ATOM      4  C   UNL d   1      53.614  34.153  54.303  0.00  0.00     0.101 A 
ATOM      5  C   UNL d   1      52.863  33.202  53.540  0.00  0.00     0.014 A 
ATOM      6  O   UNL d   1      53.202  34.768  53.954  0.00  0.00    -0.288 OA
ATOM      7  C   UNL d   1      53.849  32.751  54.437  0.00  0.00     0.194 A 
ATOM      8  C   UNL d   1      54.188  34.317  54.851  0.00  0.00     0.002 A 
ATOM      9  C   UNL d   1      54.597  33.704  55.197  0.00  0.00     0.042 A 
ATOM     10  C   UNL d   1      54.427  32.923  54.990  0.00  0.00     0.019 A 
ATOM     11  O   UNL d   1      53.680  31.975  54.232  0.00  0.00    -0.287 OA
ATOM     12  N   UNL d   1      52.181  35.235  53.025  0.00  0.00    -0.121 N 
ATOM     13  C   UNL d   1      55.123  33.273  55.664  0.00  0.00     0.009 C 
ATOM     14  C   UNL d   1      55.040  34.259  55.647  0.00  0.00     0.009 C 
ENDROOT
BRANCH   5  15
ATOM     15  C   UNL d   1      52.695  32.426  53.335  0.00  0.00     0.000 A 
ATOM     16  C   UNL d   1      52.093  32.017  53.715  0.00  0.00     0.000 A 
ATOM     17  C   UNL d   1      51.944  31.233  53.487  0.00  0.00     0.000 A 
ATOM     18  C   UNL d   1      52.371  30.860  52.907  0.00  0.00     0.000 A 
ATOM     19  C   UNL d   1      52.971  31.264  52.526  0.00  0.00     0.000 A 
ATOM     20  C   UNL d   1      53.142  32.050  52.733  0.00  0.00     0.000 A 
ENDBRANCH   5  15
BRANCH   1  21
ATOM     21  C   UNL d   1      51.841  33.669  52.611  0.00  0.00     0.304 C 
ATOM     22  O   UNL d   1      52.044  33.415  51.885  0.00  0.00    -0.259 OA
BRANCH  21  23
ATOM     23  O   UNL d   1      51.055  33.775  52.814  0.00  0.00    -0.271 OA
BRANCH  23  24
ATOM     24  C   UNL d   1      50.636  33.951  52.360  0.00  0.00     0.126 C 
ATOM     25  C   UNL d   1      49.830  34.139  52.542  0.00  0.00     0.029 C 
ENDBRANCH  23  24
ENDBRANCH  21  23
ENDBRANCH   1  21
TORSDOF 4
ENDMDL
