MODEL 1
REMARK VINA RESULT:      44.6      0.000      0.000
REMARK  4 active torsions:
REMARK  status: ('A' for Active; 'I' for Inactive)
REMARK    1  A    between atoms: C_7  and  C_1 
REMARK    2  A    between atoms: C_8  and  C_3 
REMARK    3  A    between atoms: C_10  and  C_6 
REMARK    4  A    between atoms: C_9  and  C_8 
ROOT
ATOM      1  C   UNL d   1      45.698 -17.404  43.459  0.00  0.00     0.293 A 
ATOM      2  N   UNL d   1      45.970 -16.661  43.205  0.00  0.00    -0.223 N 
ATOM      3  C   UNL d   1      45.836 -18.082  42.986  0.00  0.00     0.113 A 
ATOM      4  C   UNL d   1      46.380 -16.596  42.477  0.00  0.00     0.356 A 
ATOM      5  N   UNL d   1      46.518 -17.273  42.003  0.00  0.00    -0.192 NA
ATOM      6  C   UNL d   1      46.246 -18.016  42.258  0.00  0.00     0.094 A 
ATOM      7  O   UNL d   1      46.645 -15.846  42.237  0.00  0.00    -0.244 OA
ATOM      8  O   UNL d   1      45.355 -18.041  43.879  0.00  0.00    -0.267 OA
ATOM      9  C   UNL d   1      45.841 -15.994  43.661  0.00  0.00     0.106 C 
ENDROOT
BRANCH   3  10
ATOM     10  C   UNL d   1      45.564 -18.825  43.240  0.00  0.00     0.207 C 
ATOM     11  O   UNL d   1      44.942 -19.196  42.850  0.00  0.00    -0.286 OA
BRANCH  10  12
ATOM     12  C   UNL d   1      45.925 -19.197  43.898  0.00  0.00     0.069 A 
ATOM     13  S   UNL d   1      46.544 -18.975  44.403  0.00  0.00    -0.083 SA
ATOM     14  C   UNL d   1      46.646 -19.584  44.954  0.00  0.00     0.035 A 
ATOM     15  C   UNL d   1      46.119 -20.186  44.825  0.00  0.00     0.008 A 
ATOM     16  C   UNL d   1      45.662 -19.957  44.167  0.00  0.00     0.010 A 
ENDBRANCH  10  12
ENDBRANCH   3  10
BRANCH   1  17
ATOM     17  C   UNL d   1      45.468 -16.886  44.050  0.00  0.00     0.469 C 
ATOM     18  F   UNL d   1      45.936 -16.761  44.521  0.00  0.00    -0.162 F 
ATOM     19  F   UNL d   1      45.216 -16.352  44.649  0.00  0.00    -0.162 F 
ATOM     20  F   UNL d   1      44.792 -16.586  44.051  0.00  0.00    -0.162 F 
ENDBRANCH   1  17
BRANCH   6  21
ATOM     21  C   UNL d   1      46.379 -18.679  41.797  0.00  0.00     0.021 A 
ATOM     22  C   UNL d   1      46.388 -18.619  40.981  0.00  0.00     0.043 A 
ATOM     23  C   UNL d   1      46.524 -19.295  40.513  0.00  0.00     0.196 A 
ATOM     24  O   UNL d   1      46.533 -19.231  39.701  0.00  0.00    -0.287 OA
ATOM     25  C   UNL d   1      46.647 -20.015  40.873  0.00  0.00     0.042 A 
ATOM     26  C   UNL d   1      46.638 -20.080  41.688  0.00  0.00     0.003 A 
ATOM     27  C   UNL d   1      46.504 -19.412  42.149  0.00  0.00     0.002 A 
ENDBRANCH   6  21
TORSDOF 4
ENDMDL
MODEL 2
REMARK VINA RESULT:      46.4      6.015      7.129
REMARK  4 active torsions:
REMARK  status: ('A' for Active; 'I' for Inactive)
REMARK    1  A    between atoms: C_7  and  C_1 
REMARK    2  A    between atoms: C_8  and  C_3 
REMARK    3  A    between atoms: C_10  and  C_6 
REMARK    4  A    between atoms: C_9  and  C_8 
ROOT
ATOM      1  C   UNL d   1      43.030 -15.804  36.842  0.00  0.00     0.293 A 
ATOM      2  N   UNL d   1      42.538 -15.158  36.663  0.00  0.00    -0.223 N 
ATOM      3  C   UNL d   1      43.860 -15.699  36.867  0.00  0.00     0.113 A 
ATOM      4  C   UNL d   1      42.877 -14.409  36.508  0.00  0.00     0.356 A 
ATOM      5  N   UNL d   1      43.708 -14.303  36.533  0.00  0.00    -0.192 NA
ATOM      6  C   UNL d   1      44.200 -14.948  36.712  0.00  0.00     0.094 A 
ATOM      7  O   UNL d   1      42.371 -13.773  36.331  0.00  0.00    -0.244 OA
ATOM      8  O   UNL d   1      43.342 -16.555  37.035  0.00  0.00    -0.267 OA
ATOM      9  C   UNL d   1      41.725 -15.251  36.637  0.00  0.00     0.106 C 
ENDROOT
BRANCH   3  10
ATOM     10  C   UNL d   1      44.352 -16.345  37.046  0.00  0.00     0.207 C 
ATOM     11  O   UNL d   1      44.760 -16.736  36.447  0.00  0.00    -0.286 OA
BRANCH  10  12
ATOM     12  C   UNL d   1      44.433 -16.599  37.840  0.00  0.00     0.069 A 
ATOM     13  S   UNL d   1      44.279 -16.232  38.568  0.00  0.00    -0.083 SA
ATOM     14  C   UNL d   1      44.473 -16.774  39.164  0.00  0.00     0.035 A 
ATOM     15  C   UNL d   1      44.742 -17.470  38.850  0.00  0.00     0.008 A 
ATOM     16  C   UNL d   1      44.723 -17.375  38.022  0.00  0.00     0.010 A 
ENDBRANCH  10  12
ENDBRANCH   3  10
BRANCH   1  17
ATOM     17  C   UNL d   1      42.270 -16.108  36.868  0.00  0.00     0.469 C 
ATOM     18  F   UNL d   1      41.904 -15.923  37.405  0.00  0.00    -0.162 F 
ATOM     19  F   UNL d   1      41.492 -16.430  36.880  0.00  0.00    -0.162 F 
ATOM     20  F   UNL d   1      42.020 -16.553  36.333  0.00  0.00    -0.162 F 
ENDBRANCH   1  17
BRANCH   6  21
ATOM     21  C   UNL d   1      45.011 -14.849  36.736  0.00  0.00     0.021 A 
ATOM     22  C   UNL d   1      45.338 -14.233  37.164  0.00  0.00     0.043 A 
ATOM     23  C   UNL d   1      46.165 -14.132  37.189  0.00  0.00     0.196 A 
ATOM     24  O   UNL d   1      46.486 -13.518  37.616  0.00  0.00    -0.287 OA
ATOM     25  C   UNL d   1      46.645 -14.651  36.783  0.00  0.00     0.042 A 
ATOM     26  C   UNL d   1      46.323 -15.268  36.354  0.00  0.00     0.003 A 
ATOM     27  C   UNL d   1      45.506 -15.366  36.331  0.00  0.00     0.002 A 
ENDBRANCH   6  21
TORSDOF 4
ENDMDL
