MODEL 1
REMARK VINA RESULT:      -3.4      0.000      0.000
REMARK  6 active torsions:
REMARK  status: ('A' for Active; 'I' for Inactive)
REMARK    1  A    between atoms: C_2  and  S_1 
REMARK    2  A    between atoms: N_7  and  S_1 
REMARK    3  A    between atoms: C_15  and  N_7 
REMARK    4  A    between atoms: C_14  and  O_21 
REMARK    5  A    between atoms: C_24  and  C_15 
REMARK    6  A    between atoms: O_21  and  C_24 
ROOT
ATOM      1  S   UNL d   1      32.921  18.619 -23.187  0.00  0.00     0.285 S 
ATOM      2  O   UNL d   1      32.905  18.988 -23.933  0.00  0.00    -0.198 OA
ATOM      3  O   UNL d   1      32.937  18.250 -22.449  0.00  0.00    -0.198 OA
ENDROOT
BRANCH   1   4
ATOM      4  C   UNL d   1      32.688  17.900 -23.549  0.00  0.00     0.107 A 
ATOM      5  C   UNL d   1      31.921  17.630 -23.471  0.00  0.00     0.040 A 
ATOM      6  C   UNL d   1      31.704  16.927 -23.828  0.00  0.00     0.123 A 
ATOM      7  O   UNL d   1      30.930  16.651 -23.752  0.00  0.00    -0.301 OA
ATOM      8  C   UNL d   1      32.255  16.493 -24.263  0.00  0.00     0.123 A 
ATOM      9  C   UNL d   1      30.706  15.942 -24.110  0.00  0.00     0.149 A 
ATOM     10  C   UNL d   1      31.258  15.508 -24.546  0.00  0.00     0.149 A 
ATOM     11  O   UNL d   1      32.032  15.785 -24.622  0.00  0.00    -0.301 OA
ATOM     12  C   UNL d   1      33.023  16.764 -24.341  0.00  0.00     0.028 A 
ATOM     13  C   UNL d   1      33.240  17.466 -23.984  0.00  0.00     0.015 A 
ENDBRANCH   1   4
BRANCH   1  14
ATOM     14  N   UNL d   1      33.151  19.334 -22.840  0.00  0.00    -0.155 NA
BRANCH  14  15
ATOM     15  C   UNL d   1      32.841  19.557 -22.111  0.00  0.00     0.139 C 
BRANCH  15  16
ATOM     16  C   UNL d   1      32.955  20.320 -21.823  0.00  0.00     0.144 C 
BRANCH  16  17
ATOM     17  O   UNL d   1      32.509  20.600 -21.191  0.00  0.00    -0.303 OA
BRANCH  17  18
ATOM     18  C   UNL d   1      32.629  21.359 -20.897  0.00  0.00     0.100 A 
ATOM     19  C   UNL d   1      33.118  21.472 -20.242  0.00  0.00     0.027 A 
ATOM     20  C   UNL d   1      33.241  22.232 -19.944  0.00  0.00     0.032 A 
ATOM     21  C   UNL d   1      32.875  22.880 -20.302  0.00  0.00     0.140 A 
ATOM     22  C   UNL d   1      32.387  22.767 -20.958  0.00  0.00     0.032 A 
ATOM     23  F   UNL d   1      32.996  23.654 -20.005  0.00  0.00    -0.204 F 
ATOM     24  C   UNL d   1      32.266  22.008 -21.251  0.00  0.00     0.027 A 
ENDBRANCH  17  18
ENDBRANCH  16  17
ENDBRANCH  15  16
ENDBRANCH  14  15
ENDBRANCH   1  14
TORSDOF 6
ENDMDL
MODEL 2
REMARK VINA RESULT:      -2.8      2.259      6.097
REMARK  6 active torsions:
REMARK  status: ('A' for Active; 'I' for Inactive)
REMARK    1  A    between atoms: C_2  and  S_1 
REMARK    2  A    between atoms: N_7  and  S_1 
REMARK    3  A    between atoms: C_15  and  N_7 
REMARK    4  A    between atoms: C_14  and  O_21 
REMARK    5  A    between atoms: C_24  and  C_15 
REMARK    6  A    between atoms: O_21  and  C_24 
ROOT
ATOM      1  S   UNL d   1      33.056  21.081 -21.740  0.00  0.00     0.285 S 
ATOM      2  O   UNL d   1      33.052  20.583 -21.074  0.00  0.00    -0.198 OA
ATOM      3  O   UNL d   1      33.060  21.576 -22.401  0.00  0.00    -0.198 OA
ENDROOT
BRANCH   1   4
ATOM      4  C   UNL d   1      32.869  21.730 -21.246  0.00  0.00     0.107 A 
ATOM      5  C   UNL d   1      33.146  21.756 -20.477  0.00  0.00     0.040 A 
ATOM      6  C   UNL d   1      32.958  22.394 -20.003  0.00  0.00     0.123 A 
ATOM      7  O   UNL d   1      33.236  22.424 -19.226  0.00  0.00    -0.301 OA
ATOM      8  C   UNL d   1      32.491  23.008 -20.298  0.00  0.00     0.123 A 
ATOM      9  C   UNL d   1      33.048  23.067 -18.744  0.00  0.00     0.149 A 
ATOM     10  C   UNL d   1      32.581  23.681 -19.039  0.00  0.00     0.149 A 
ATOM     11  O   UNL d   1      32.303  23.651 -19.815  0.00  0.00    -0.301 OA
ATOM     12  C   UNL d   1      32.214  22.983 -21.066  0.00  0.00     0.028 A 
ATOM     13  C   UNL d   1      32.402  22.344 -21.541  0.00  0.00     0.015 A 
ENDBRANCH   1   4
BRANCH   1  14
ATOM     14  N   UNL d   1      33.241  20.432 -22.220  0.00  0.00    -0.155 NA
BRANCH  14  15
ATOM     15  C   UNL d   1      32.701  19.817 -22.307  0.00  0.00     0.139 C 
BRANCH  15  16
ATOM     16  C   UNL d   1      32.894  19.150 -22.750  0.00  0.00     0.144 C 
BRANCH  16  17
ATOM     17  O   UNL d   1      32.326  18.779 -23.217  0.00  0.00    -0.303 OA
BRANCH  17  18
ATOM     18  C   UNL d   1      32.396  17.981 -23.405  0.00  0.00     0.100 A 
ATOM     19  C   UNL d   1      33.009  17.535 -23.079  0.00  0.00     0.027 A 
ATOM     20  C   UNL d   1      33.082  16.734 -23.266  0.00  0.00     0.032 A 
ATOM     21  C   UNL d   1      32.542  16.379 -23.779  0.00  0.00     0.140 A 
ATOM     22  C   UNL d   1      31.928  16.824 -24.105  0.00  0.00     0.032 A 
ATOM     23  F   UNL d   1      32.610  15.567 -23.972  0.00  0.00    -0.204 F 
ATOM     24  C   UNL d   1      31.859  17.623 -23.916  0.00  0.00     0.027 A 
ENDBRANCH  17  18
ENDBRANCH  16  17
ENDBRANCH  15  16
ENDBRANCH  14  15
ENDBRANCH   1  14
TORSDOF 6
ENDMDL
MODEL 3
REMARK VINA RESULT:      -2.7      0.984      1.402
REMARK  6 active torsions:
REMARK  status: ('A' for Active; 'I' for Inactive)
REMARK    1  A    between atoms: C_2  and  S_1 
REMARK    2  A    between atoms: N_7  and  S_1 
REMARK    3  A    between atoms: C_15  and  N_7 
REMARK    4  A    between atoms: C_14  and  O_21 
REMARK    5  A    between atoms: C_24  and  C_15 
REMARK    6  A    between atoms: O_21  and  C_24 
ROOT
ATOM      1  S   UNL d   1      32.602  17.816 -23.562  0.00  0.00     0.285 S 
ATOM      2  O   UNL d   1      32.418  17.465 -22.830  0.00  0.00    -0.198 OA
ATOM      3  O   UNL d   1      32.784  18.162 -24.288  0.00  0.00    -0.198 OA
ENDROOT
BRANCH   1   4
ATOM      4  C   UNL d   1      32.078  17.282 -23.939  0.00  0.00     0.107 A 
ATOM      5  C   UNL d   1      31.279  17.448 -23.978  0.00  0.00     0.040 A 
ATOM      6  C   UNL d   1      30.776  16.921 -24.349  0.00  0.00     0.123 A 
ATOM      7  O   UNL d   1      29.968  17.085 -24.391  0.00  0.00    -0.301 OA
ATOM      8  C   UNL d   1      31.074  16.226 -24.682  0.00  0.00     0.123 A 
ATOM      9  C   UNL d   1      29.458  16.555 -24.764  0.00  0.00     0.149 A 
ATOM     10  C   UNL d   1      29.755  15.860 -25.097  0.00  0.00     0.149 A 
ATOM     11  O   UNL d   1      30.563  15.697 -25.056  0.00  0.00    -0.301 OA
ATOM     12  C   UNL d   1      31.873  16.060 -24.643  0.00  0.00     0.028 A 
ATOM     13  C   UNL d   1      32.376  16.588 -24.272  0.00  0.00     0.015 A 
ENDBRANCH   1   4
BRANCH   1  14
ATOM     14  N   UNL d   1      33.117  18.338 -23.179  0.00  0.00    -0.155 NA
BRANCH  14  15
ATOM     15  C   UNL d   1      32.957  19.145 -23.174  0.00  0.00     0.139 C 
BRANCH  15  16
ATOM     16  C   UNL d   1      33.154  19.608 -22.522  0.00  0.00     0.144 C 
BRANCH  16  17
ATOM     17  O   UNL d   1      33.117  20.429 -22.564  0.00  0.00    -0.303 OA
BRANCH  17  18
ATOM     18  C   UNL d   1      33.069  20.882 -21.878  0.00  0.00     0.100 A 
ATOM     19  C   UNL d   1      32.847  21.675 -21.927  0.00  0.00     0.027 A 
ATOM     20  C   UNL d   1      32.797  22.132 -21.241  0.00  0.00     0.032 A 
ATOM     21  C   UNL d   1      32.970  21.796 -20.507  0.00  0.00     0.140 A 
ATOM     22  C   UNL d   1      33.193  21.003 -20.459  0.00  0.00     0.032 A 
ATOM     23  F   UNL d   1      32.922  22.255 -19.808  0.00  0.00    -0.204 F 
ATOM     24  C   UNL d   1      33.241  20.550 -21.145  0.00  0.00     0.027 A 
ENDBRANCH  17  18
ENDBRANCH  16  17
ENDBRANCH  15  16
ENDBRANCH  14  15
ENDBRANCH   1  14
TORSDOF 6
ENDMDL
