MODEL 1
REMARK VINA RESULT:      22.3      0.000      0.000
REMARK  5 active torsions:
REMARK  status: ('A' for Active; 'I' for Inactive)
REMARK    1  A    between atoms: S_8  and  C_2 
REMARK    2  A    between atoms: C_4  and  C_3 
REMARK    3  A    between atoms: C_18  and  S_8 
REMARK    4  A    between atoms: C_9  and  C_18 
REMARK       I    between atoms: N_11  and  C_9 
REMARK    5  A    between atoms: C_13  and  N_11 
ROOT
ATOM      1  C   UNL d   1      46.203 -18.266  43.528  0.00  0.00     0.096 A 
ATOM      2  C   UNL d   1      46.121 -17.418  43.475  0.00  0.00     0.120 A 
ATOM      3  C   UNL d   1      46.375 -18.707  42.841  0.00  0.00     0.085 A 
ATOM      4  N   UNL d   1      46.215 -17.059  42.739  0.00  0.00    -0.238 NA
ATOM      5  C   UNL d   1      46.116 -18.653  44.239  0.00  0.00     0.103 C 
ATOM      6  N   UNL d   1      46.029 -19.041  44.951  0.00  0.00    -0.191 NA
ATOM      7  C   UNL d   1      46.467 -18.328  42.105  0.00  0.00     0.024 A 
ATOM      8  C   UNL d   1      46.385 -17.481  42.052  0.00  0.00     0.082 A 
ATOM      9  C   UNL d   1      46.469 -17.092  41.354  0.00  0.00     0.021 C 
ENDROOT
BRANCH   2  10
ATOM     10  S   UNL d   1      45.951 -16.996  44.163  0.00  0.00    -0.062 SA
BRANCH  10  11
ATOM     11  C   UNL d   1      45.765 -16.198  44.132  0.00  0.00     0.099 C 
BRANCH  11  12
ATOM     12  C   UNL d   1      45.169 -15.900  44.623  0.00  0.00     0.281 C 
ATOM     13  N   UNL d   1      45.155 -15.108  44.798  0.00  0.00    -0.238 NA
ATOM     14  O   UNL d   1      44.589 -16.413  44.931  0.00  0.00    -0.265 OA
BRANCH  13  15
ATOM     15  C   UNL d   1      45.729 -14.607  44.492  0.00  0.00     0.088 C 
ATOM     16  C   UNL d   1      46.319 -14.098  44.181  0.00  0.00     0.025 C 
ATOM     17  C   UNL d   1      45.156 -14.213  44.068  0.00  0.00     0.025 C 
ATOM     18  C   UNL d   1      46.285 -15.007  44.917  0.00  0.00     0.025 C 
ENDBRANCH  13  15
ENDBRANCH  11  12
ENDBRANCH  10  11
ENDBRANCH   2  10
BRANCH   3  19
ATOM     19  C   UNL d   1      46.454 -19.521  42.892  0.00  0.00     0.419 C 
ATOM     20  F   UNL d   1      46.532 -20.329  42.942  0.00  0.00    -0.166 F 
ATOM     21  F   UNL d   1      46.262 -19.589  42.092  0.00  0.00    -0.166 F 
ATOM     22  F   UNL d   1      46.646 -19.453  43.693  0.00  0.00    -0.166 F 
ENDBRANCH   3  19
TORSDOF 5
ENDMDL
