MODEL 1
REMARK VINA RESULT:      -3.7      0.000      0.000
REMARK  4 active torsions:
REMARK  status: ('A' for Active; 'I' for Inactive)
REMARK    1  A    between atoms: N_5  and  C_1 
REMARK    2  A    between atoms: N_8  and  C_3 
REMARK    3  A    between atoms: C_19  and  N_8 
REMARK    4  A    between atoms: C_21  and  C_19 
ROOT
ATOM      1  C   UNL d   1      59.765  -0.757  29.428  0.00  0.00     0.200 A 
ATOM      2  C   UNL d   1      60.416  -1.125  29.082  0.00  0.00     0.288 A 
ATOM      3  C   UNL d   1      59.039  -1.159  29.499  0.00  0.00     0.109 A 
ATOM      4  N   UNL d   1      60.345  -1.903  28.802  0.00  0.00    -0.270 N 
ATOM      5  C   UNL d   1      58.976  -1.938  29.216  0.00  0.00     0.036 A 
ATOM      6  C   UNL d   1      59.629  -2.308  28.869  0.00  0.00     0.069 A 
ATOM      7  O   UNL d   1      61.131  -0.721  29.015  0.00  0.00    -0.265 OA
ATOM      8  C   UNL d   1      60.995  -2.271  28.456  0.00  0.00     0.102 C 
ATOM      9  C   UNL d   1      58.260  -2.342  29.283  0.00  0.00     0.003 A 
ATOM     10  C   UNL d   1      59.563  -3.080  28.589  0.00  0.00     0.018 A 
ATOM     11  C   UNL d   1      58.197  -3.117  29.002  0.00  0.00     0.000 A 
ATOM     12  C   UNL d   1      58.847  -3.485  28.656  0.00  0.00     0.002 A 
ENDROOT
BRANCH   3  13
ATOM     13  N   UNL d   1      58.388  -0.792  29.844  0.00  0.00    -0.242 NA
BRANCH  13  14
ATOM     14  C   UNL d   1      57.979  -1.166  30.456  0.00  0.00     0.099 C 
BRANCH  14  15
ATOM     15  C   UNL d   1      57.508  -0.724  30.966  0.00  0.00     0.021 A 
ATOM     16  C   UNL d   1      57.194  -1.074  31.642  0.00  0.00     0.028 A 
ATOM     17  C   UNL d   1      56.723  -0.632  32.152  0.00  0.00     0.119 A 
ATOM     18  O   UNL d   1      56.342  -0.821  32.851  0.00  0.00    -0.300 OA
ATOM     19  C   UNL d   1      56.566   0.161  31.987  0.00  0.00     0.119 A 
ATOM     20  C   UNL d   1      55.947  -0.153  33.124  0.00  0.00     0.304 A 
ATOM     21  O   UNL d   1      56.089   0.456  32.584  0.00  0.00    -0.300 OA
ATOM     22  C   UNL d   1      56.884   0.512  31.304  0.00  0.00     0.026 A 
ATOM     23  C   UNL d   1      57.355   0.069  30.794  0.00  0.00     0.004 A 
ENDBRANCH  14  15
ENDBRANCH  13  14
ENDBRANCH   3  13
BRANCH   1  24
ATOM     24  N   UNL d   1      59.828   0.021  29.710  0.00  0.00    -0.107 N 
ATOM     25  O   UNL d   1      59.467   0.637  29.299  0.00  0.00    -0.531 OA
ATOM     26  O   UNL d   1      60.251   0.179  30.403  0.00  0.00    -0.531 OA
ENDBRANCH   1  24
TORSDOF 4
ENDMDL
