MODEL 1
REMARK VINA RESULT:      -3.6      0.000      0.000
REMARK  3 active torsions:
REMARK  status: ('A' for Active; 'I' for Inactive)
REMARK       I    between atoms: N_2  and  C_1 
REMARK    1  A    between atoms: C_9  and  C_1 
REMARK    2  A    between atoms: C_6  and  N_5 
REMARK    3  A    between atoms: N_8  and  C_7 
ROOT
ATOM      1  C   UNL d   1     -41.522-123.186 -54.093  0.00  0.00     0.265 C 
ATOM      2  N   UNL d   1     -41.543-123.191 -53.269  0.00  0.00    -0.269 N 
ATOM      3  N   UNL d   1     -41.588-123.198 -51.623  0.00  0.00    -0.285 N 
ATOM      4  C   UNL d   1     -41.930-122.575 -52.867  0.00  0.00     0.102 A 
ATOM      5  C   UNL d   1     -41.184-123.801 -52.849  0.00  0.00     0.102 A 
ATOM      6  C   UNL d   1     -41.952-122.581 -52.039  0.00  0.00     0.101 A 
ATOM      7  C   UNL d   1     -41.200-123.814 -52.026  0.00  0.00     0.101 A 
ATOM      8  O   UNL d   1     -41.137-123.796 -54.505  0.00  0.00    -0.267 OA
ENDROOT
BRANCH   3   9
ATOM      9  C   UNL d   1     -41.609-123.204 -50.796  0.00  0.00     0.170 A 
ATOM     10  N   UNL d   1     -41.127-122.693 -50.371  0.00  0.00    -0.129 NA
ATOM     11  N   UNL d   1     -41.149-122.698 -49.548  0.00  0.00    -0.129 NA
ATOM     12  C   UNL d   1     -41.655-123.218 -49.141  0.00  0.00     0.170 A 
ATOM     13  C   UNL d   1     -42.135-123.728 -49.578  0.00  0.00     0.042 A 
ATOM     14  C   UNL d   1     -42.114-123.722 -50.401  0.00  0.00     0.042 A 
BRANCH  12  15
ATOM     15  N   UNL d   1     -41.676-123.223 -48.318  0.00  0.00    -0.284 N 
ATOM     16  C   UNL d   1     -42.225-122.760 -47.913  0.00  0.00     0.108 A 
ATOM     17  C   UNL d   1     -42.247-122.766 -47.090  0.00  0.00     0.142 A 
ATOM     18  O   UNL d   1     -41.718-123.234 -46.676  0.00  0.00    -0.300 OA
ATOM     19  C   UNL d   1     -41.170-123.696 -47.071  0.00  0.00     0.142 A 
ATOM     20  C   UNL d   1     -41.139-123.699 -47.898  0.00  0.00     0.108 A 
ENDBRANCH  12  15
ENDBRANCH   3   9
BRANCH   1  21
ATOM     21  C   UNL d   1     -41.881-122.575 -54.521  0.00  0.00     0.057 A 
ATOM     22  C   UNL d   1     -42.417-122.744 -55.130  0.00  0.00     0.005 A 
ATOM     23  C   UNL d   1     -42.771-122.136 -55.552  0.00  0.00     0.000 A 
ATOM     24  C   UNL d   1     -43.302-122.316 -56.156  0.00  0.00     0.000 C 
ATOM     25  C   UNL d   1     -42.585-121.355 -55.360  0.00  0.00     0.000 A 
ATOM     26  C   UNL d   1     -42.051-121.177 -54.753  0.00  0.00     0.000 A 
ATOM     27  C   UNL d   1     -41.705-121.792 -54.339  0.00  0.00     0.005 A 
ENDBRANCH   1  21
TORSDOF 3
ENDMDL
