MODEL 1
REMARK VINA RESULT:      -7.2      0.000      0.000
REMARK  3 active torsions:
REMARK  status: ('A' for Active; 'I' for Inactive)
REMARK    1  A    between atoms: C_6  and  N_2 
REMARK    2  A    between atoms: C_7  and  C_6 
REMARK       I    between atoms: N_11  and  C_7 
REMARK    3  A    between atoms: C_14  and  N_11 
ROOT
ATOM      1  S   UNL d   1     -49.017  14.492  22.574  0.00  0.00     0.274 S 
ATOM      2  N   UNL d   1     -48.574  13.904  22.924  0.00  0.00    -0.192 N 
ATOM      3  C   UNL d   1     -49.021  13.207  22.932  0.00  0.00     0.275 A 
ATOM      4  C   UNL d   1     -49.740  13.382  22.582  0.00  0.00     0.069 A 
ATOM      5  C   UNL d   1     -49.737  14.167  22.363  0.00  0.00     0.109 A 
ATOM      6  O   UNL d   1     -48.258  14.684  22.837  0.00  0.00    -0.200 OA
ATOM      7  O   UNL d   1     -49.254  15.229  22.268  0.00  0.00    -0.200 OA
ATOM      8  O   UNL d   1     -48.795  12.480  23.229  0.00  0.00    -0.266 OA
ATOM      9  C   UNL d   1     -50.403  12.912  22.436  0.00  0.00     0.005 A 
ATOM     10  C   UNL d   1     -50.397  14.497  21.995  0.00  0.00     0.013 A 
ATOM     11  C   UNL d   1     -51.064  13.243  22.066  0.00  0.00     0.000 A 
ATOM     12  C   UNL d   1     -51.062  14.028  21.848  0.00  0.00     0.001 A 
ENDROOT
BRANCH   2  13
ATOM     13  C   UNL d   1     -47.804  13.984  23.223  0.00  0.00     0.157 C 
BRANCH  13  14
ATOM     14  C   UNL d   1     -47.181  13.627  22.834  0.00  0.00     0.298 C 
ATOM     15  N   UNL d   1     -46.447  13.557  23.214  0.00  0.00    -0.207 NA
ATOM     16  O   UNL d   1     -47.269  13.335  22.073  0.00  0.00    -0.264 OA
BRANCH  15  17
ATOM     17  C   UNL d   1     -45.812  13.197  22.828  0.00  0.00     0.085 A 
ATOM     18  C   UNL d   1     -45.401  13.617  22.266  0.00  0.00     0.019 A 
ATOM     19  C   UNL d   1     -44.766  13.256  21.880  0.00  0.00     0.002 A 
ATOM     20  C   UNL d   1     -44.556  12.489  22.063  0.00  0.00     0.000 A 
ATOM     21  C   UNL d   1     -44.978  12.069  22.636  0.00  0.00     0.002 A 
ATOM     22  C   UNL d   1     -45.599  12.418  23.015  0.00  0.00     0.019 A 
ENDBRANCH  15  17
ENDBRANCH  13  14
ENDBRANCH   2  13
TORSDOF 3
ENDMDL
MODEL 2
REMARK VINA RESULT:      -6.7      0.977      4.257
REMARK  3 active torsions:
REMARK  status: ('A' for Active; 'I' for Inactive)
REMARK    1  A    between atoms: C_6  and  N_2 
REMARK    2  A    between atoms: C_7  and  C_6 
REMARK       I    between atoms: N_11  and  C_7 
REMARK    3  A    between atoms: C_14  and  N_11 
ROOT
ATOM      1  S   UNL d   1     -46.265  13.821  22.655  0.00  0.00     0.274 S 
ATOM      2  N   UNL d   1     -46.881  13.501  23.082  0.00  0.00    -0.192 N 
ATOM      3  C   UNL d   1     -46.692  12.717  23.270  0.00  0.00     0.275 A 
ATOM      4  C   UNL d   1     -45.953  12.567  22.951  0.00  0.00     0.069 A 
ATOM      5  C   UNL d   1     -45.692  13.242  22.576  0.00  0.00     0.109 A 
ATOM      6  O   UNL d   1     -46.917  14.302  22.811  0.00  0.00    -0.200 OA
ATOM      7  O   UNL d   1     -45.792  14.354  22.224  0.00  0.00    -0.200 OA
ATOM      8  O   UNL d   1     -47.149  12.188  23.693  0.00  0.00    -0.266 OA
ATOM      9  C   UNL d   1     -45.484  11.888  22.960  0.00  0.00     0.005 A 
ATOM     10  C   UNL d   1     -44.957  13.250  22.201  0.00  0.00     0.013 A 
ATOM     11  C   UNL d   1     -44.747  11.896  22.585  0.00  0.00     0.000 A 
ATOM     12  C   UNL d   1     -44.486  12.571  22.209  0.00  0.00     0.001 A 
ENDROOT
BRANCH   2  13
ATOM     13  C   UNL d   1     -47.582  13.891  23.295  0.00  0.00     0.157 C 
BRANCH  13  14
ATOM     14  C   UNL d   1     -48.262  13.762  22.862  0.00  0.00     0.298 C 
ATOM     15  N   UNL d   1     -49.002  13.859  23.224  0.00  0.00    -0.207 NA
ATOM     16  O   UNL d   1     -48.226  13.538  22.074  0.00  0.00    -0.264 OA
BRANCH  15  17
ATOM     17  C   UNL d   1     -49.695  13.730  22.793  0.00  0.00     0.085 A 
ATOM     18  C   UNL d   1     -50.091  13.026  22.882  0.00  0.00     0.019 A 
ATOM     19  C   UNL d   1     -50.784  12.897  22.451  0.00  0.00     0.002 A 
ATOM     20  C   UNL d   1     -51.064  13.473  21.943  0.00  0.00     0.000 A 
ATOM     21  C   UNL d   1     -50.657  14.186  21.858  0.00  0.00     0.002 A 
ATOM     22  C   UNL d   1     -49.979  14.314  22.278  0.00  0.00     0.019 A 
ENDBRANCH  15  17
ENDBRANCH  13  14
ENDBRANCH   2  13
TORSDOF 3
ENDMDL
MODEL 3
REMARK VINA RESULT:      -6.7      8.592     10.020
REMARK  3 active torsions:
REMARK  status: ('A' for Active; 'I' for Inactive)
REMARK    1  A    between atoms: C_6  and  N_2 
REMARK    2  A    between atoms: C_7  and  C_6 
REMARK       I    between atoms: N_11  and  C_7 
REMARK    3  A    between atoms: C_14  and  N_11 
ROOT
ATOM      1  S   UNL d   1     -39.725  14.810  17.050  0.00  0.00     0.274 S 
ATOM      2  N   UNL d   1     -39.853  14.313  17.684  0.00  0.00    -0.192 N 
ATOM      3  C   UNL d   1     -39.336  13.669  17.622  0.00  0.00     0.275 A 
ATOM      4  C   UNL d   1     -38.894  13.783  16.943  0.00  0.00     0.069 A 
ATOM      5  C   UNL d   1     -39.131  14.480  16.594  0.00  0.00     0.109 A 
ATOM      6  O   UNL d   1     -40.304  15.023  17.597  0.00  0.00    -0.200 OA
ATOM      7  O   UNL d   1     -39.782  15.450  16.522  0.00  0.00    -0.200 OA
ATOM      8  O   UNL d   1     -39.274  13.037  18.136  0.00  0.00    -0.266 OA
ATOM      9  C   UNL d   1     -38.296  13.328  16.601  0.00  0.00     0.005 A 
ATOM     10  C   UNL d   1     -38.775  14.736  15.895  0.00  0.00     0.013 A 
ATOM     11  C   UNL d   1     -37.940  13.585  15.900  0.00  0.00     0.000 A 
ATOM     12  C   UNL d   1     -38.177  14.282  15.550  0.00  0.00     0.001 A 
ENDROOT
BRANCH   2  13
ATOM     13  C   UNL d   1     -40.408  14.428  18.290  0.00  0.00     0.157 C 
BRANCH  13  14
ATOM     14  C   UNL d   1     -40.156  14.698  19.019  0.00  0.00     0.298 C 
ATOM     15  N   UNL d   1     -40.650  14.608  19.681  0.00  0.00    -0.207 NA
ATOM     16  O   UNL d   1     -39.424  15.055  19.109  0.00  0.00    -0.264 OA
BRANCH  15  17
ATOM     17  C   UNL d   1     -40.403  14.877  20.422  0.00  0.00     0.085 A 
ATOM     18  C   UNL d   1     -40.021  14.363  20.922  0.00  0.00     0.019 A 
ATOM     19  C   UNL d   1     -39.775  14.632  21.663  0.00  0.00     0.002 A 
ATOM     20  C   UNL d   1     -39.916  15.406  21.887  0.00  0.00     0.000 A 
ATOM     21  C   UNL d   1     -40.304  15.922  21.373  0.00  0.00     0.002 A 
ATOM     22  C   UNL d   1     -40.546  15.662  20.648  0.00  0.00     0.019 A 
ENDBRANCH  15  17
ENDBRANCH  13  14
ENDBRANCH   2  13
TORSDOF 3
ENDMDL
MODEL 4
REMARK VINA RESULT:      -6.1      8.353      9.333
REMARK  3 active torsions:
REMARK  status: ('A' for Active; 'I' for Inactive)
REMARK    1  A    between atoms: C_6  and  N_2 
REMARK    2  A    between atoms: C_7  and  C_6 
REMARK       I    between atoms: N_11  and  C_7 
REMARK    3  A    between atoms: C_14  and  N_11 
ROOT
ATOM      1  S   UNL d   1     -40.488  14.420  18.533  0.00  0.00     0.274 S 
ATOM      2  N   UNL d   1     -40.197  14.849  19.161  0.00  0.00    -0.192 N 
ATOM      3  C   UNL d   1     -39.626  15.377  18.877  0.00  0.00     0.275 A 
ATOM      4  C   UNL d   1     -39.577  15.262  18.068  0.00  0.00     0.069 A 
ATOM      5  C   UNL d   1     -40.104  14.677  17.858  0.00  0.00     0.109 A 
ATOM      6  O   UNL d   1     -40.793  14.261  19.283  0.00  0.00    -0.200 OA
ATOM      7  O   UNL d   1     -40.927  13.876  18.081  0.00  0.00    -0.200 OA
ATOM      8  O   UNL d   1     -39.191  15.914  19.313  0.00  0.00    -0.266 OA
ATOM      9  C   UNL d   1     -39.108  15.626  17.494  0.00  0.00     0.005 A 
ATOM     10  C   UNL d   1     -40.172  14.444  17.069  0.00  0.00     0.013 A 
ATOM     11  C   UNL d   1     -39.177  15.392  16.704  0.00  0.00     0.000 A 
ATOM     12  C   UNL d   1     -39.704  14.807  16.493  0.00  0.00     0.001 A 
ENDROOT
BRANCH   2  13
ATOM     13  C   UNL d   1     -40.429  14.773  19.955  0.00  0.00     0.157 C 
BRANCH  13  14
ATOM     14  C   UNL d   1     -39.887  14.516  20.509  0.00  0.00     0.298 C 
ATOM     15  N   UNL d   1     -40.019  14.675  21.313  0.00  0.00    -0.207 NA
ATOM     16  O   UNL d   1     -39.215  14.104  20.286  0.00  0.00    -0.264 OA
BRANCH  15  17
ATOM     17  C   UNL d   1     -39.477  14.418  21.881  0.00  0.00     0.085 A 
ATOM     18  C   UNL d   1     -39.463  13.633  22.089  0.00  0.00     0.019 A 
ATOM     19  C   UNL d   1     -38.921  13.377  22.657  0.00  0.00     0.002 A 
ATOM     20  C   UNL d   1     -38.407  13.909  23.003  0.00  0.00     0.000 A 
ATOM     21  C   UNL d   1     -38.427  14.706  22.787  0.00  0.00     0.002 A 
ATOM     22  C   UNL d   1     -38.956  14.959  22.233  0.00  0.00     0.019 A 
ENDBRANCH  15  17
ENDBRANCH  13  14
ENDBRANCH   2  13
TORSDOF 3
ENDMDL
MODEL 5
REMARK VINA RESULT:      -6.0      8.526      9.595
REMARK  3 active torsions:
REMARK  status: ('A' for Active; 'I' for Inactive)
REMARK    1  A    between atoms: C_6  and  N_2 
REMARK    2  A    between atoms: C_7  and  C_6 
REMARK       I    between atoms: N_11  and  C_7 
REMARK    3  A    between atoms: C_14  and  N_11 
ROOT
ATOM      1  S   UNL d   1     -40.255  15.119  20.537  0.00  0.00     0.274 S 
ATOM      2  N   UNL d   1     -39.883  14.492  20.174  0.00  0.00    -0.192 N 
ATOM      3  C   UNL d   1     -39.227  14.275  20.630  0.00  0.00     0.275 A 
ATOM      4  C   UNL d   1     -39.207  14.780  21.273  0.00  0.00     0.069 A 
ATOM      5  C   UNL d   1     -39.836  15.296  21.217  0.00  0.00     0.109 A 
ATOM      6  O   UNL d   1     -40.577  14.835  19.832  0.00  0.00    -0.200 OA
ATOM      7  O   UNL d   1     -40.792  15.733  20.704  0.00  0.00    -0.200 OA
ATOM      8  O   UNL d   1     -38.695  13.674  20.474  0.00  0.00    -0.266 OA
ATOM      9  C   UNL d   1     -38.684  14.829  21.910  0.00  0.00     0.005 A 
ATOM     10  C   UNL d   1     -39.954  15.871  21.797  0.00  0.00     0.013 A 
ATOM     11  C   UNL d   1     -38.803  15.406  22.491  0.00  0.00     0.000 A 
ATOM     12  C   UNL d   1     -39.431  15.922  22.435  0.00  0.00     0.001 A 
ENDROOT
BRANCH   2  13
ATOM     13  C   UNL d   1     -40.118  14.128  19.466  0.00  0.00     0.157 C 
BRANCH  13  14
ATOM     14  C   UNL d   1     -39.650  14.201  18.801  0.00  0.00     0.298 C 
ATOM     15  N   UNL d   1     -39.783  13.704  18.150  0.00  0.00    -0.207 NA
ATOM     16  O   UNL d   1     -39.049  14.758  18.765  0.00  0.00    -0.264 OA
BRANCH  15  17
ATOM     17  C   UNL d   1     -39.314  13.771  17.473  0.00  0.00     0.085 A 
ATOM     18  C   UNL d   1     -38.738  13.214  17.334  0.00  0.00     0.019 A 
ATOM     19  C   UNL d   1     -38.269  13.281  16.658  0.00  0.00     0.002 A 
ATOM     20  C   UNL d   1     -38.385  13.900  16.137  0.00  0.00     0.000 A 
ATOM     21  C   UNL d   1     -38.972  14.462  16.285  0.00  0.00     0.002 A 
ATOM     22  C   UNL d   1     -39.432  14.399  16.945  0.00  0.00     0.019 A 
ENDBRANCH  15  17
ENDBRANCH  13  14
ENDBRANCH   2  13
TORSDOF 3
ENDMDL
