MODEL 1
REMARK VINA RESULT:      39.5      0.000      0.000
REMARK  2 active torsions:
REMARK  status: ('A' for Active; 'I' for Inactive)
REMARK    1  A    between atoms: C_3  and  C_4 
REMARK       I    between atoms: N_7  and  C_3 
REMARK    2  A    between atoms: C_11  and  N_7 
ROOT
ATOM      1  C   UNL d   1     -54.855-101.306 -44.085  0.00  0.00     0.300 A 
ATOM      2  O   UNL d   1     -54.840-101.706 -43.356  0.00  0.00    -0.268 OA
ATOM      3  C   UNL d   1     -54.888-101.272 -42.645  0.00  0.00     0.161 A 
ATOM      4  C   UNL d   1     -54.916-100.480 -44.110  0.00  0.00     0.064 A 
ATOM      5  C   UNL d   1     -54.964-100.053 -43.395  0.00  0.00     0.007 A 
ATOM      6  C   UNL d   1     -54.950-100.444 -42.667  0.00  0.00     0.030 A 
ATOM      7  O   UNL d   1     -54.807-101.733 -44.785  0.00  0.00    -0.259 OA
ATOM      8  C   UNL d   1     -55.026 -99.227 -43.420  0.00  0.00     0.000 A 
ATOM      9  C   UNL d   1     -54.931-100.088 -44.829  0.00  0.00     0.005 A 
ATOM     10  C   UNL d   1     -55.040 -98.842 -44.150  0.00  0.00     0.000 A 
ATOM     11  C   UNL d   1     -54.992 -99.270 -44.850  0.00  0.00     0.000 A 
ENDROOT
BRANCH   3  12
ATOM     12  C   UNL d   1     -54.873-101.670 -41.927  0.00  0.00     0.302 C 
ATOM     13  N   UNL d   1     -54.833-101.252 -41.221  0.00  0.00    -0.206 NA
ATOM     14  O   UNL d   1     -54.899-102.491 -41.919  0.00  0.00    -0.263 OA
BRANCH  13  15
ATOM     15  C   UNL d   1     -54.819-101.658 -40.508  0.00  0.00     0.085 A 
ATOM     16  C   UNL d   1     -54.788-102.475 -40.492  0.00  0.00     0.019 A 
ATOM     17  C   UNL d   1     -54.774-102.880 -39.787  0.00  0.00     0.002 A 
ATOM     18  C   UNL d   1     -54.791-102.463 -39.068  0.00  0.00     0.000 A 
ATOM     19  C   UNL d   1     -54.822-101.641 -39.079  0.00  0.00     0.002 A 
ATOM     20  C   UNL d   1     -54.777-102.868 -38.358  0.00  0.00     0.000 C 
ATOM     21  C   UNL d   1     -54.837-101.228 -39.801  0.00  0.00     0.019 A 
ENDBRANCH  13  15
ENDBRANCH   3  12
TORSDOF 2
ENDMDL
