MODEL 1
REMARK VINA RESULT:      28.9      0.000      0.000
REMARK  4 active torsions:
REMARK  status: ('A' for Active; 'I' for Inactive)
REMARK       I    between atoms: C_4  and  N_10 
REMARK    1  A    between atoms: C_7  and  C_4 
REMARK    2  A    between atoms: C_11  and  C_5 
REMARK    3  A    between atoms: N_10  and  C_13 
REMARK    4  A    between atoms: C_13  and  C_11 
ROOT
ATOM      1  C   UNL d   1      58.437  49.699  50.941  0.00  0.00     0.279 C 
ATOM      2  O   UNL d   1      58.661  49.706  51.734  0.00  0.00    -0.265 OA
ATOM      3  N   UNL d   1      59.013  49.699  50.345  0.00  0.00    -0.206 NA
ENDROOT
BRANCH   1   4
ATOM      4  C   UNL d   1      57.622  49.691  50.733  0.00  0.00     0.058 A 
ATOM      5  C   UNL d   1      57.397  49.701  49.939  0.00  0.00     0.005 A 
ATOM      6  C   UNL d   1      56.610  49.693  49.732  0.00  0.00     0.000 A 
ATOM      7  C   UNL d   1      56.399  49.704  48.934  0.00  0.00     0.000 C 
ATOM      8  C   UNL d   1      56.034  49.675  50.319  0.00  0.00     0.000 A 
ATOM      9  C   UNL d   1      56.246  49.665  51.113  0.00  0.00     0.000 A 
ATOM     10  C   UNL d   1      57.037  49.672  51.329  0.00  0.00     0.005 A 
ENDBRANCH   1   4
BRANCH   3  11
ATOM     11  C   UNL d   1      59.799  49.707  50.543  0.00  0.00     0.104 C 
BRANCH  11  12
ATOM     12  C   UNL d   1      60.162  49.015  50.817  0.00  0.00     0.040 C 
BRANCH  12  13
ATOM     13  C   UNL d   1      60.813  49.060  51.298  0.00  0.00     0.090 A 
ATOM     14  N   UNL d   1      60.769  49.438  52.034  0.00  0.00    -0.238 NA
ATOM     15  C   UNL d   1      61.505  49.396  52.391  0.00  0.00     0.111 A 
ATOM     16  S   UNL d   1      62.013  48.996  51.888  0.00  0.00    -0.066 SA
ATOM     17  C   UNL d   1      61.716  49.705  53.141  0.00  0.00     0.028 C 
ATOM     18  C   UNL d   1      61.590  48.785  51.210  0.00  0.00     0.056 A 
ENDBRANCH  12  13
ENDBRANCH  11  12
ENDBRANCH   3  11
TORSDOF 4
ENDMDL
