MODEL 1
REMARK VINA RESULT:      70.3      0.000      0.000
REMARK  3 active torsions:
REMARK  status: ('A' for Active; 'I' for Inactive)
REMARK    1  A    between atoms: C_10  and  N_2 
REMARK    2  A    between atoms: C_15  and  C_3 
REMARK    3  A    between atoms: C_6  and  C_4 
ROOT
ATOM      1  N   UNL d   1     -49.197  29.482  33.731  0.00  0.00    -0.165 NA
ATOM      2  N   UNL d   1     -49.403  28.135  34.148  0.00  0.00    -0.228 N 
ATOM      3  C   UNL d   1     -48.527  28.981  34.886  0.00  0.00     0.081 A 
ATOM      4  C   UNL d   1     -48.680  29.599  34.363  0.00  0.00     0.106 A 
ATOM      5  C   UNL d   1     -48.886  28.251  34.781  0.00  0.00     0.105 A 
ENDROOT
BRANCH   4   6
ATOM      6  C   UNL d   1     -48.319  30.335  34.467  0.00  0.00     0.022 A 
ATOM      7  C   UNL d   1     -48.538  30.969  33.989  0.00  0.00     0.028 A 
ATOM      8  C   UNL d   1     -48.178  31.706  34.091  0.00  0.00     0.123 A 
ATOM      9  O   UNL d   1     -48.398  32.341  33.611  0.00  0.00    -0.301 OA
ATOM     10  C   UNL d   1     -47.592  31.801  34.682  0.00  0.00     0.123 A 
ATOM     11  C   UNL d   1     -48.029  33.086  33.720  0.00  0.00     0.149 A 
ATOM     12  C   UNL d   1     -47.449  33.181  34.305  0.00  0.00     0.149 A 
ATOM     13  O   UNL d   1     -47.235  32.537  34.783  0.00  0.00    -0.301 OA
ATOM     14  C   UNL d   1     -47.383  31.161  35.153  0.00  0.00     0.027 A 
ATOM     15  C   UNL d   1     -47.740  30.430  35.051  0.00  0.00     0.004 A 
ENDBRANCH   4   6
BRANCH   3  16
ATOM     16  C   UNL d   1     -47.987  29.102  35.546  0.00  0.00     0.237 C 
ATOM     17  O   UNL d   1     -48.069  28.627  36.247  0.00  0.00    -0.283 OA
ENDBRANCH   3  16
BRANCH   2  18
ATOM     18  C   UNL d   1     -49.855  27.505  33.868  0.00  0.00     0.083 A 
ATOM     19  C   UNL d   1     -50.674  27.574  33.804  0.00  0.00     0.019 A 
ATOM     20  C   UNL d   1     -51.118  26.938  33.522  0.00  0.00     0.002 A 
ATOM     21  C   UNL d   1     -50.745  26.236  33.306  0.00  0.00     0.000 A 
ATOM     22  C   UNL d   1     -49.923  26.167  33.370  0.00  0.00     0.002 A 
ATOM     23  C   UNL d   1     -49.481  26.803  33.652  0.00  0.00     0.019 A 
ENDBRANCH   2  18
TORSDOF 3
ENDMDL
