MODEL 1
REMARK VINA RESULT:      -0.4      0.000      0.000
REMARK  4 active torsions:
REMARK  status: ('A' for Active; 'I' for Inactive)
REMARK    1  A    between atoms: N_5  and  C_1 
REMARK    2  A    between atoms: S_2  and  N_5 
REMARK    3  A    between atoms: C_7  and  S_2 
REMARK    4  A    between atoms: N_10  and  C_3 
ROOT
ATOM      1  C   UNL d   1      31.242  17.607 -23.977  0.00  0.00     0.146 A 
ATOM      2  C   UNL d   1      31.385  16.801 -23.875  0.00  0.00     0.105 A 
ATOM      3  C   UNL d   1      30.777  16.264 -24.013  0.00  0.00     0.208 A 
ATOM      4  C   UNL d   1      30.498  17.877 -24.215  0.00  0.00     0.215 A 
ATOM      5  C   UNL d   1      30.038  16.523 -24.248  0.00  0.00     0.043 A 
ATOM      6  C   UNL d   1      29.895  17.329 -24.350  0.00  0.00     0.044 A 
ATOM      7  O   UNL d   1      30.920  15.457 -23.910  0.00  0.00    -0.285 OA
ATOM      8  O   UNL d   1      30.370  18.686 -24.313  0.00  0.00    -0.285 OA
ATOM      9  C   UNL d   1      29.430  15.986 -24.386  0.00  0.00     0.003 A 
ATOM     10  C   UNL d   1      29.157  17.588 -24.586  0.00  0.00     0.003 A 
ATOM     11  C   UNL d   1      28.686  16.252 -24.624  0.00  0.00     0.000 A 
ATOM     12  C   UNL d   1      28.548  17.051 -24.724  0.00  0.00     0.000 A 
ENDROOT
BRANCH   1  13
ATOM     13  N   UNL d   1      31.848  18.156 -23.840  0.00  0.00    -0.154 NA
BRANCH  13  14
ATOM     14  S   UNL d   1      32.185  18.574 -24.467  0.00  0.00     0.291 S 
ATOM     15  O   UNL d   1      31.791  18.086 -25.003  0.00  0.00    -0.198 OA
ATOM     16  O   UNL d   1      32.519  18.990 -25.096  0.00  0.00    -0.198 OA
BRANCH  14  17
ATOM     17  C   UNL d   1      32.577  19.060 -23.927  0.00  0.00     0.135 A 
ATOM     18  S   UNL d   1      32.794  18.991 -23.138  0.00  0.00    -0.073 SA
ATOM     19  C   UNL d   1      33.182  19.689 -22.920  0.00  0.00     0.036 A 
ATOM     20  C   UNL d   1      33.203  20.186 -23.574  0.00  0.00     0.008 A 
ATOM     21  C   UNL d   1      32.828  19.799 -24.202  0.00  0.00     0.020 A 
ENDBRANCH  14  17
ENDBRANCH  13  14
ENDBRANCH   1  13
BRANCH   2  22
ATOM     22  N   UNL d   1      32.131  16.543 -23.637  0.00  0.00    -0.201 NA
ATOM     23  C   UNL d   1      32.319  16.191 -23.115  0.00  0.00     0.082 A 
ATOM     24  C   UNL d   1      33.240  15.861 -22.802  0.00  0.00     0.136 A 
ATOM     25  O   UNL d   1      32.927  15.453 -22.075  0.00  0.00    -0.301 OA
ATOM     26  C   UNL d   1      32.783  15.815 -22.622  0.00  0.00     0.136 A 
ATOM     27  C   UNL d   1      31.808  16.182 -22.981  0.00  0.00     0.082 A 
ENDBRANCH   2  22
TORSDOF 4
ENDMDL
MODEL 2
REMARK VINA RESULT:       1.3      3.856      5.414
REMARK  4 active torsions:
REMARK  status: ('A' for Active; 'I' for Inactive)
REMARK    1  A    between atoms: N_5  and  C_1 
REMARK    2  A    between atoms: S_2  and  N_5 
REMARK    3  A    between atoms: C_7  and  S_2 
REMARK    4  A    between atoms: N_10  and  C_3 
ROOT
ATOM      1  C   UNL d   1      32.851  21.851 -21.737  0.00  0.00     0.146 A 
ATOM      2  C   UNL d   1      33.019  21.149 -22.136  0.00  0.00     0.105 A 
ATOM      3  C   UNL d   1      33.068  21.155 -22.958  0.00  0.00     0.208 A 
ATOM      4  C   UNL d   1      32.733  22.556 -22.152  0.00  0.00     0.215 A 
ATOM      5  C   UNL d   1      32.952  21.848 -23.376  0.00  0.00     0.043 A 
ATOM      6  C   UNL d   1      32.784  22.550 -22.977  0.00  0.00     0.044 A 
ATOM      7  O   UNL d   1      33.237  20.453 -23.357  0.00  0.00    -0.285 OA
ATOM      8  O   UNL d   1      32.565  23.250 -21.739  0.00  0.00    -0.285 OA
ATOM      9  C   UNL d   1      33.001  21.855 -24.197  0.00  0.00     0.003 A 
ATOM     10  C   UNL d   1      32.668  23.242 -23.395  0.00  0.00     0.003 A 
ATOM     11  C   UNL d   1      32.883  22.556 -24.615  0.00  0.00     0.000 A 
ATOM     12  C   UNL d   1      32.717  23.250 -24.216  0.00  0.00     0.000 A 
ENDROOT
BRANCH   1  13
ATOM     13  N   UNL d   1      32.800  21.855 -20.909  0.00  0.00    -0.154 NA
BRANCH  13  14
ATOM     14  S   UNL d   1      32.116  22.122 -20.532  0.00  0.00     0.291 S 
ATOM     15  O   UNL d   1      31.703  22.068 -21.245  0.00  0.00    -0.198 OA
ATOM     16  O   UNL d   1      31.430  22.388 -20.159  0.00  0.00    -0.198 OA
BRANCH  14  17
ATOM     17  C   UNL d   1      32.533  22.174 -19.822  0.00  0.00     0.135 A 
ATOM     18  S   UNL d   1      32.939  21.640 -19.349  0.00  0.00    -0.073 SA
ATOM     19  C   UNL d   1      33.238  22.054 -18.697  0.00  0.00     0.036 A 
ATOM     20  C   UNL d   1      33.015  22.842 -18.770  0.00  0.00     0.008 A 
ATOM     21  C   UNL d   1      32.577  22.921 -19.468  0.00  0.00     0.020 A 
ENDBRANCH  14  17
ENDBRANCH  13  14
ENDBRANCH   1  13
BRANCH   2  22
ATOM     22  N   UNL d   1      33.136  20.452 -21.711  0.00  0.00    -0.201 NA
ATOM     23  C   UNL d   1      33.099  19.823 -21.896  0.00  0.00     0.082 A 
ATOM     24  C   UNL d   1      33.240  18.945 -21.384  0.00  0.00     0.136 A 
ATOM     25  O   UNL d   1      33.072  18.423 -22.086  0.00  0.00    -0.301 OA
ATOM     26  C   UNL d   1      33.121  19.050 -21.851  0.00  0.00     0.136 A 
ATOM     27  C   UNL d   1      32.976  20.008 -22.375  0.00  0.00     0.082 A 
ENDBRANCH   2  22
TORSDOF 4
ENDMDL
MODEL 3
REMARK VINA RESULT:       1.3      3.612      6.290
REMARK  4 active torsions:
REMARK  status: ('A' for Active; 'I' for Inactive)
REMARK    1  A    between atoms: N_5  and  C_1 
REMARK    2  A    between atoms: S_2  and  N_5 
REMARK    3  A    between atoms: C_7  and  S_2 
REMARK    4  A    between atoms: N_10  and  C_3 
ROOT
ATOM      1  C   UNL d   1      32.773  21.563 -21.431  0.00  0.00     0.146 A 
ATOM      2  C   UNL d   1      32.974  22.258 -21.827  0.00  0.00     0.105 A 
ATOM      3  C   UNL d   1      33.006  22.966 -21.408  0.00  0.00     0.208 A 
ATOM      4  C   UNL d   1      32.604  21.572 -20.621  0.00  0.00     0.215 A 
ATOM      5  C   UNL d   1      32.840  22.983 -20.607  0.00  0.00     0.043 A 
ATOM      6  C   UNL d   1      32.639  22.288 -20.211  0.00  0.00     0.044 A 
ATOM      7  O   UNL d   1      33.207  23.661 -21.804  0.00  0.00    -0.285 OA
ATOM      8  O   UNL d   1      32.404  20.869 -20.239  0.00  0.00    -0.285 OA
ATOM      9  C   UNL d   1      32.872  23.690 -20.187  0.00  0.00     0.003 A 
ATOM     10  C   UNL d   1      32.473  22.305 -19.411  0.00  0.00     0.003 A 
ATOM     11  C   UNL d   1      32.704  23.702 -19.380  0.00  0.00     0.000 A 
ATOM     12  C   UNL d   1      32.505  23.012 -18.991  0.00  0.00     0.000 A 
ENDROOT
BRANCH   1  13
ATOM     13  N   UNL d   1      32.738  20.845 -21.844  0.00  0.00    -0.154 NA
BRANCH  13  14
ATOM     14  S   UNL d   1      32.989  20.144 -21.490  0.00  0.00     0.291 S 
ATOM     15  O   UNL d   1      33.177  20.559 -20.802  0.00  0.00    -0.198 OA
ATOM     16  O   UNL d   1      33.241  19.445 -21.131  0.00  0.00    -0.198 OA
BRANCH  14  17
ATOM     17  C   UNL d   1      32.800  19.732 -22.179  0.00  0.00     0.135 A 
ATOM     18  S   UNL d   1      33.232  19.321 -22.744  0.00  0.00    -0.073 SA
ATOM     19  C   UNL d   1      32.700  19.031 -23.309  0.00  0.00     0.036 A 
ATOM     20  C   UNL d   1      31.943  19.265 -23.091  0.00  0.00     0.008 A 
ATOM     21  C   UNL d   1      32.000  19.701 -22.390  0.00  0.00     0.020 A 
ENDBRANCH  14  17
ENDBRANCH  13  14
ENDBRANCH   1  13
BRANCH   2  22
ATOM     22  N   UNL d   1      33.141  22.237 -22.634  0.00  0.00    -0.201 NA
ATOM     23  C   UNL d   1      33.041  22.683 -23.106  0.00  0.00     0.082 A 
ATOM     24  C   UNL d   1      33.241  22.676 -24.113  0.00  0.00     0.136 A 
ATOM     25  O   UNL d   1      32.918  23.494 -24.257  0.00  0.00    -0.301 OA
ATOM     26  C   UNL d   1      33.039  23.008 -23.809  0.00  0.00     0.136 A 
ATOM     27  C   UNL d   1      32.836  22.988 -22.726  0.00  0.00     0.082 A 
ENDBRANCH   2  22
TORSDOF 4
ENDMDL
