MODEL 1
REMARK VINA RESULT:       0.9      0.000      0.000
REMARK  8 active torsions:
REMARK  status: ('A' for Active; 'I' for Inactive)
REMARK       I    between atoms: C_2  and  N_1 
REMARK    1  A    between atoms: C_3  and  N_1 
REMARK    2  A    between atoms: C_4  and  N_1 
REMARK    3  A    between atoms: C_6  and  C_2 
REMARK    4  A    between atoms: C_5  and  C_4 
REMARK    5  A    between atoms: C_7  and  C_5 
REMARK    6  A    between atoms: O_19  and  C_7 
REMARK    7  A    between atoms: C_9  and  O_11 
REMARK    8  A    between atoms: O_11  and  C_16 
ROOT
ATOM      1  N   UNL d   1     -41.652-122.530 -53.140  0.00  0.00    -0.258 N 
ATOM      2  C   UNL d   1     -41.924-123.242 -52.825  0.00  0.00     0.266 C 
ATOM      3  O   UNL d   1     -42.249-123.815 -53.320  0.00  0.00    -0.267 OA
ENDROOT
BRANCH   1   4
ATOM      4  C   UNL d   1     -41.707-122.393 -53.958  0.00  0.00     0.150 A 
ATOM      5  N   UNL d   1     -42.316-121.929 -54.261  0.00  0.00    -0.227 NA
ATOM      6  C   UNL d   1     -42.366-121.796 -55.071  0.00  0.00     0.101 A 
ATOM      7  C   UNL d   1     -41.804-122.129 -55.583  0.00  0.00     0.021 A 
ATOM      8  C   UNL d   1     -41.195-122.593 -55.280  0.00  0.00     0.005 A 
ATOM      9  C   UNL d   1     -41.145-122.726 -54.469  0.00  0.00     0.037 A 
ENDBRANCH   1   4
BRANCH   1  10
ATOM     10  C   UNL d   1     -41.329-121.957 -52.655  0.00  0.00     0.090 C 
BRANCH  10  11
ATOM     11  C   UNL d   1     -41.717-121.224 -52.563  0.00  0.00     0.087 C 
BRANCH  11  12
ATOM     12  C   UNL d   1     -41.325-120.586 -52.221  0.00  0.00     0.297 C 
ATOM     13  O   UNL d   1     -41.128-119.927 -52.679  0.00  0.00    -0.259 OA
BRANCH  12  14
ATOM     14  O   UNL d   1     -41.130-120.604 -51.421  0.00  0.00    -0.296 OA
ATOM     15  C   UNL d   1     -41.195-119.815 -51.167  0.00  0.00     0.185 C 
ENDBRANCH  12  14
ENDBRANCH  11  12
ENDBRANCH  10  11
ENDBRANCH   1  10
BRANCH   2  16
ATOM     16  C   UNL d   1     -41.870-123.377 -52.013  0.00  0.00     0.057 A 
ATOM     17  C   UNL d   1     -41.172-123.680 -51.697  0.00  0.00     0.007 A 
ATOM     18  C   UNL d   1     -41.123-123.813 -50.886  0.00  0.00     0.025 A 
ATOM     19  C   UNL d   1     -41.765-123.645 -50.396  0.00  0.00     0.103 A 
ATOM     20  C   UNL d   1     -42.458-123.343 -50.721  0.00  0.00     0.025 A 
ATOM     21  C   UNL d   1     -42.521-123.204 -51.537  0.00  0.00     0.007 A 
BRANCH  19  22
ATOM     22  O   UNL d   1     -41.715-123.779 -49.585  0.00  0.00    -0.273 OA
BRANCH  22  23
ATOM     23  C   UNL d   1     -42.113-123.283 -49.060  0.00  0.00     0.300 C 
ATOM     24  O   UNL d   1     -42.931-123.341 -48.977  0.00  0.00    -0.259 OA
ATOM     25  C   UNL d   1     -41.688-122.725 -48.614  0.00  0.00     0.074 C 
ENDBRANCH  22  23
ENDBRANCH  19  22
ENDBRANCH   2  16
TORSDOF 8
ENDMDL
MODEL 2
REMARK VINA RESULT:       2.4      1.874      4.580
REMARK  8 active torsions:
REMARK  status: ('A' for Active; 'I' for Inactive)
REMARK       I    between atoms: C_2  and  N_1 
REMARK    1  A    between atoms: C_3  and  N_1 
REMARK    2  A    between atoms: C_4  and  N_1 
REMARK    3  A    between atoms: C_6  and  C_2 
REMARK    4  A    between atoms: C_5  and  C_4 
REMARK    5  A    between atoms: C_7  and  C_5 
REMARK    6  A    between atoms: O_19  and  C_7 
REMARK    7  A    between atoms: C_9  and  O_11 
REMARK    8  A    between atoms: O_11  and  C_16 
ROOT
ATOM      1  N   UNL d   1     -42.269-122.957 -49.637  0.00  0.00    -0.258 N 
ATOM      2  C   UNL d   1     -41.631-123.309 -50.023  0.00  0.00     0.266 C 
ATOM      3  O   UNL d   1     -41.123-123.809 -49.610  0.00  0.00    -0.267 OA
ENDROOT
BRANCH   1   4
ATOM      4  C   UNL d   1     -42.397-123.108 -48.830  0.00  0.00     0.150 A 
ATOM      5  N   UNL d   1     -42.956-123.667 -48.597  0.00  0.00    -0.227 NA
ATOM      6  C   UNL d   1     -43.079-123.814 -47.797  0.00  0.00     0.101 A 
ATOM      7  C   UNL d   1     -42.642-123.400 -47.226  0.00  0.00     0.021 A 
ATOM      8  C   UNL d   1     -42.084-122.842 -47.459  0.00  0.00     0.005 A 
ATOM      9  C   UNL d   1     -41.960-122.694 -48.259  0.00  0.00     0.037 A 
ENDBRANCH   1   4
BRANCH   1  10
ATOM     10  C   UNL d   1     -42.777-122.460 -50.041  0.00  0.00     0.090 C 
BRANCH  10  11
ATOM     11  C   UNL d   1     -43.601-122.578 -49.989  0.00  0.00     0.087 C 
BRANCH  11  12
ATOM     12  C   UNL d   1     -44.118-122.098 -50.413  0.00  0.00     0.297 C 
ATOM     13  O   UNL d   1     -43.891-121.333 -50.626  0.00  0.00    -0.259 OA
BRANCH  12  14
ATOM     14  O   UNL d   1     -44.862-122.381 -50.626  0.00  0.00    -0.296 OA
ATOM     15  C   UNL d   1     -45.346-121.707 -50.661  0.00  0.00     0.185 C 
ENDBRANCH  12  14
ENDBRANCH  11  12
ENDBRANCH  10  11
ENDBRANCH   1  10
BRANCH   2  16
ATOM     16  C   UNL d   1     -41.504-123.158 -50.825  0.00  0.00     0.057 A 
ATOM     17  C   UNL d   1     -41.569-123.772 -51.369  0.00  0.00     0.007 A 
ATOM     18  C   UNL d   1     -41.442-123.617 -52.168  0.00  0.00     0.025 A 
ATOM     19  C   UNL d   1     -41.251-122.854 -52.419  0.00  0.00     0.103 A 
ATOM     20  C   UNL d   1     -41.188-122.246 -51.867  0.00  0.00     0.025 A 
ATOM     21  C   UNL d   1     -41.314-122.390 -51.059  0.00  0.00     0.007 A 
BRANCH  19  22
ATOM     22  O   UNL d   1     -41.124-122.699 -53.218  0.00  0.00    -0.273 OA
BRANCH  22  23
ATOM     23  C   UNL d   1     -41.766-122.623 -53.731  0.00  0.00     0.300 C 
ATOM     24  O   UNL d   1     -42.518-122.858 -53.489  0.00  0.00    -0.259 OA
ATOM     25  C   UNL d   1     -41.651-122.309 -54.491  0.00  0.00     0.074 C 
ENDBRANCH  22  23
ENDBRANCH  19  22
ENDBRANCH   2  16
TORSDOF 8
ENDMDL
