MODEL 1
REMARK VINA RESULT:      53.7      0.000      0.000
REMARK  3 active torsions:
REMARK  status: ('A' for Active; 'I' for Inactive)
REMARK    1  A    between atoms: C_4  and  C_1 
REMARK    2  A    between atoms: C_8  and  C_3 
REMARK    3  A    between atoms: O_20  and  C_16 
ROOT
ATOM      1  C   UNL d   1     -57.894 -99.102 -43.939  0.00  0.00     0.107 A 
ATOM      2  N   UNL d   1     -57.854 -99.088 -43.115  0.00  0.00    -0.148 NA
ATOM      3  C   UNL d   1     -58.675 -98.985 -44.154  0.00  0.00     0.039 A 
ATOM      4  N   UNL d   1     -58.620 -98.961 -42.818  0.00  0.00    -0.148 NA
ATOM      5  C   UNL d   1     -59.141 -98.895 -43.450  0.00  0.00     0.104 A 
ATOM      6  C   UNL d   1     -59.954 -98.767 -43.398  0.00  0.00     0.023 C 
ENDROOT
BRANCH   1   7
ATOM      7  C   UNL d   1     -57.237 -99.216 -44.421  0.00  0.00     0.059 A 
ATOM      8  C   UNL d   1     -56.681 -99.786 -44.230  0.00  0.00     0.200 A 
ATOM      9  C   UNL d   1     -56.025 -99.902 -44.710  0.00  0.00     0.084 A 
ATOM     10  O   UNL d   1     -56.780-100.266 -43.530  0.00  0.00    -0.286 OA
ATOM     11  C   UNL d   1     -55.933 -99.429 -45.396  0.00  0.00     0.199 A 
ATOM     12  C   UNL d   1     -56.487 -98.859 -45.587  0.00  0.00     0.042 A 
ATOM     13  O   UNL d   1     -55.258 -99.533 -45.908  0.00  0.00    -0.286 OA
ATOM     14  C   UNL d   1     -57.144 -98.758 -45.088  0.00  0.00     0.008 A 
ENDBRANCH   1   7
BRANCH   3  15
ATOM     15  C   UNL d   1     -58.891 -98.971 -44.979  0.00  0.00     0.003 A 
ATOM     16  C   UNL d   1     -58.341 -98.768 -45.556  0.00  0.00     0.002 A 
ATOM     17  C   UNL d   1     -58.572 -98.759 -46.366  0.00  0.00     0.024 A 
ATOM     18  C   UNL d   1     -59.342 -98.955 -46.562  0.00  0.00     0.094 A 
ATOM     19  C   UNL d   1     -59.911 -99.163 -45.989  0.00  0.00     0.024 A 
ATOM     20  C   UNL d   1     -59.681 -99.171 -45.179  0.00  0.00     0.002 A 
BRANCH  18  21
ATOM     21  O   UNL d   1     -59.572 -98.946 -47.373  0.00  0.00    -0.328 OA
ATOM     22  C   UNL d   1     -58.999 -98.755 -47.951  0.00  0.00     0.181 C 
ENDBRANCH  18  21
ENDBRANCH   3  15
TORSDOF 3
ENDMDL
