MODEL 1
REMARK VINA RESULT:      46.8      0.000      0.000
REMARK  6 active torsions:
REMARK  status: ('A' for Active; 'I' for Inactive)
REMARK    1  A    between atoms: C_4  and  C_1 
REMARK       I    between atoms: N_6  and  C_1 
REMARK    2  A    between atoms: C_7  and  C_4 
REMARK    3  A    between atoms: O_20  and  C_5 
REMARK    4  A    between atoms: C_8  and  N_6 
REMARK    5  A    between atoms: C_13  and  C_7 
REMARK    6  A    between atoms: O_21  and  C_10 
ROOT
ATOM      1  C   UNL d   1     -54.725-102.117 -41.808  0.00  0.00     0.076 C 
ENDROOT
BRANCH   1   2
ATOM      2  C   UNL d   1     -54.865-102.135 -42.600  0.00  0.00     0.328 C 
ATOM      3  N   UNL d   1     -55.145-101.468 -42.999  0.00  0.00    -0.365 NA
ATOM      4  O   UNL d   1     -54.728-102.830 -43.029  0.00  0.00    -0.251 OA
BRANCH   3   5
ATOM      5  C   UNL d   1     -55.429-100.784 -43.394  0.00  0.00     0.136 A 
ATOM      6  C   UNL d   1     -54.927-100.151 -43.538  0.00  0.00     0.044 A 
ATOM      7  C   UNL d   1     -55.207 -99.456 -43.937  0.00  0.00     0.071 A 
ATOM      8 CL   UNL d   1     -54.712 -98.832 -44.080  0.00  0.00    -0.081 Cl
ATOM      9  C   UNL d   1     -56.003 -99.442 -44.172  0.00  0.00     0.069 A 
ATOM     10  C   UNL d   1     -56.505-100.075 -44.027  0.00  0.00     0.015 A 
ATOM     11 CL   UNL d   1     -56.265 -98.760 -44.560  0.00  0.00    -0.082 Cl
ATOM     12  C   UNL d   1     -56.234-100.751 -43.641  0.00  0.00     0.033 A 
ENDBRANCH   3   5
ENDBRANCH   1   2
BRANCH   1  13
ATOM     13  C   UNL d   1     -54.743-102.818 -41.364  0.00  0.00     0.006 C 
BRANCH  13  14
ATOM     14  C   UNL d   1     -55.151-102.833 -40.647  0.00  0.00     0.002 A 
ATOM     15  C   UNL d   1     -55.973-102.821 -40.620  0.00  0.00     0.026 A 
ATOM     16  C   UNL d   1     -56.370-102.836 -39.897  0.00  0.00     0.116 A 
ATOM     17  C   UNL d   1     -55.949-102.863 -39.193  0.00  0.00     0.116 A 
ATOM     18  C   UNL d   1     -55.111-102.875 -39.206  0.00  0.00     0.026 A 
ATOM     19  C   UNL d   1     -54.714-102.860 -39.929  0.00  0.00     0.002 A 
BRANCH  16  20
ATOM     20  O   UNL d   1     -57.205-102.823 -39.881  0.00  0.00    -0.326 OA
ATOM     21  C   UNL d   1     -57.600-102.878 -39.164  0.00  0.00     0.181 C 
ENDBRANCH  16  20
BRANCH  17  22
ATOM     22  O   UNL d   1     -56.344-102.877 -38.473  0.00  0.00    -0.326 OA
ATOM     23  C   UNL d   1     -55.974-102.553 -37.800  0.00  0.00     0.181 C 
ENDBRANCH  17  22
ENDBRANCH  13  14
ENDBRANCH   1  13
TORSDOF 6
ENDMDL
