MODEL 1
REMARK VINA RESULT:      -3.0      0.000      0.000
REMARK  4 active torsions:
REMARK  status: ('A' for Active; 'I' for Inactive)
REMARK    1  A    between atoms: C_5  and  C_2 
REMARK    2  A    between atoms: C_7  and  C_5 
REMARK       I    between atoms: N_9  and  C_7 
REMARK    3  A    between atoms: C_8  and  C_10 
REMARK    4  A    between atoms: C_17  and  N_9 
ROOT
ATOM      1  C   UNL d   1      32.993  19.691 -22.655  0.00  0.00     0.280 C 
ATOM      2  N   UNL d   1      33.145  19.453 -23.426  0.00  0.00    -0.208 NA
ATOM      3  O   UNL d   1      32.594  19.189 -22.140  0.00  0.00    -0.265 OA
ENDROOT
BRANCH   1   4
ATOM      4  C   UNL d   1      33.240  20.437 -22.393  0.00  0.00     0.074 C 
BRANCH   4   5
ATOM      5  C   UNL d   1      32.869  21.009 -21.940  0.00  0.00     0.097 A 
ATOM      6  C   UNL d   1      32.864  21.820 -22.092  0.00  0.00     0.288 A 
ATOM      7  N   UNL d   1      32.428  22.191 -21.502  0.00  0.00    -0.163 NA
ATOM      8  O   UNL d   1      33.236  22.185 -22.729  0.00  0.00    -0.265 OA
ATOM      9  C   UNL d   1      32.160  21.611 -20.980  0.00  0.00     0.313 A 
ATOM     10  S   UNL d   1      32.431  20.882 -21.249  0.00  0.00    -0.021 SA
ATOM     11  O   UNL d   1      31.704  21.733 -20.310  0.00  0.00    -0.258 OA
ENDBRANCH   4   5
ENDBRANCH   1   4
BRANCH   2  12
ATOM     12  C   UNL d   1      32.823  18.694 -23.485  0.00  0.00     0.085 A 
ATOM     13  C   UNL d   1      33.189  18.065 -23.114  0.00  0.00     0.019 A 
ATOM     14  C   UNL d   1      32.872  17.304 -23.170  0.00  0.00     0.008 A 
ATOM     15  C   UNL d   1      32.176  17.179 -23.607  0.00  0.00     0.065 A 
ATOM     16  C   UNL d   1      31.805  17.823 -23.984  0.00  0.00     0.008 A 
ATOM     17  C   UNL d   1      32.130  18.575 -23.921  0.00  0.00     0.019 A 
BRANCH  15  18
ATOM     18  C   UNL d   1      31.856  16.425 -23.665  0.00  0.00     0.211 C 
ATOM     19  O   UNL d   1      32.355  15.769 -23.708  0.00  0.00    -0.644 OA
ATOM     20  O   UNL d   1      31.038  16.320 -23.681  0.00  0.00    -0.644 OA
ENDBRANCH  15  18
ENDBRANCH   2  12
TORSDOF 4
ENDMDL
MODEL 2
REMARK VINA RESULT:      -2.7      1.515      4.719
REMARK  4 active torsions:
REMARK  status: ('A' for Active; 'I' for Inactive)
REMARK    1  A    between atoms: C_5  and  C_2 
REMARK    2  A    between atoms: C_7  and  C_5 
REMARK       I    between atoms: N_9  and  C_7 
REMARK    3  A    between atoms: C_8  and  C_10 
REMARK    4  A    between atoms: C_17  and  N_9 
ROOT
ATOM      1  C   UNL d   1      33.055  19.808 -22.431  0.00  0.00     0.280 C 
ATOM      2  N   UNL d   1      32.993  19.921 -21.620  0.00  0.00    -0.208 NA
ATOM      3  O   UNL d   1      32.933  20.439 -22.945  0.00  0.00    -0.265 OA
ENDROOT
BRANCH   1   4
ATOM      4  C   UNL d   1      33.241  19.060 -22.735  0.00  0.00     0.074 C 
BRANCH   4   5
ATOM      5  C   UNL d   1      32.838  18.560 -23.244  0.00  0.00     0.097 A 
ATOM      6  C   UNL d   1      32.747  17.746 -23.151  0.00  0.00     0.288 A 
ATOM      7  N   UNL d   1      32.307  17.461 -23.783  0.00  0.00    -0.163 NA
ATOM      8  O   UNL d   1      33.051  17.303 -22.527  0.00  0.00    -0.265 OA
ATOM      9  C   UNL d   1      32.121  18.099 -24.273  0.00  0.00     0.313 A 
ATOM     10  S   UNL d   1      32.448  18.777 -23.941  0.00  0.00    -0.021 SA
ATOM     11  O   UNL d   1      31.688  18.069 -24.968  0.00  0.00    -0.258 OA
ENDBRANCH   4   5
ENDBRANCH   1   4
BRANCH   2  12
ATOM     12  C   UNL d   1      32.805  20.719 -21.526  0.00  0.00     0.085 A 
ATOM     13  C   UNL d   1      33.241  21.291 -21.915  0.00  0.00     0.019 A 
ATOM     14  C   UNL d   1      33.057  22.091 -21.825  0.00  0.00     0.008 A 
ATOM     15  C   UNL d   1      32.424  22.316 -21.335  0.00  0.00     0.065 A 
ATOM     16  C   UNL d   1      31.982  21.730 -20.941  0.00  0.00     0.008 A 
ATOM     17  C   UNL d   1      32.173  20.938 -21.038  0.00  0.00     0.019 A 
BRANCH  15  18
ATOM     18  C   UNL d   1      32.237  23.109 -21.242  0.00  0.00     0.211 C 
ATOM     19  O   UNL d   1      32.633  23.562 -20.676  0.00  0.00    -0.644 OA
ATOM     20  O   UNL d   1      31.655  23.458 -21.712  0.00  0.00    -0.644 OA
ENDBRANCH  15  18
ENDBRANCH   2  12
TORSDOF 4
ENDMDL
MODEL 3
REMARK VINA RESULT:      -2.6      2.375      3.706
REMARK  4 active torsions:
REMARK  status: ('A' for Active; 'I' for Inactive)
REMARK    1  A    between atoms: C_5  and  C_2 
REMARK    2  A    between atoms: C_7  and  C_5 
REMARK       I    between atoms: N_9  and  C_7 
REMARK    3  A    between atoms: C_8  and  C_10 
REMARK    4  A    between atoms: C_17  and  N_9 
ROOT
ATOM      1  C   UNL d   1      31.732  16.911 -23.880  0.00  0.00     0.280 C 
ATOM      2  N   UNL d   1      31.659  16.094 -23.915  0.00  0.00    -0.208 NA
ATOM      3  O   UNL d   1      31.061  17.387 -23.915  0.00  0.00    -0.265 OA
ENDROOT
BRANCH   1   4
ATOM      4  C   UNL d   1      32.480  17.260 -23.809  0.00  0.00     0.074 C 
BRANCH   4   5
ATOM      5  C   UNL d   1      32.734  18.034 -23.896  0.00  0.00     0.097 A 
ATOM      6  C   UNL d   1      33.062  18.506 -23.304  0.00  0.00     0.288 A 
ATOM      7  N   UNL d   1      33.238  19.241 -23.627  0.00  0.00    -0.163 NA
ATOM      8  O   UNL d   1      33.188  18.271 -22.525  0.00  0.00    -0.265 OA
ATOM      9  C   UNL d   1      33.019  19.229 -24.424  0.00  0.00     0.313 A 
ATOM     10  S   UNL d   1      32.708  18.485 -24.589  0.00  0.00    -0.021 SA
ATOM     11  O   UNL d   1      33.096  19.844 -24.958  0.00  0.00    -0.258 OA
ENDBRANCH   4   5
ENDBRANCH   1   4
BRANCH   2  12
ATOM     12  C   UNL d   1      30.848  15.952 -23.983  0.00  0.00     0.085 A 
ATOM     13  C   UNL d   1      30.386  15.891 -23.312  0.00  0.00     0.019 A 
ATOM     14  C   UNL d   1      29.575  15.749 -23.375  0.00  0.00     0.008 A 
ATOM     15  C   UNL d   1      29.227  15.669 -24.126  0.00  0.00     0.065 A 
ATOM     16  C   UNL d   1      29.702  15.732 -24.808  0.00  0.00     0.008 A 
ATOM     17  C   UNL d   1      30.507  15.873 -24.733  0.00  0.00     0.019 A 
BRANCH  15  18
ATOM     18  C   UNL d   1      28.421  15.528 -24.194  0.00  0.00     0.211 C 
ATOM     19  O   UNL d   1      28.078  15.453 -24.941  0.00  0.00    -0.644 OA
ATOM     20  O   UNL d   1      27.952  15.461 -23.518  0.00  0.00    -0.644 OA
ENDBRANCH  15  18
ENDBRANCH   2  12
TORSDOF 4
ENDMDL
MODEL 4
REMARK VINA RESULT:      -2.5      1.998      4.701
REMARK  4 active torsions:
REMARK  status: ('A' for Active; 'I' for Inactive)
REMARK    1  A    between atoms: C_5  and  C_2 
REMARK    2  A    between atoms: C_7  and  C_5 
REMARK       I    between atoms: N_9  and  C_7 
REMARK    3  A    between atoms: C_8  and  C_10 
REMARK    4  A    between atoms: C_17  and  N_9 
ROOT
ATOM      1  C   UNL d   1      32.435  17.824 -24.074  0.00  0.00     0.280 C 
ATOM      2  N   UNL d   1      33.191  18.144 -24.082  0.00  0.00    -0.208 NA
ATOM      3  O   UNL d   1      31.877  18.099 -23.534  0.00  0.00    -0.265 OA
ENDROOT
BRANCH   1   4
ATOM      4  C   UNL d   1      32.230  17.225 -24.608  0.00  0.00     0.074 C 
BRANCH   4   5
ATOM      5  C   UNL d   1      31.619  16.679 -24.610  0.00  0.00     0.097 A 
ATOM      6  C   UNL d   1      31.702  15.861 -24.675  0.00  0.00     0.288 A 
ATOM      7  N   UNL d   1      30.953  15.523 -24.653  0.00  0.00    -0.163 NA
ATOM      8  O   UNL d   1      32.417  15.460 -24.748  0.00  0.00    -0.265 OA
ATOM      9  C   UNL d   1      30.400  16.131 -24.575  0.00  0.00     0.313 A 
ATOM     10  S   UNL d   1      30.811  16.844 -24.548  0.00  0.00    -0.021 SA
ATOM     11  O   UNL d   1      29.587  16.047 -24.531  0.00  0.00    -0.258 OA
ENDBRANCH   4   5
ENDBRANCH   1   4
BRANCH   2  12
ATOM     12  C   UNL d   1      33.191  18.715 -23.485  0.00  0.00     0.085 A 
ATOM     13  C   UNL d   1      33.241  18.488 -22.702  0.00  0.00     0.019 A 
ATOM     14  C   UNL d   1      33.241  19.055 -22.101  0.00  0.00     0.008 A 
ATOM     15  C   UNL d   1      33.189  19.862 -22.295  0.00  0.00     0.065 A 
ATOM     16  C   UNL d   1      33.138  20.089 -23.095  0.00  0.00     0.008 A 
ATOM     17  C   UNL d   1      33.139  19.517 -23.684  0.00  0.00     0.019 A 
BRANCH  15  18
ATOM     18  C   UNL d   1      33.189  20.429 -21.702  0.00  0.00     0.211 C 
ATOM     19  O   UNL d   1      33.204  20.196 -20.910  0.00  0.00    -0.644 OA
ATOM     20  O   UNL d   1      33.174  21.232 -21.894  0.00  0.00    -0.644 OA
ENDBRANCH  15  18
ENDBRANCH   2  12
TORSDOF 4
ENDMDL
MODEL 5
REMARK VINA RESULT:      -2.3      2.645      4.966
REMARK  4 active torsions:
REMARK  status: ('A' for Active; 'I' for Inactive)
REMARK    1  A    between atoms: C_5  and  C_2 
REMARK    2  A    between atoms: C_7  and  C_5 
REMARK       I    between atoms: N_9  and  C_7 
REMARK    3  A    between atoms: C_8  and  C_10 
REMARK    4  A    between atoms: C_17  and  N_9 
ROOT
ATOM      1  C   UNL d   1      31.392  16.779 -23.774  0.00  0.00     0.280 C 
ATOM      2  N   UNL d   1      32.213  16.766 -23.810  0.00  0.00    -0.208 NA
ATOM      3  O   UNL d   1      30.992  17.498 -23.756  0.00  0.00    -0.265 OA
ENDROOT
BRANCH   1   4
ATOM      4  C   UNL d   1      30.965  16.070 -23.755  0.00  0.00     0.074 C 
BRANCH   4   5
ATOM      5  C   UNL d   1      30.161  15.913 -23.790  0.00  0.00     0.097 A 
ATOM      6  C   UNL d   1      29.697  15.628 -23.171  0.00  0.00     0.288 A 
ATOM      7  N   UNL d   1      28.924  15.550 -23.443  0.00  0.00    -0.163 NA
ATOM      8  O   UNL d   1      29.969  15.453 -22.415  0.00  0.00    -0.265 OA
ATOM      9  C   UNL d   1      28.907  15.788 -24.233  0.00  0.00     0.313 A 
ATOM     10  S   UNL d   1      29.669  16.012 -24.447  0.00  0.00    -0.021 SA
ATOM     11  O   UNL d   1      28.250  15.802 -24.722  0.00  0.00    -0.258 OA
ENDBRANCH   4   5
ENDBRANCH   1   4
BRANCH   2  12
ATOM     12  C   UNL d   1      32.441  17.560 -23.820  0.00  0.00     0.085 A 
ATOM     13  C   UNL d   1      32.710  17.899 -24.513  0.00  0.00     0.019 A 
ATOM     14  C   UNL d   1      32.939  18.693 -24.528  0.00  0.00     0.008 A 
ATOM     15  C   UNL d   1      32.896  19.148 -23.834  0.00  0.00     0.065 A 
ATOM     16  C   UNL d   1      32.621  18.798 -23.130  0.00  0.00     0.008 A 
ATOM     17  C   UNL d   1      32.396  18.009 -23.126  0.00  0.00     0.019 A 
BRANCH  15  18
ATOM     18  C   UNL d   1      33.123  19.937 -23.844  0.00  0.00     0.211 C 
ATOM     19  O   UNL d   1      33.234  20.324 -24.564  0.00  0.00    -0.644 OA
ATOM     20  O   UNL d   1      33.240  20.345 -23.136  0.00  0.00    -0.644 OA
ENDBRANCH  15  18
ENDBRANCH   2  12
TORSDOF 4
ENDMDL
MODEL 6
REMARK VINA RESULT:      -1.9      1.270      1.780
REMARK  4 active torsions:
REMARK  status: ('A' for Active; 'I' for Inactive)
REMARK    1  A    between atoms: C_5  and  C_2 
REMARK    2  A    between atoms: C_7  and  C_5 
REMARK       I    between atoms: N_9  and  C_7 
REMARK    3  A    between atoms: C_8  and  C_10 
REMARK    4  A    between atoms: C_17  and  N_9 
ROOT
ATOM      1  C   UNL d   1      32.573  20.287 -21.826  0.00  0.00     0.280 C 
ATOM      2  N   UNL d   1      33.238  19.835 -21.994  0.00  0.00    -0.208 NA
ATOM      3  O   UNL d   1      31.898  20.215 -22.291  0.00  0.00    -0.265 OA
ENDROOT
BRANCH   1   4
ATOM      4  C   UNL d   1      32.579  20.816 -21.189  0.00  0.00     0.074 C 
BRANCH   4   5
ATOM      5  C   UNL d   1      32.619  21.633 -21.156  0.00  0.00     0.097 A 
ATOM      6  C   UNL d   1      32.778  22.083 -20.483  0.00  0.00     0.288 A 
ATOM      7  N   UNL d   1      32.766  22.878 -20.695  0.00  0.00    -0.163 NA
ATOM      8  O   UNL d   1      32.922  21.780 -19.732  0.00  0.00    -0.265 OA
ATOM      9  C   UNL d   1      32.599  22.924 -21.502  0.00  0.00     0.313 A 
ATOM     10  S   UNL d   1      32.509  22.157 -21.787  0.00  0.00    -0.021 SA
ATOM     11  O   UNL d   1      32.534  23.609 -21.947  0.00  0.00    -0.258 OA
ENDBRANCH   4   5
ENDBRANCH   1   4
BRANCH   2  12
ATOM     12  C   UNL d   1      33.031  19.382 -22.653  0.00  0.00     0.085 A 
ATOM     13  C   UNL d   1      33.235  19.634 -23.403  0.00  0.00     0.019 A 
ATOM     14  C   UNL d   1      33.031  19.186 -24.065  0.00  0.00     0.008 A 
ATOM     15  C   UNL d   1      32.614  18.473 -23.968  0.00  0.00     0.065 A 
ATOM     16  C   UNL d   1      32.407  18.219 -23.201  0.00  0.00     0.008 A 
ATOM     17  C   UNL d   1      32.616  18.673 -22.550  0.00  0.00     0.019 A 
BRANCH  15  18
ATOM     18  C   UNL d   1      32.408  18.023 -24.623  0.00  0.00     0.211 C 
ATOM     19  O   UNL d   1      31.766  18.248 -25.091  0.00  0.00    -0.644 OA
ATOM     20  O   UNL d   1      32.840  17.347 -24.816  0.00  0.00    -0.644 OA
ENDBRANCH  15  18
ENDBRANCH   2  12
TORSDOF 4
ENDMDL
MODEL 7
REMARK VINA RESULT:      -1.5      1.488      2.079
REMARK  4 active torsions:
REMARK  status: ('A' for Active; 'I' for Inactive)
REMARK    1  A    between atoms: C_5  and  C_2 
REMARK    2  A    between atoms: C_7  and  C_5 
REMARK       I    between atoms: N_9  and  C_7 
REMARK    3  A    between atoms: C_8  and  C_10 
REMARK    4  A    between atoms: C_17  and  N_9 
ROOT
ATOM      1  C   UNL d   1      32.439  18.208 -23.325  0.00  0.00     0.280 C 
ATOM      2  N   UNL d   1      32.541  17.396 -23.396  0.00  0.00    -0.208 NA
ATOM      3  O   UNL d   1      31.727  18.555 -23.547  0.00  0.00    -0.265 OA
ENDROOT
BRANCH   1   4
ATOM      4  C   UNL d   1      33.052  18.679 -23.029  0.00  0.00     0.074 C 
BRANCH   4   5
ATOM      5  C   UNL d   1      33.063  19.446 -22.739  0.00  0.00     0.097 A 
ATOM      6  C   UNL d   1      33.150  20.132 -23.187  0.00  0.00     0.288 A 
ATOM      7  N   UNL d   1      33.130  20.778 -22.679  0.00  0.00    -0.163 NA
ATOM      8  O   UNL d   1      33.241  20.156 -24.005  0.00  0.00    -0.265 OA
ATOM      9  C   UNL d   1      33.029  20.494 -21.910  0.00  0.00     0.313 A 
ATOM     10  S   UNL d   1      32.988  19.673 -21.947  0.00  0.00    -0.021 SA
ATOM     11  O   UNL d   1      32.979  20.945 -21.228  0.00  0.00    -0.258 OA
ENDBRANCH   4   5
ENDBRANCH   1   4
BRANCH   2  12
ATOM     12  C   UNL d   1      31.827  17.116 -23.705  0.00  0.00     0.085 A 
ATOM     13  C   UNL d   1      31.636  17.257 -24.486  0.00  0.00     0.019 A 
ATOM     14  C   UNL d   1      30.924  16.979 -24.799  0.00  0.00     0.008 A 
ATOM     15  C   UNL d   1      30.399  16.552 -24.316  0.00  0.00     0.065 A 
ATOM     16  C   UNL d   1      30.598  16.410 -23.519  0.00  0.00     0.008 A 
ATOM     17  C   UNL d   1      31.309  16.691 -23.218  0.00  0.00     0.019 A 
BRANCH  15  18
ATOM     18  C   UNL d   1      29.691  16.274 -24.622  0.00  0.00     0.211 C 
ATOM     19  O   UNL d   1      29.684  15.597 -25.094  0.00  0.00    -0.644 OA
ATOM     20  O   UNL d   1      28.983  16.668 -24.460  0.00  0.00    -0.644 OA
ENDBRANCH  15  18
ENDBRANCH   2  12
TORSDOF 4
ENDMDL
