MODEL 1
REMARK VINA RESULT:      43.1      0.000      0.000
REMARK  6 active torsions:
REMARK  status: ('A' for Active; 'I' for Inactive)
REMARK    1  A    between atoms: N_2  and  S_1 
REMARK    2  A    between atoms: C_3  and  S_1 
REMARK    3  A    between atoms: C_7  and  N_2 
REMARK    4  A    between atoms: C_10  and  C_7 
REMARK    5  A    between atoms: O_14  and  C_11 
REMARK    6  A    between atoms: C_17  and  O_14 
ROOT
ATOM      1  S   UNL d   1     -49.860  27.301  33.729  0.00  0.00     0.285 S 
ATOM      2  O   UNL d   1     -49.255  26.882  34.101  0.00  0.00    -0.198 OA
ATOM      3  O   UNL d   1     -50.466  27.721  33.358  0.00  0.00    -0.198 OA
ENDROOT
BRANCH   1   4
ATOM      4  N   UNL d   1     -49.439  28.003  33.835  0.00  0.00    -0.155 NA
BRANCH   4   5
ATOM      5  C   UNL d   1     -48.734  28.001  34.260  0.00  0.00     0.131 C 
BRANCH   5   6
ATOM      6  C   UNL d   1     -48.460  28.697  34.610  0.00  0.00     0.101 A 
ATOM      7  N   UNL d   1     -48.751  29.425  34.361  0.00  0.00    -0.242 NA
ATOM      8  C   UNL d   1     -48.478  30.121  34.711  0.00  0.00     0.099 A 
ATOM      9  C   UNL d   1     -47.913  30.087  35.310  0.00  0.00     0.021 A 
ATOM     10  C   UNL d   1     -47.618  29.353  35.562  0.00  0.00     0.003 A 
ATOM     11  C   UNL d   1     -47.891  28.658  35.212  0.00  0.00     0.021 A 
ENDBRANCH   5   6
ENDBRANCH   4   5
ENDBRANCH   1   4
BRANCH   1  12
ATOM     12  C   UNL d   1     -50.281  26.600  33.624  0.00  0.00     0.105 A 
ATOM     13  C   UNL d   1     -49.885  25.908  33.423  0.00  0.00     0.015 A 
ATOM     14  C   UNL d   1     -50.306  25.206  33.318  0.00  0.00     0.025 A 
ATOM     15  C   UNL d   1     -51.123  25.196  33.413  0.00  0.00     0.100 A 
ATOM     16  C   UNL d   1     -51.520  25.890  33.614  0.00  0.00     0.025 A 
ATOM     17  C   UNL d   1     -51.095  26.598  33.721  0.00  0.00     0.015 A 
BRANCH  15  18
ATOM     18  O   UNL d   1     -51.544  24.495  33.308  0.00  0.00    -0.305 OA
BRANCH  18  19
ATOM     19  C   UNL d   1     -52.367  24.504  33.307  0.00  0.00     0.123 C 
ATOM     20  C   UNL d   1     -52.788  23.796  33.344  0.00  0.00     0.029 C 
ENDBRANCH  18  19
ENDBRANCH  15  18
ENDBRANCH   1  12
TORSDOF 6
ENDMDL
MODEL 2
REMARK VINA RESULT:      44.4      1.410      4.884
REMARK  6 active torsions:
REMARK  status: ('A' for Active; 'I' for Inactive)
REMARK    1  A    between atoms: N_2  and  S_1 
REMARK    2  A    between atoms: C_3  and  S_1 
REMARK    3  A    between atoms: C_7  and  N_2 
REMARK    4  A    between atoms: C_10  and  C_7 
REMARK    5  A    between atoms: O_14  and  C_11 
REMARK    6  A    between atoms: C_17  and  O_14 
ROOT
ATOM      1  S   UNL d   1     -50.255  26.658  33.533  0.00  0.00     0.285 S 
ATOM      2  O   UNL d   1     -49.636  26.139  33.700  0.00  0.00    -0.198 OA
ATOM      3  O   UNL d   1     -50.874  27.178  33.367  0.00  0.00    -0.198 OA
ENDROOT
BRANCH   1   4
ATOM      4  N   UNL d   1     -50.729  26.022  33.309  0.00  0.00    -0.155 NA
BRANCH   4   5
ATOM      5  C   UNL d   1     -50.957  25.460  33.867  0.00  0.00     0.131 C 
BRANCH   5   6
ATOM      6  C   UNL d   1     -51.537  24.903  33.680  0.00  0.00     0.101 A 
ATOM      7  N   UNL d   1     -52.330  25.126  33.661  0.00  0.00    -0.242 NA
ATOM      8  C   UNL d   1     -52.910  24.569  33.474  0.00  0.00     0.099 A 
ATOM      9  C   UNL d   1     -52.697  23.791  33.307  0.00  0.00     0.021 A 
ATOM     10  C   UNL d   1     -51.899  23.565  33.326  0.00  0.00     0.003 A 
ATOM     11  C   UNL d   1     -51.319  24.121  33.513  0.00  0.00     0.021 A 
ENDBRANCH   5   6
ENDBRANCH   4   5
ENDBRANCH   1   4
BRANCH   1  12
ATOM     12  C   UNL d   1     -49.780  27.295  33.758  0.00  0.00     0.105 A 
ATOM     13  C   UNL d   1     -49.146  27.176  34.268  0.00  0.00     0.015 A 
ATOM     14  C   UNL d   1     -48.671  27.813  34.492  0.00  0.00     0.025 A 
ATOM     15  C   UNL d   1     -48.831  28.568  34.207  0.00  0.00     0.100 A 
ATOM     16  C   UNL d   1     -49.467  28.686  33.696  0.00  0.00     0.025 A 
ATOM     17  C   UNL d   1     -49.946  28.044  33.469  0.00  0.00     0.015 A 
BRANCH  15  18
ATOM     18  O   UNL d   1     -48.357  29.204  34.431  0.00  0.00    -0.305 OA
BRANCH  18  19
ATOM     19  C   UNL d   1     -48.235  29.367  35.228  0.00  0.00     0.123 C 
ATOM     20  C   UNL d   1     -47.471  29.497  35.512  0.00  0.00     0.029 C 
ENDBRANCH  18  19
ENDBRANCH  15  18
ENDBRANCH   1  12
TORSDOF 6
ENDMDL
