MODEL 1
REMARK VINA RESULT:      34.6      0.000      0.000
REMARK  1 active torsions:
REMARK  status: ('A' for Active; 'I' for Inactive)
REMARK    1  A    between atoms: C_9  and  N_4 
ROOT
ATOM      1  C   UNL d   1      58.998  49.707  50.131  0.00  0.00     0.096 A 
ATOM      2  C   UNL d   1      58.469  49.707  50.753  0.00  0.00     0.109 A 
ATOM      3  N   UNL d   1      58.893  49.707  51.455  0.00  0.00    -0.162 NA
ATOM      4  N   UNL d   1      59.694  49.707  51.256  0.00  0.00    -0.195 N 
ATOM      5  C   UNL d   1      59.753  49.707  50.442  0.00  0.00     0.283 A 
ATOM      6  C   UNL d   1      58.722  49.708  49.346  0.00  0.00     0.105 A 
ATOM      7  C   UNL d   1      57.663  49.708  50.602  0.00  0.00     0.037 A 
ATOM      8  N   UNL d   1      57.915  49.708  49.198  0.00  0.00    -0.244 NA
ATOM      9  C   UNL d   1      57.378  49.708  49.827  0.00  0.00     0.083 A 
ATOM     10  O   UNL d   1      60.457  49.707  50.010  0.00  0.00    -0.265 OA
ATOM     11  C   UNL d   1      57.127  49.708  51.228  0.00  0.00     0.003 A 
ATOM     12  C   UNL d   1      56.564  49.708  49.681  0.00  0.00     0.019 A 
ATOM     13  C   UNL d   1      56.314  49.708  51.074  0.00  0.00     0.000 A 
ATOM     14  C   UNL d   1      56.035  49.708  50.307  0.00  0.00     0.002 A 
ENDROOT
BRANCH   4  15
ATOM     15  C   UNL d   1      60.327  49.707  51.786  0.00  0.00     0.086 A 
ATOM     16  C   UNL d   1      60.181  49.707  52.600  0.00  0.00     0.020 A 
ATOM     17  C   UNL d   1      60.804  49.706  53.128  0.00  0.00     0.013 A 
ATOM     18  C   UNL d   1      61.582  49.706  52.851  0.00  0.00     0.058 A 
ATOM     19  C   UNL d   1      61.728  49.707  52.037  0.00  0.00     0.013 A 
ATOM     20 CL   UNL d   1      62.206  49.706  53.371  0.00  0.00    -0.082 Cl
ATOM     21  C   UNL d   1      61.110  49.707  51.510  0.00  0.00     0.020 A 
ENDBRANCH   4  15
TORSDOF 1
ENDMDL
