MODEL 1
REMARK VINA RESULT:      -4.8      0.000      0.000
REMARK  3 active torsions:
REMARK  status: ('A' for Active; 'I' for Inactive)
REMARK    1  A    between atoms: C_4  and  C_1 
REMARK    2  A    between atoms: C_7  and  C_4 
REMARK    3  A    between atoms: C_10  and  C_7 
ROOT
ATOM      1  C   UNL d   1     -42.353-123.567 -49.337  0.00  0.00     0.062 A 
ATOM      2  C   UNL d   1     -43.168-123.670 -49.264  0.00  0.00     0.279 A 
ATOM      3  N   UNL d   1     -43.363-123.601 -48.467  0.00  0.00    -0.208 NA
ATOM      4  C   UNL d   1     -42.047-123.435 -48.585  0.00  0.00     0.022 A 
ATOM      5  C   UNL d   1     -42.666-123.455 -48.048  0.00  0.00     0.085 A 
ATOM      6  O   UNL d   1     -43.698-123.816 -49.878  0.00  0.00    -0.265 OA
ATOM      7  C   UNL d   1     -41.274-123.299 -48.328  0.00  0.00     0.002 A 
ATOM      8  C   UNL d   1     -42.514-123.338 -47.241  0.00  0.00     0.019 A 
ATOM      9  C   UNL d   1     -41.122-123.182 -47.521  0.00  0.00     0.000 A 
ATOM     10  C   UNL d   1     -41.748-123.202 -46.984  0.00  0.00     0.002 A 
ENDROOT
BRANCH   1  11
ATOM     11  C   UNL d   1     -41.923-123.593 -50.039  0.00  0.00     0.047 C 
BRANCH  11  12
ATOM     12  C   UNL d   1     -42.184-122.968 -50.515  0.00  0.00     0.196 C 
ATOM     13  O   UNL d   1     -42.789-122.478 -50.256  0.00  0.00    -0.287 OA
BRANCH  12  14
ATOM     14  C   UNL d   1     -41.831-122.843 -51.250  0.00  0.00     0.039 A 
ATOM     15  C   UNL d   1     -41.715-122.075 -51.528  0.00  0.00     0.003 A 
ATOM     16  C   UNL d   1     -41.365-121.944 -52.258  0.00  0.00     0.000 A 
ATOM     17  C   UNL d   1     -41.125-122.586 -52.723  0.00  0.00     0.000 A 
ATOM     18  C   UNL d   1     -41.241-123.354 -52.446  0.00  0.00     0.000 A 
ATOM     19  C   UNL d   1     -41.592-123.487 -51.713  0.00  0.00     0.003 A 
ENDBRANCH  12  14
ENDBRANCH  11  12
ENDBRANCH   1  11
TORSDOF 3
ENDMDL
