MODEL 1
REMARK VINA RESULT:       4.8      0.000      0.000
REMARK  6 active torsions:
REMARK  status: ('A' for Active; 'I' for Inactive)
REMARK    1  A    between atoms: O_4  and  C_1 
REMARK    2  A    between atoms: C_9  and  C_2 
REMARK    3  A    between atoms: C_5  and  O_4 
REMARK    4  A    between atoms: C_11  and  C_5 
REMARK    5  A    between atoms: N_10  and  C_9 
REMARK    6  A    between atoms: O_19  and  C_17 
ROOT
ATOM      1  C   UNL d   1     -41.422-122.342 -51.630  0.00  0.00     0.122 A 
ATOM      2  C   UNL d   1     -41.514-122.642 -50.868  0.00  0.00     0.043 A 
ATOM      3  C   UNL d   1     -41.325-121.530 -51.744  0.00  0.00     0.105 A 
ATOM      4  C   UNL d   1     -41.319-121.021 -51.096  0.00  0.00     0.030 A 
ATOM      5  C   UNL d   1     -41.412-121.327 -50.342  0.00  0.00     0.059 A 
ATOM      6  C   UNL d   1     -41.509-122.132 -50.220  0.00  0.00     0.015 A 
ATOM      7  N   UNL d   1     -41.233-121.236 -52.502  0.00  0.00    -0.242 NA
ATOM      8 CL   UNL d   1     -41.403-120.792 -49.701  0.00  0.00    -0.082 Cl
ATOM      9  C   UNL d   1     -41.223-120.222 -51.213  0.00  0.00     0.004 A 
ATOM     10  C   UNL d   1     -41.136-120.425 -52.615  0.00  0.00     0.099 A 
ATOM     11  C   UNL d   1     -41.131-119.916 -51.968  0.00  0.00     0.021 A 
ENDROOT
BRANCH   1  12
ATOM     12  O   UNL d   1     -41.425-122.795 -52.224  0.00  0.00    -0.271 OA
BRANCH  12  13
ATOM     13  C   UNL d   1     -42.034-123.289 -52.785  0.00  0.00     0.300 C 
ATOM     14  O   UNL d   1     -42.734-123.801 -52.278  0.00  0.00    -0.259 OA
BRANCH  13  15
ATOM     15  C   UNL d   1     -41.967-123.278 -53.605  0.00  0.00     0.066 A 
ATOM     16  C   UNL d   1     -42.401-122.724 -54.049  0.00  0.00     0.029 A 
ATOM     17  C   UNL d   1     -42.330-122.715 -54.879  0.00  0.00     0.094 A 
ATOM     18  C   UNL d   1     -41.828-123.258 -55.268  0.00  0.00     0.024 A 
ATOM     19  C   UNL d   1     -41.397-123.809 -54.822  0.00  0.00     0.002 A 
ATOM     20  C   UNL d   1     -41.468-123.817 -53.991  0.00  0.00     0.005 A 
BRANCH  17  21
ATOM     21  O   UNL d   1     -42.801-122.126 -55.244  0.00  0.00    -0.328 OA
ATOM     22  C   UNL d   1     -42.376-122.026 -55.968  0.00  0.00     0.181 C 
ENDBRANCH  17  21
ENDBRANCH  13  15
ENDBRANCH  12  13
ENDBRANCH   1  12
BRANCH   2  23
ATOM     23  C   UNL d   1     -41.631-123.487 -50.551  0.00  0.00     0.082 C 
BRANCH  23  24
ATOM     24  N   UNL d   1     -41.958-123.597 -49.806  0.00  0.00    -0.299 N 
ATOM     25  C   UNL d   1     -42.764-123.654 -49.712  0.00  0.00     0.107 A 
ATOM     26  C   UNL d   1     -43.092-123.764 -48.970  0.00  0.00     0.142 A 
ATOM     27  O   UNL d   1     -42.594-123.816 -48.309  0.00  0.00    -0.300 OA
ATOM     28  C   UNL d   1     -41.785-123.760 -48.396  0.00  0.00     0.142 A 
ATOM     29  C   UNL d   1     -41.470-123.649 -49.153  0.00  0.00     0.107 A 
ENDBRANCH  23  24
ENDBRANCH   2  23
TORSDOF 6
ENDMDL
MODEL 2
REMARK VINA RESULT:       6.0      1.340      4.423
REMARK  6 active torsions:
REMARK  status: ('A' for Active; 'I' for Inactive)
REMARK    1  A    between atoms: O_4  and  C_1 
REMARK    2  A    between atoms: C_9  and  C_2 
REMARK    3  A    between atoms: C_5  and  O_4 
REMARK    4  A    between atoms: C_11  and  C_5 
REMARK    5  A    between atoms: N_10  and  C_9 
REMARK    6  A    between atoms: O_19  and  C_17 
ROOT
ATOM      1  C   UNL d   1     -41.668-121.684 -51.905  0.00  0.00     0.122 A 
ATOM      2  C   UNL d   1     -41.831-121.957 -52.666  0.00  0.00     0.043 A 
ATOM      3  C   UNL d   1     -41.486-120.888 -51.784  0.00  0.00     0.105 A 
ATOM      4  C   UNL d   1     -41.467-120.368 -52.422  0.00  0.00     0.030 A 
ATOM      5  C   UNL d   1     -41.630-120.647 -53.176  0.00  0.00     0.059 A 
ATOM      6  C   UNL d   1     -41.812-121.436 -53.305  0.00  0.00     0.015 A 
ATOM      7  N   UNL d   1     -41.325-120.621 -51.028  0.00  0.00    -0.242 NA
ATOM      8 CL   UNL d   1     -41.605-120.101 -53.807  0.00  0.00    -0.082 Cl
ATOM      9  C   UNL d   1     -41.287-119.585 -52.299  0.00  0.00     0.004 A 
ATOM     10  C   UNL d   1     -41.144-119.826 -50.907  0.00  0.00     0.099 A 
ATOM     11  C   UNL d   1     -41.125-119.305 -51.545  0.00  0.00     0.021 A 
ENDROOT
BRANCH   1  12
ATOM     12  O   UNL d   1     -41.682-122.148 -51.320  0.00  0.00    -0.271 OA
BRANCH  12  13
ATOM     13  C   UNL d   1     -42.297-122.529 -50.683  0.00  0.00     0.300 C 
ATOM     14  O   UNL d   1     -43.264-122.431 -50.936  0.00  0.00    -0.259 OA
BRANCH  13  15
ATOM     15  C   UNL d   1     -42.029-122.897 -49.997  0.00  0.00     0.066 A 
ATOM     16  C   UNL d   1     -42.394-122.731 -49.268  0.00  0.00     0.029 A 
ATOM     17  C   UNL d   1     -42.120-123.106 -48.575  0.00  0.00     0.094 A 
ATOM     18  C   UNL d   1     -41.484-123.646 -48.609  0.00  0.00     0.024 A 
ATOM     19  C   UNL d   1     -41.123-123.809 -49.338  0.00  0.00     0.002 A 
ATOM     20  C   UNL d   1     -41.397-123.434 -50.030  0.00  0.00     0.005 A 
BRANCH  17  21
ATOM     21  O   UNL d   1     -42.544-122.880 -47.888  0.00  0.00    -0.328 OA
ATOM     22  C   UNL d   1     -41.950-123.008 -47.301  0.00  0.00     0.181 C 
ENDBRANCH  17  21
ENDBRANCH  13  15
ENDBRANCH  12  13
ENDBRANCH   1  12
BRANCH   2  23
ATOM     23  C   UNL d   1     -42.046-122.780 -52.990  0.00  0.00     0.082 C 
BRANCH  23  24
ATOM     24  N   UNL d   1     -41.926-122.945 -53.785  0.00  0.00    -0.299 N 
ATOM     25  C   UNL d   1     -41.256-123.338 -54.028  0.00  0.00     0.107 A 
ATOM     26  C   UNL d   1     -41.134-123.504 -54.821  0.00  0.00     0.142 A 
ATOM     27  O   UNL d   1     -41.700-123.267 -55.378  0.00  0.00    -0.300 OA
ATOM     28  C   UNL d   1     -42.374-122.872 -55.140  0.00  0.00     0.142 A 
ATOM     29  C   UNL d   1     -42.482-122.713 -54.336  0.00  0.00     0.107 A 
ENDBRANCH  23  24
ENDBRANCH   2  23
TORSDOF 6
ENDMDL
