MODEL 1
REMARK VINA RESULT:      69.0      0.000      0.000
REMARK  5 active torsions:
REMARK  status: ('A' for Active; 'I' for Inactive)
REMARK    1  A    between atoms: C_5  and  N_1 
REMARK    2  A    between atoms: C_8  and  C_3 
REMARK    3  A    between atoms: C_7  and  C_4 
REMARK    4  A    between atoms: N_12  and  C_5 
REMARK    5  A    between atoms: N_11  and  C_10 
ROOT
ATOM      1  N   UNL d   1      14.429  16.159  -4.038  0.00  0.00    -0.203 N 
ATOM      2  N   UNL d   1      14.581  16.943  -4.243  0.00  0.00    -0.163 NA
ATOM      3  C   UNL d   1      14.221  17.119  -4.917  0.00  0.00     0.103 A 
ATOM      4  C   UNL d   1      13.950  15.825  -4.611  0.00  0.00     0.087 A 
ATOM      5  C   UNL d   1      13.808  16.424  -5.178  0.00  0.00     0.040 A 
ENDROOT
BRANCH   4   6
ATOM      6  C   UNL d   1      13.697  15.029  -4.560  0.00  0.00     0.018 A 
ATOM      7  C   UNL d   1      14.137  14.440  -4.926  0.00  0.00     0.003 A 
ATOM      8  C   UNL d   1      13.905  13.669  -4.885  0.00  0.00     0.018 A 
ATOM      9  C   UNL d   1      13.208  13.461  -4.467  0.00  0.00     0.064 A 
ATOM     10  C   UNL d   1      12.769  14.049  -4.102  0.00  0.00     0.018 A 
ATOM     11  C   UNL d   1      13.014  14.845  -4.147  0.00  0.00     0.003 A 
BRANCH   9  12
ATOM     12  N   UNL d   1      12.992  12.639  -4.444  0.00  0.00    -0.301 N 
ATOM     13  C   UNL d   1      12.903  12.267  -3.694  0.00  0.00     0.100 C 
ATOM     14  C   UNL d   1      12.854  12.145  -5.051  0.00  0.00     0.100 C 
ENDBRANCH   9  12
ENDBRANCH   4   6
BRANCH   1  15
ATOM     15  C   UNL d   1      14.720  15.759  -3.346  0.00  0.00     0.222 C 
ATOM     16  S   UNL d   1      15.300  15.145  -3.443  0.00  0.00    -0.037 SA
BRANCH  15  17
ATOM     17  N   UNL d   1      14.442  15.967  -2.609  0.00  0.00    -0.214 NA
ATOM     18  C   UNL d   1      14.903  15.821  -1.910  0.00  0.00     0.122 C 
ENDBRANCH  15  17
ENDBRANCH   1  15
BRANCH   3  19
ATOM     19  C   UNL d   1      14.256  17.856  -5.281  0.00  0.00     0.019 A 
ATOM     20  C   UNL d   1      14.765  18.461  -4.996  0.00  0.00     0.002 A 
ATOM     21  C   UNL d   1      14.800  19.198  -5.360  0.00  0.00     0.007 A 
ATOM     22  C   UNL d   1      14.324  19.329  -6.012  0.00  0.00     0.035 A 
ATOM     23  C   UNL d   1      13.813  18.742  -6.309  0.00  0.00     0.007 A 
ATOM     24 BR   UNL d   1      14.366  20.105  -6.389  0.00  0.00    -0.049 Br
ATOM     25  C   UNL d   1      13.783  18.008  -5.940  0.00  0.00     0.002 A 
ENDBRANCH   3  19
TORSDOF 5
ENDMDL
MODEL 2
REMARK VINA RESULT:      69.3      1.985      4.693
REMARK  5 active torsions:
REMARK  status: ('A' for Active; 'I' for Inactive)
REMARK    1  A    between atoms: C_5  and  N_1 
REMARK    2  A    between atoms: C_8  and  C_3 
REMARK    3  A    between atoms: C_7  and  C_4 
REMARK    4  A    between atoms: N_12  and  C_5 
REMARK    5  A    between atoms: N_11  and  C_10 
ROOT
ATOM      1  N   UNL d   1      14.431  16.053  -4.102  0.00  0.00    -0.203 N 
ATOM      2  N   UNL d   1      14.282  15.264  -3.919  0.00  0.00    -0.163 NA
ATOM      3  C   UNL d   1      13.818  14.945  -4.465  0.00  0.00     0.103 A 
ATOM      4  C   UNL d   1      14.043  16.241  -4.797  0.00  0.00     0.087 A 
ATOM      5  C   UNL d   1      13.647  15.545  -5.042  0.00  0.00     0.040 A 
ENDROOT
BRANCH   4   6
ATOM      6  C   UNL d   1      14.087  17.007  -5.131  0.00  0.00     0.018 A 
ATOM      7  C   UNL d   1      14.654  17.534  -4.861  0.00  0.00     0.003 A 
ATOM      8  C   UNL d   1      14.707  18.276  -5.174  0.00  0.00     0.018 A 
ATOM      9  C   UNL d   1      14.181  18.515  -5.781  0.00  0.00     0.064 A 
ATOM     10  C   UNL d   1      13.613  17.988  -6.051  0.00  0.00     0.018 A 
ATOM     11  C   UNL d   1      13.563  17.223  -5.723  0.00  0.00     0.003 A 
BRANCH   9  12
ATOM     12  N   UNL d   1      14.264  19.304  -6.088  0.00  0.00    -0.301 N 
ATOM     13  C   UNL d   1      15.029  19.656  -6.092  0.00  0.00     0.100 C 
ATOM     14  C   UNL d   1      13.704  19.782  -6.386  0.00  0.00     0.100 C 
ENDBRANCH   9  12
ENDBRANCH   4   6
BRANCH   1  15
ATOM     15  C   UNL d   1      14.910  16.589  -3.648  0.00  0.00     0.222 C 
ATOM     16  S   UNL d   1      15.700  16.757  -3.913  0.00  0.00    -0.037 SA
BRANCH  15  17
ATOM     17  N   UNL d   1      14.609  16.930  -2.972  0.00  0.00    -0.214 NA
ATOM     18  C   UNL d   1      15.017  16.866  -2.229  0.00  0.00     0.122 C 
ENDBRANCH  15  17
ENDBRANCH   1  15
BRANCH   3  19
ATOM     19  C   UNL d   1      13.559  14.163  -4.452  0.00  0.00     0.019 A 
ATOM     20  C   UNL d   1      13.605  13.677  -5.136  0.00  0.00     0.002 A 
ATOM     21  C   UNL d   1      13.346  12.896  -5.124  0.00  0.00     0.007 A 
ATOM     22  C   UNL d   1      13.042  12.601  -4.425  0.00  0.00     0.035 A 
ATOM     23  C   UNL d   1      12.989  13.068  -3.737  0.00  0.00     0.007 A 
ATOM     24 BR   UNL d   1      12.773  11.780  -4.420  0.00  0.00    -0.049 Br
ATOM     25  C   UNL d   1      13.249  13.847  -3.756  0.00  0.00     0.002 A 
ENDBRANCH   3  19
TORSDOF 5
ENDMDL
MODEL 3
REMARK VINA RESULT:      70.3      2.739      5.235
REMARK  5 active torsions:
REMARK  status: ('A' for Active; 'I' for Inactive)
REMARK    1  A    between atoms: C_5  and  N_1 
REMARK    2  A    between atoms: C_8  and  C_3 
REMARK    3  A    between atoms: C_7  and  C_4 
REMARK    4  A    between atoms: N_12  and  C_5 
REMARK    5  A    between atoms: N_11  and  C_10 
ROOT
ATOM      1  N   UNL d   1      13.886  14.338  -3.747  0.00  0.00    -0.203 N 
ATOM      2  N   UNL d   1      13.856  13.707  -3.219  0.00  0.00    -0.163 NA
ATOM      3  C   UNL d   1      14.304  13.858  -2.593  0.00  0.00     0.103 A 
ATOM      4  C   UNL d   1      14.376  14.916  -3.439  0.00  0.00     0.087 A 
ATOM      5  C   UNL d   1      14.651  14.626  -2.704  0.00  0.00     0.040 A 
ENDROOT
BRANCH   4   6
ATOM      6  C   UNL d   1      14.521  15.632  -3.849  0.00  0.00     0.018 A 
ATOM      7  C   UNL d   1      14.569  16.335  -3.430  0.00  0.00     0.003 A 
ATOM      8  C   UNL d   1      14.708  17.032  -3.812  0.00  0.00     0.018 A 
ATOM      9  C   UNL d   1      14.805  17.043  -4.645  0.00  0.00     0.064 A 
ATOM     10  C   UNL d   1      14.757  16.339  -5.064  0.00  0.00     0.018 A 
ATOM     11  C   UNL d   1      14.614  15.622  -4.663  0.00  0.00     0.003 A 
BRANCH   9  12
ATOM     12  N   UNL d   1      14.950  17.794  -5.016  0.00  0.00    -0.301 N 
ATOM     13  C   UNL d   1      14.445  18.037  -5.645  0.00  0.00     0.100 C 
ATOM     14  C   UNL d   1      15.516  18.327  -4.853  0.00  0.00     0.100 C 
ENDBRANCH   9  12
ENDBRANCH   4   6
BRANCH   1  15
ATOM     15  C   UNL d   1      13.477  14.386  -4.490  0.00  0.00     0.222 C 
ATOM     16  S   UNL d   1      12.770  14.857  -4.538  0.00  0.00    -0.037 SA
BRANCH  15  17
ATOM     17  N   UNL d   1      13.764  13.986  -5.140  0.00  0.00    -0.214 NA
ATOM     18  C   UNL d   1      13.315  13.361  -5.503  0.00  0.00     0.122 C 
ENDBRANCH  15  17
ENDBRANCH   1  15
BRANCH   3  19
ATOM     19  C   UNL d   1      14.399  13.344  -1.957  0.00  0.00     0.019 A 
ATOM     20  C   UNL d   1      15.009  13.459  -1.391  0.00  0.00     0.002 A 
ATOM     21  C   UNL d   1      15.105  12.945  -0.755  0.00  0.00     0.007 A 
ATOM     22  C   UNL d   1      14.588  12.315  -0.687  0.00  0.00     0.035 A 
ATOM     23  C   UNL d   1      13.978  12.185  -1.239  0.00  0.00     0.007 A 
ATOM     24 BR   UNL d   1      14.695  11.780  -0.017  0.00  0.00    -0.049 Br
ATOM     25  C   UNL d   1      13.888  12.703  -1.871  0.00  0.00     0.002 A 
ENDBRANCH   3  19
TORSDOF 5
ENDMDL
