MODEL 1
REMARK VINA RESULT:      16.0      0.000      0.000
REMARK  2 active torsions:
REMARK  status: ('A' for Active; 'I' for Inactive)
REMARK    1  A    between atoms: C_7  and  C_1 
REMARK    2  A    between atoms: C_11  and  C_7 
ROOT
ATOM      1  C   UNL d   1      59.812  49.685  50.594  0.00  0.00     0.116 A 
ATOM      2  N   UNL d   1      59.985  49.656  52.003  0.00  0.00    -0.152 NA
ATOM      3  N   UNL d   1      61.138  49.648  51.132  0.00  0.00    -0.152 NA
ATOM      4  C   UNL d   1      59.510  49.678  51.339  0.00  0.00     0.288 A 
ATOM      5  C   UNL d   1      60.631  49.670  50.488  0.00  0.00     0.288 A 
ATOM      6  C   UNL d   1      60.825  49.641  51.894  0.00  0.00     0.374 A 
ATOM      7  O   UNL d   1      60.968  49.677  49.721  0.00  0.00    -0.265 OA
ATOM      8  O   UNL d   1      58.677  49.694  51.436  0.00  0.00    -0.265 OA
ATOM      9  O   UNL d   1      61.359  49.618  52.534  0.00  0.00    -0.242 OA
ENDROOT
BRANCH   1  10
ATOM     10  C   UNL d   1      59.305  49.708  49.926  0.00  0.00     0.010 C 
BRANCH  10  11
ATOM     11  C   UNL d   1      58.490  49.689  50.050  0.00  0.00     0.000 A 
ATOM     12  C   UNL d   1      58.195  49.708  50.813  0.00  0.00     0.002 A 
ATOM     13  C   UNL d   1      57.389  49.689  50.937  0.00  0.00     0.030 A 
ATOM     14  C   UNL d   1      56.870  49.650  50.290  0.00  0.00     0.140 A 
ATOM     15  C   UNL d   1      57.165  49.631  49.527  0.00  0.00     0.030 A 
ATOM     16  F   UNL d   1      56.034  49.629  50.392  0.00  0.00    -0.204 F 
ATOM     17  C   UNL d   1      57.971  49.650  49.404  0.00  0.00     0.002 A 
ENDBRANCH  10  11
ENDBRANCH   1  10
TORSDOF 2
ENDMDL
