MODEL 1
REMARK VINA RESULT:      13.5      0.000      0.000
REMARK  2 active torsions:
REMARK  status: ('A' for Active; 'I' for Inactive)
REMARK    1  A    between atoms: C_6  and  N_1 
REMARK    2  A    between atoms: C_7  and  C_6 
ROOT
ATOM      1  N   UNL d   1      45.560 -12.899  44.134  0.00  0.00    -0.287 N 
ATOM      2  N   UNL d   1      46.544 -13.611  44.649  0.00  0.00    -0.224 NA
ATOM      3  C   UNL d   1      46.361 -12.880  44.309  0.00  0.00     0.183 A 
ATOM      4  C   UNL d   1      45.254 -13.612  44.355  0.00  0.00     0.083 A 
ATOM      5  C   UNL d   1      45.870 -14.057  44.677  0.00  0.00     0.099 A 
ATOM      6  C   UNL d   1      44.495 -13.930  44.311  0.00  0.00     0.019 A 
ATOM      7  C   UNL d   1      45.726 -14.821  44.955  0.00  0.00     0.021 A 
ATOM      8  C   UNL d   1      44.350 -14.694  44.589  0.00  0.00     0.002 A 
ATOM      9  C   UNL d   1      44.965 -15.139  44.911  0.00  0.00     0.002 A 
ENDROOT
BRANCH   1  10
ATOM     10  C   UNL d   1      45.282 -12.198  43.785  0.00  0.00     0.082 C 
BRANCH  10  11
ATOM     11  C   UNL d   1      45.143 -12.169  42.981  0.00  0.00     0.018 A 
ATOM     12  C   UNL d   1      44.370 -12.117  42.701  0.00  0.00     0.002 A 
ATOM     13  C   UNL d   1      44.224 -12.088  41.889  0.00  0.00     0.011 A 
ATOM     14  C   UNL d   1      44.854 -12.111  41.357  0.00  0.00     0.058 A 
ATOM     15  C   UNL d   1      45.607 -12.163  41.656  0.00  0.00     0.011 A 
ATOM     16 CL   UNL d   1      44.685 -12.081  40.561  0.00  0.00    -0.082 Cl
ATOM     17  C   UNL d   1      45.773 -12.193  42.449  0.00  0.00     0.002 A 
ENDBRANCH  10  11
ENDBRANCH   1  10
TORSDOF 2
ENDMDL
MODEL 2
REMARK VINA RESULT:      14.3      3.048      4.392
REMARK  2 active torsions:
REMARK  status: ('A' for Active; 'I' for Inactive)
REMARK    1  A    between atoms: C_6  and  N_1 
REMARK    2  A    between atoms: C_7  and  C_6 
ROOT
ATOM      1  N   UNL d   1      45.894 -17.211  44.332  0.00  0.00    -0.287 N 
ATOM      2  N   UNL d   1      46.104 -17.420  43.047  0.00  0.00    -0.224 NA
ATOM      3  C   UNL d   1      45.867 -16.850  43.596  0.00  0.00     0.183 A 
ATOM      4  C   UNL d   1      46.136 -17.976  44.247  0.00  0.00     0.083 A 
ATOM      5  C   UNL d   1      46.267 -18.106  43.443  0.00  0.00     0.099 A 
ATOM      6  C   UNL d   1      46.260 -18.585  44.789  0.00  0.00     0.019 A 
ATOM      7  C   UNL d   1      46.522 -18.846  43.181  0.00  0.00     0.021 A 
ATOM      8  C   UNL d   1      46.515 -19.325  44.528  0.00  0.00     0.002 A 
ATOM      9  C   UNL d   1      46.646 -19.455  43.724  0.00  0.00     0.002 A 
ENDROOT
BRANCH   1  10
ATOM     10  C   UNL d   1      45.670 -16.708  44.955  0.00  0.00     0.082 C 
BRANCH  10  11
ATOM     11  C   UNL d   1      45.616 -15.903  44.830  0.00  0.00     0.018 A 
ATOM     12  C   UNL d   1      46.303 -15.447  44.807  0.00  0.00     0.002 A 
ATOM     13  C   UNL d   1      46.254 -14.633  44.681  0.00  0.00     0.011 A 
ATOM     14  C   UNL d   1      45.518 -14.275  44.578  0.00  0.00     0.058 A 
ATOM     15  C   UNL d   1      44.857 -14.745  44.605  0.00  0.00     0.011 A 
ATOM     16 CL   UNL d   1      45.497 -13.470  44.455  0.00  0.00    -0.082 Cl
ATOM     17  C   UNL d   1      44.880 -15.546  44.727  0.00  0.00     0.002 A 
ENDBRANCH  10  11
ENDBRANCH   1  10
TORSDOF 2
ENDMDL
MODEL 3
REMARK VINA RESULT:      14.6      1.073      1.737
REMARK  2 active torsions:
REMARK  status: ('A' for Active; 'I' for Inactive)
REMARK    1  A    between atoms: C_6  and  N_1 
REMARK    2  A    between atoms: C_7  and  C_6 
ROOT
ATOM      1  N   UNL d   1      45.214 -14.131  44.586  0.00  0.00    -0.287 N 
ATOM      2  N   UNL d   1      44.154 -14.824  44.954  0.00  0.00    -0.224 NA
ATOM      3  C   UNL d   1      44.421 -14.061  44.784  0.00  0.00     0.183 A 
ATOM      4  C   UNL d   1      45.434 -14.906  44.631  0.00  0.00     0.083 A 
ATOM      5  C   UNL d   1      44.771 -15.339  44.861  0.00  0.00     0.099 A 
ATOM      6  C   UNL d   1      46.150 -15.290  44.495  0.00  0.00     0.019 A 
ATOM      7  C   UNL d   1      44.824 -16.157  44.955  0.00  0.00     0.021 A 
ATOM      8  C   UNL d   1      46.205 -16.108  44.588  0.00  0.00     0.002 A 
ATOM      9  C   UNL d   1      45.542 -16.542  44.818  0.00  0.00     0.002 A 
ENDROOT
BRANCH   1  10
ATOM     10  C   UNL d   1      45.572 -13.405  44.397  0.00  0.00     0.082 C 
BRANCH  10  11
ATOM     11  C   UNL d   1      45.455 -13.072  43.661  0.00  0.00     0.018 A 
ATOM     12  C   UNL d   1      46.024 -13.169  43.073  0.00  0.00     0.002 A 
ATOM     13  C   UNL d   1      45.910 -12.834  42.328  0.00  0.00     0.011 A 
ATOM     14  C   UNL d   1      45.226 -12.401  42.171  0.00  0.00     0.058 A 
ATOM     15  C   UNL d   1      44.680 -12.319  42.765  0.00  0.00     0.011 A 
ATOM     16 CL   UNL d   1      45.137 -12.081  41.427  0.00  0.00    -0.082 Cl
ATOM     17  C   UNL d   1      44.770 -12.639  43.504  0.00  0.00     0.002 A 
ENDBRANCH  10  11
ENDBRANCH   1  10
TORSDOF 2
ENDMDL
MODEL 4
REMARK VINA RESULT:      15.4      6.235      7.291
REMARK  2 active torsions:
REMARK  status: ('A' for Active; 'I' for Inactive)
REMARK    1  A    between atoms: C_6  and  N_1 
REMARK    2  A    between atoms: C_7  and  C_6 
ROOT
ATOM      1  N   UNL d   1      44.883 -15.572  37.308  0.00  0.00    -0.287 N 
ATOM      2  N   UNL d   1      45.759 -15.731  36.335  0.00  0.00    -0.224 NA
ATOM      3  C   UNL d   1      45.083 -16.059  36.678  0.00  0.00     0.183 A 
ATOM      4  C   UNL d   1      45.412 -14.966  37.356  0.00  0.00     0.083 A 
ATOM      5  C   UNL d   1      45.960 -15.065  36.748  0.00  0.00     0.099 A 
ATOM      6  C   UNL d   1      45.480 -14.326  37.871  0.00  0.00     0.019 A 
ATOM      7  C   UNL d   1      46.577 -14.525  36.654  0.00  0.00     0.021 A 
ATOM      8  C   UNL d   1      46.096 -13.784  37.779  0.00  0.00     0.002 A 
ATOM      9  C   UNL d   1      46.644 -13.884  37.170  0.00  0.00     0.002 A 
ENDROOT
BRANCH   1  10
ATOM     10  C   UNL d   1      44.206 -15.826  37.718  0.00  0.00     0.082 C 
BRANCH  10  11
ATOM     11  C   UNL d   1      43.471 -15.771  37.366  0.00  0.00     0.018 A 
ATOM     12  C   UNL d   1      42.896 -15.280  37.695  0.00  0.00     0.002 A 
ATOM     13  C   UNL d   1      42.152 -15.222  37.343  0.00  0.00     0.011 A 
ATOM     14  C   UNL d   1      41.984 -15.656  36.662  0.00  0.00     0.058 A 
ATOM     15  C   UNL d   1      42.565 -16.133  36.357  0.00  0.00     0.011 A 
ATOM     16 CL   UNL d   1      41.242 -15.581  36.334  0.00  0.00    -0.082 Cl
ATOM     17  C   UNL d   1      43.303 -16.205  36.685  0.00  0.00     0.002 A 
ENDBRANCH  10  11
ENDBRANCH   1  10
TORSDOF 2
ENDMDL
MODEL 5
REMARK VINA RESULT:      15.5      1.911      3.770
REMARK  2 active torsions:
REMARK  status: ('A' for Active; 'I' for Inactive)
REMARK    1  A    between atoms: C_6  and  N_1 
REMARK    2  A    between atoms: C_7  and  C_6 
ROOT
ATOM      1  N   UNL d   1      45.192 -13.735  44.451  0.00  0.00    -0.287 N 
ATOM      2  N   UNL d   1      43.974 -13.455  44.028  0.00  0.00    -0.224 NA
ATOM      3  C   UNL d   1      44.400 -13.916  44.566  0.00  0.00     0.183 A 
ATOM      4  C   UNL d   1      45.258 -13.183  43.866  0.00  0.00     0.083 A 
ATOM      5  C   UNL d   1      44.497 -13.009  43.602  0.00  0.00     0.099 A 
ATOM      6  C   UNL d   1      45.909 -12.807  43.528  0.00  0.00     0.019 A 
ATOM      7  C   UNL d   1      44.385 -12.458  42.998  0.00  0.00     0.021 A 
ATOM      8  C   UNL d   1      45.799 -12.255  42.924  0.00  0.00     0.002 A 
ATOM      9  C   UNL d   1      45.037 -12.080  42.659  0.00  0.00     0.002 A 
ENDROOT
BRANCH   1  10
ATOM     10  C   UNL d   1      45.703 -14.155  44.955  0.00  0.00     0.082 C 
BRANCH  10  11
ATOM     11  C   UNL d   1      45.746 -14.969  44.905  0.00  0.00     0.018 A 
ATOM     12  C   UNL d   1      45.057 -15.418  44.955  0.00  0.00     0.002 A 
ATOM     13  C   UNL d   1      45.095 -16.241  44.905  0.00  0.00     0.011 A 
ATOM     14  C   UNL d   1      45.824 -16.614  44.806  0.00  0.00     0.058 A 
ATOM     15  C   UNL d   1      46.488 -16.151  44.760  0.00  0.00     0.011 A 
ATOM     16 CL   UNL d   1      45.835 -17.427  44.760  0.00  0.00    -0.082 Cl
ATOM     17  C   UNL d   1      46.475 -15.342  44.806  0.00  0.00     0.002 A 
ENDBRANCH  10  11
ENDBRANCH   1  10
TORSDOF 2
ENDMDL
