MODEL 1
REMARK VINA RESULT:      -9.2      0.000      0.000
REMARK  7 active torsions:
REMARK  status: ('A' for Active; 'I' for Inactive)
REMARK    1  A    between atoms: S_3  and  C_1 
REMARK    2  A    between atoms: C_10  and  S_3 
REMARK    3  A    between atoms: N_11  and  C_4 
REMARK    4  A    between atoms: C_9  and  C_5 
REMARK    5  A    between atoms: C_20  and  N_11 
REMARK    6  A    between atoms: C_22  and  C_20 
REMARK    7  A    between atoms: C_23  and  C_22 
ROOT
ATOM      1  C   UNL d   1      50.587  34.079  52.631  0.00  0.00     0.042 A 
ATOM      2  C   UNL d   1      50.393  34.079  51.833  0.00  0.00     0.006 A 
ATOM      3  C   UNL d   1      50.104  34.466  53.183  0.00  0.00     0.006 A 
ATOM      4  C   UNL d   1      49.217  34.860  52.120  0.00  0.00     0.094 A 
ATOM      5  C   UNL d   1      49.420  34.858  52.938  0.00  0.00     0.024 A 
ATOM      6  C   UNL d   1      49.708  34.469  51.575  0.00  0.00     0.024 A 
ATOM      7  O   UNL d   1      48.531  35.252  51.866  0.00  0.00    -0.328 OA
ATOM      8  C   UNL d   1      47.833  35.649  51.597  0.00  0.00     0.181 C 
ENDROOT
BRANCH   1   9
ATOM      9  C   UNL d   1      51.269  33.692  52.895  0.00  0.00     0.185 A 
ATOM     10  N   UNL d   1      51.852  34.073  53.332  0.00  0.00    -0.207 NA
ATOM     11  C   UNL d   1      52.446  33.525  53.499  0.00  0.00     0.212 A 
ATOM     12  C   UNL d   1      52.221  32.814  53.163  0.00  0.00     0.213 A 
ATOM     13  O   UNL d   1      51.504  32.905  52.792  0.00  0.00    -0.269 OA
BRANCH  11  14
ATOM     14  S   UNL d   1      53.176  33.554  53.913  0.00  0.00     0.230 S 
ATOM     15  O   UNL d   1      53.314  33.885  53.077  0.00  0.00    -0.215 OA
ATOM     16  O   UNL d   1      53.067  33.244  54.713  0.00  0.00    -0.215 OA
BRANCH  14  17
ATOM     17  C   UNL d   1      53.889  33.582  54.319  0.00  0.00     0.090 A 
ATOM     18  C   UNL d   1      53.893  33.548  55.135  0.00  0.00     0.011 A 
ATOM     19  C   UNL d   1      54.601  33.576  55.542  0.00  0.00     0.001 A 
ATOM     20  C   UNL d   1      55.305  33.637  55.132  0.00  0.00     0.000 A 
ATOM     21  C   UNL d   1      55.306  33.672  54.309  0.00  0.00     0.001 A 
ATOM     22  C   UNL d   1      54.598  33.644  53.902  0.00  0.00     0.011 A 
ENDBRANCH  14  17
ENDBRANCH  11  14
BRANCH  12  23
ATOM     23  N   UNL d   1      52.687  32.128  53.219  0.00  0.00    -0.219 NA
BRANCH  23  24
ATOM     24  C   UNL d   1      52.734  31.422  52.807  0.00  0.00     0.101 C 
BRANCH  24  25
ATOM     25  C   UNL d   1      52.801  30.840  53.384  0.00  0.00     0.021 C 
BRANCH  25  26
ATOM     26  C   UNL d   1      53.079  30.079  53.179  0.00  0.00     0.002 C 
ATOM     27  C   UNL d   1      53.208  29.505  53.764  0.00  0.00     0.000 C 
ENDBRANCH  25  26
ENDBRANCH  24  25
ENDBRANCH  23  24
ENDBRANCH  12  23
ENDBRANCH   1   9
TORSDOF 7
ENDMDL
MODEL 2
REMARK VINA RESULT:      -7.6      0.935      2.533
REMARK  7 active torsions:
REMARK  status: ('A' for Active; 'I' for Inactive)
REMARK    1  A    between atoms: S_3  and  C_1 
REMARK    2  A    between atoms: C_10  and  S_3 
REMARK    3  A    between atoms: N_11  and  C_4 
REMARK    4  A    between atoms: C_9  and  C_5 
REMARK    5  A    between atoms: C_20  and  N_11 
REMARK    6  A    between atoms: C_22  and  C_20 
REMARK    7  A    between atoms: C_23  and  C_22 
ROOT
ATOM      1  C   UNL d   1      50.247  34.309  52.687  0.00  0.00     0.042 A 
ATOM      2  C   UNL d   1      49.982  34.263  51.911  0.00  0.00     0.006 A 
ATOM      3  C   UNL d   1      49.845  34.775  53.243  0.00  0.00     0.006 A 
ATOM      4  C   UNL d   1      48.896  35.155  52.229  0.00  0.00     0.094 A 
ATOM      5  C   UNL d   1      49.172  35.199  53.024  0.00  0.00     0.024 A 
ATOM      6  C   UNL d   1      49.306  34.685  51.680  0.00  0.00     0.024 A 
ATOM      7  O   UNL d   1      48.219  35.579  52.002  0.00  0.00    -0.328 OA
ATOM      8  C   UNL d   1      47.530  36.008  51.761  0.00  0.00     0.181 C 
ENDROOT
BRANCH   1   9
ATOM      9  C   UNL d   1      50.919  33.890  52.923  0.00  0.00     0.185 A 
ATOM     10  N   UNL d   1      51.029  33.095  52.745  0.00  0.00    -0.207 NA
ATOM     11  C   UNL d   1      51.753  32.859  53.064  0.00  0.00     0.212 A 
ATOM     12  C   UNL d   1      52.080  33.512  53.433  0.00  0.00     0.213 A 
ATOM     13  O   UNL d   1      51.579  34.147  53.353  0.00  0.00    -0.269 OA
BRANCH  11  14
ATOM     14  S   UNL d   1      52.184  32.138  53.080  0.00  0.00     0.230 S 
ATOM     15  O   UNL d   1      51.524  32.085  53.705  0.00  0.00    -0.215 OA
ATOM     16  O   UNL d   1      52.818  32.166  52.493  0.00  0.00    -0.215 OA
BRANCH  14  17
ATOM     17  C   UNL d   1      52.606  31.434  53.096  0.00  0.00     0.090 A 
ATOM     18  C   UNL d   1      52.270  30.767  53.427  0.00  0.00     0.011 A 
ATOM     19  C   UNL d   1      52.687  30.064  53.444  0.00  0.00     0.001 A 
ATOM     20  C   UNL d   1      53.440  30.029  53.129  0.00  0.00     0.000 A 
ATOM     21  C   UNL d   1      53.782  30.700  52.794  0.00  0.00     0.001 A 
ATOM     22  C   UNL d   1      53.366  31.402  52.777  0.00  0.00     0.011 A 
ENDBRANCH  14  17
ENDBRANCH  11  14
BRANCH  12  23
ATOM     23  N   UNL d   1      52.815  33.484  53.820  0.00  0.00    -0.219 NA
BRANCH  23  24
ATOM     24  C   UNL d   1      53.365  34.038  54.064  0.00  0.00     0.101 C 
BRANCH  24  25
ATOM     25  C   UNL d   1      53.665  33.748  54.772  0.00  0.00     0.021 C 
BRANCH  25  26
ATOM     26  C   UNL d   1      54.354  34.085  55.103  0.00  0.00     0.002 C 
ATOM     27  C   UNL d   1      55.039  33.628  55.208  0.00  0.00     0.000 C 
ENDBRANCH  25  26
ENDBRANCH  24  25
ENDBRANCH  23  24
ENDBRANCH  12  23
ENDBRANCH   1   9
TORSDOF 7
ENDMDL
