MODEL 1
REMARK VINA RESULT:      -6.0      0.000      0.000
REMARK  8 active torsions:
REMARK  status: ('A' for Active; 'I' for Inactive)
REMARK    1  A    between atoms: C_7  and  C_1 
REMARK    2  A    between atoms: C_10  and  N_2 
REMARK    3  A    between atoms: C_13  and  C_5 
REMARK    4  A    between atoms: C_6  and  C_7 
REMARK    5  A    between atoms: C_18  and  C_10 
REMARK    6  A    between atoms: N_19  and  C_18 
REMARK    7  A    between atoms: C_25  and  N_19 
REMARK    8  A    between atoms: C_26  and  N_19 
ROOT
ATOM      1  C   UNL d   1      52.876  32.417  53.005  0.00  0.00     0.101 A 
ATOM      2  N   UNL d   1      53.213  31.257  53.573  0.00  0.00    -0.269 N 
ATOM      3  C   UNL d   1      52.476  31.810  52.608  0.00  0.00     0.256 A 
ATOM      4  C   UNL d   1      52.683  31.096  52.958  0.00  0.00     0.304 A 
ATOM      5  C   UNL d   1      53.329  32.069  53.599  0.00  0.00     0.075 A 
ATOM      6  O   UNL d   1      52.408  30.347  52.730  0.00  0.00    -0.263 OA
ATOM      7  O   UNL d   1      51.955  31.904  51.967  0.00  0.00    -0.281 OA
ENDROOT
BRANCH   1   8
ATOM      8  C   UNL d   1      52.825  33.222  52.831  0.00  0.00     0.223 C 
ATOM      9  O   UNL d   1      53.511  33.649  52.648  0.00  0.00    -0.284 OA
BRANCH   8  10
ATOM     10  C   UNL d   1      52.097  33.609  52.839  0.00  0.00     0.139 A 
ATOM     11  O   UNL d   1      51.663  33.818  53.511  0.00  0.00    -0.304 OA
ATOM     12  C   UNL d   1      50.975  34.192  53.257  0.00  0.00     0.100 A 
ATOM     13  C   UNL d   1      50.341  34.515  53.676  0.00  0.00     0.025 A 
ATOM     14  C   UNL d   1      50.979  34.215  52.439  0.00  0.00     0.025 A 
ATOM     15  C   UNL d   1      49.718  34.859  53.272  0.00  0.00     0.002 A 
ATOM     16  C   UNL d   1      49.728  34.879  52.448  0.00  0.00     0.000 A 
ATOM     17  C   UNL d   1      50.354  34.560  52.031  0.00  0.00     0.002 A 
ATOM     18  C   UNL d   1      51.677  33.853  52.182  0.00  0.00     0.030 A 
ENDBRANCH   8  10
ENDBRANCH   1   8
BRANCH   5  19
ATOM     19  C   UNL d   1      53.820  32.484  54.133  0.00  0.00     0.036 A 
ATOM     20  C   UNL d   1      54.586  32.698  53.903  0.00  0.00     0.100 A 
ATOM     21  N   UNL d   1      55.073  33.106  54.426  0.00  0.00    -0.242 NA
ATOM     22  C   UNL d   1      54.795  33.307  55.193  0.00  0.00     0.099 A 
ATOM     23  C   UNL d   1      54.024  33.088  55.416  0.00  0.00     0.021 A 
ATOM     24  C   UNL d   1      53.541  32.678  54.885  0.00  0.00     0.005 A 
ENDBRANCH   5  19
BRANCH   2  25
ATOM     25  C   UNL d   1      53.561  30.692  54.071  0.00  0.00     0.102 C 
BRANCH  25  26
ATOM     26  C   UNL d   1      53.259  29.927  54.106  0.00  0.00     0.100 C 
BRANCH  26  27
ATOM     27  N   UNL d   1      53.508  29.409  54.707  0.00  0.00    -0.301 N 
BRANCH  27  28
ATOM     28  C   UNL d   1      54.071  28.829  54.537  0.00  0.00     0.080 C 
ATOM     29  C   UNL d   1      53.851  28.038  54.473  0.00  0.00     0.021 C 
ENDBRANCH  27  28
BRANCH  27  30
ATOM     30  C   UNL d   1      53.193  29.479  55.462  0.00  0.00     0.080 C 
ATOM     31  C   UNL d   1      53.188  28.831  55.975  0.00  0.00     0.021 C 
ENDBRANCH  27  30
ENDBRANCH  26  27
ENDBRANCH  25  26
ENDBRANCH   2  25
TORSDOF 8
ENDMDL
MODEL 2
REMARK VINA RESULT:      -5.8      1.123      4.501
REMARK  8 active torsions:
REMARK  status: ('A' for Active; 'I' for Inactive)
REMARK    1  A    between atoms: C_7  and  C_1 
REMARK    2  A    between atoms: C_10  and  N_2 
REMARK    3  A    between atoms: C_13  and  C_5 
REMARK    4  A    between atoms: C_6  and  C_7 
REMARK    5  A    between atoms: C_18  and  C_10 
REMARK    6  A    between atoms: N_19  and  C_18 
REMARK    7  A    between atoms: C_25  and  N_19 
REMARK    8  A    between atoms: C_26  and  N_19 
ROOT
ATOM      1  C   UNL d   1      53.377  31.595  53.252  0.00  0.00     0.101 A 
ATOM      2  N   UNL d   1      52.673  32.728  53.221  0.00  0.00    -0.269 N 
ATOM      3  C   UNL d   1      52.715  31.472  52.771  0.00  0.00     0.256 A 
ATOM      4  C   UNL d   1      52.281  32.170  52.752  0.00  0.00     0.304 A 
ATOM      5  C   UNL d   1      53.345  32.371  53.526  0.00  0.00     0.075 A 
ATOM      6  O   UNL d   1      51.574  32.291  52.334  0.00  0.00    -0.263 OA
ATOM      7  O   UNL d   1      52.520  30.768  52.375  0.00  0.00    -0.281 OA
ENDROOT
BRANCH   1   8
ATOM      8  C   UNL d   1      53.960  31.036  53.421  0.00  0.00     0.223 C 
ATOM      9  O   UNL d   1      54.727  31.137  53.127  0.00  0.00    -0.284 OA
BRANCH   8  10
ATOM     10  C   UNL d   1      53.787  30.375  53.882  0.00  0.00     0.139 A 
ATOM     11  O   UNL d   1      53.391  30.376  54.609  0.00  0.00    -0.304 OA
ATOM     12  C   UNL d   1      53.342  29.597  54.867  0.00  0.00     0.100 A 
ATOM     13  C   UNL d   1      53.010  29.267  55.548  0.00  0.00     0.025 A 
ATOM     14  C   UNL d   1      53.701  29.116  54.312  0.00  0.00     0.025 A 
ATOM     15  C   UNL d   1      53.042  28.457  55.665  0.00  0.00     0.002 A 
ATOM     16  C   UNL d   1      53.405  27.978  55.101  0.00  0.00     0.000 A 
ATOM     17  C   UNL d   1      53.733  28.302  54.428  0.00  0.00     0.002 A 
ATOM     18  C   UNL d   1      53.976  29.601  53.701  0.00  0.00     0.030 A 
ENDBRANCH   8  10
ENDBRANCH   1   8
BRANCH   5  19
ATOM     19  C   UNL d   1      53.910  32.725  54.031  0.00  0.00     0.036 A 
ATOM     20  C   UNL d   1      54.606  33.040  53.711  0.00  0.00     0.100 A 
ATOM     21  N   UNL d   1      55.164  33.389  54.205  0.00  0.00    -0.242 NA
ATOM     22  C   UNL d   1      55.030  33.427  55.033  0.00  0.00     0.099 A 
ATOM     23  C   UNL d   1      54.328  33.108  55.347  0.00  0.00     0.021 A 
ATOM     24  C   UNL d   1      53.773  32.759  54.844  0.00  0.00     0.005 A 
ENDBRANCH   5  19
BRANCH   2  25
ATOM     25  C   UNL d   1      52.423  33.508  53.355  0.00  0.00     0.102 C 
BRANCH  25  26
ATOM     26  C   UNL d   1      51.691  33.764  53.077  0.00  0.00     0.100 C 
BRANCH  26  27
ATOM     27  N   UNL d   1      51.397  34.507  53.305  0.00  0.00    -0.301 N 
BRANCH  27  28
ATOM     28  C   UNL d   1      50.591  34.595  53.462  0.00  0.00     0.080 C 
ATOM     29  C   UNL d   1      50.066  34.787  52.858  0.00  0.00     0.021 C 
ENDBRANCH  27  28
BRANCH  27  30
ATOM     30  C   UNL d   1      51.910  35.145  53.371  0.00  0.00     0.080 C 
ATOM     31  C   UNL d   1      51.924  35.601  54.060  0.00  0.00     0.021 C 
ENDBRANCH  27  30
ENDBRANCH  26  27
ENDBRANCH  25  26
ENDBRANCH   2  25
TORSDOF 8
ENDMDL
MODEL 3
REMARK VINA RESULT:      -5.2      1.885      3.156
REMARK  8 active torsions:
REMARK  status: ('A' for Active; 'I' for Inactive)
REMARK    1  A    between atoms: C_7  and  C_1 
REMARK    2  A    between atoms: C_10  and  N_2 
REMARK    3  A    between atoms: C_13  and  C_5 
REMARK    4  A    between atoms: C_6  and  C_7 
REMARK    5  A    between atoms: C_18  and  C_10 
REMARK    6  A    between atoms: N_19  and  C_18 
REMARK    7  A    between atoms: C_25  and  N_19 
REMARK    8  A    between atoms: C_26  and  N_19 
ROOT
ATOM      1  C   UNL d   1      51.963  34.247  52.855  0.00  0.00     0.101 A 
ATOM      2  N   UNL d   1      52.779  34.015  53.885  0.00  0.00    -0.269 N 
ATOM      3  C   UNL d   1      52.176  34.977  53.184  0.00  0.00     0.256 A 
ATOM      4  C   UNL d   1      52.678  34.834  53.818  0.00  0.00     0.304 A 
ATOM      5  C   UNL d   1      52.339  33.659  53.292  0.00  0.00     0.075 A 
ATOM      6  O   UNL d   1      53.022  35.412  54.305  0.00  0.00    -0.263 OA
ATOM      7  O   UNL d   1      51.926  35.724  52.921  0.00  0.00    -0.281 OA
ENDROOT
BRANCH   1   8
ATOM      8  C   UNL d   1      51.465  34.137  52.206  0.00  0.00     0.223 C 
ATOM      9  O   UNL d   1      51.753  33.772  51.522  0.00  0.00    -0.284 OA
BRANCH   8  10
ATOM     10  C   UNL d   1      50.680  34.387  52.233  0.00  0.00     0.139 A 
ATOM     11  O   UNL d   1      50.285  34.689  52.895  0.00  0.00    -0.304 OA
ATOM     12  C   UNL d   1      49.515  34.866  52.667  0.00  0.00     0.100 A 
ATOM     13  C   UNL d   1      48.878  35.178  53.089  0.00  0.00     0.025 A 
ATOM     14  C   UNL d   1      49.429  34.678  51.875  0.00  0.00     0.025 A 
ATOM     15  C   UNL d   1      48.160  35.298  52.714  0.00  0.00     0.002 A 
ATOM     16  C   UNL d   1      48.080  35.107  51.917  0.00  0.00     0.000 A 
ATOM     17  C   UNL d   1      48.708  34.798  51.497  0.00  0.00     0.002 A 
ATOM     18  C   UNL d   1      50.153  34.381  51.608  0.00  0.00     0.030 A 
ENDBRANCH   8  10
ENDBRANCH   1   8
BRANCH   5  19
ATOM     19  C   UNL d   1      52.275  32.838  53.147  0.00  0.00     0.036 A 
ATOM     20  C   UNL d   1      52.792  32.474  52.612  0.00  0.00     0.100 A 
ATOM     21  N   UNL d   1      52.732  31.667  52.466  0.00  0.00    -0.242 NA
ATOM     22  C   UNL d   1      52.147  31.209  52.858  0.00  0.00     0.099 A 
ATOM     23  C   UNL d   1      51.631  31.581  53.394  0.00  0.00     0.021 A 
ATOM     24  C   UNL d   1      51.698  32.394  53.535  0.00  0.00     0.005 A 
ENDBRANCH   5  19
BRANCH   2  25
ATOM     25  C   UNL d   1      53.245  33.631  54.454  0.00  0.00     0.102 C 
BRANCH  25  26
ATOM     26  C   UNL d   1      53.930  33.988  54.741  0.00  0.00     0.100 C 
BRANCH  26  27
ATOM     27  N   UNL d   1      54.505  33.531  55.130  0.00  0.00    -0.301 N 
BRANCH  27  28
ATOM     28  C   UNL d   1      55.252  33.441  54.789  0.00  0.00     0.080 C 
ATOM     29  C   UNL d   1      55.840  34.002  54.918  0.00  0.00     0.021 C 
ENDBRANCH  27  28
BRANCH  27  30
ATOM     30  C   UNL d   1      54.326  33.174  55.847  0.00  0.00     0.080 C 
ATOM     31  C   UNL d   1      54.343  32.350  55.920  0.00  0.00     0.021 C 
ENDBRANCH  27  30
ENDBRANCH  26  27
ENDBRANCH  25  26
ENDBRANCH   2  25
TORSDOF 8
ENDMDL
MODEL 4
REMARK VINA RESULT:      -4.7      1.622      4.706
REMARK  8 active torsions:
REMARK  status: ('A' for Active; 'I' for Inactive)
REMARK    1  A    between atoms: C_7  and  C_1 
REMARK    2  A    between atoms: C_10  and  N_2 
REMARK    3  A    between atoms: C_13  and  C_5 
REMARK    4  A    between atoms: C_6  and  C_7 
REMARK    5  A    between atoms: C_18  and  C_10 
REMARK    6  A    between atoms: N_19  and  C_18 
REMARK    7  A    between atoms: C_25  and  N_19 
REMARK    8  A    between atoms: C_26  and  N_19 
ROOT
ATOM      1  C   UNL d   1      53.405  32.255  53.176  0.00  0.00     0.101 A 
ATOM      2  N   UNL d   1      53.550  33.519  53.581  0.00  0.00    -0.269 N 
ATOM      3  C   UNL d   1      54.202  32.375  53.366  0.00  0.00     0.256 A 
ATOM      4  C   UNL d   1      54.291  33.153  53.615  0.00  0.00     0.304 A 
ATOM      5  C   UNL d   1      53.009  32.965  53.311  0.00  0.00     0.075 A 
ATOM      6  O   UNL d   1      55.002  33.506  53.858  0.00  0.00    -0.263 OA
ATOM      7  O   UNL d   1      54.808  31.808  53.315  0.00  0.00    -0.281 OA
ENDROOT
BRANCH   1   8
ATOM      8  C   UNL d   1      53.075  31.550  52.902  0.00  0.00     0.223 C 
ATOM      9  O   UNL d   1      52.696  31.531  52.167  0.00  0.00    -0.284 OA
BRANCH   8  10
ATOM     10  C   UNL d   1      53.118  30.863  53.355  0.00  0.00     0.139 A 
ATOM     11  O   UNL d   1      53.116  30.821  54.182  0.00  0.00    -0.304 OA
ATOM     12  C   UNL d   1      53.167  30.027  54.391  0.00  0.00     0.100 A 
ATOM     13  C   UNL d   1      53.188  29.657  55.129  0.00  0.00     0.025 A 
ATOM     14  C   UNL d   1      53.200  29.580  53.707  0.00  0.00     0.025 A 
ATOM     15  C   UNL d   1      53.242  28.841  55.174  0.00  0.00     0.002 A 
ATOM     16  C   UNL d   1      53.274  28.396  54.481  0.00  0.00     0.000 A 
ATOM     17  C   UNL d   1      53.254  28.760  53.751  0.00  0.00     0.002 A 
ATOM     18  C   UNL d   1      53.169  30.100  53.065  0.00  0.00     0.030 A 
ENDBRANCH   8  10
ENDBRANCH   1   8
BRANCH   5  19
ATOM     19  C   UNL d   1      52.191  33.088  53.189  0.00  0.00     0.036 A 
ATOM     20  C   UNL d   1      51.651  32.871  53.779  0.00  0.00     0.100 A 
ATOM     21  N   UNL d   1      50.845  32.991  53.663  0.00  0.00    -0.242 NA
ATOM     22  C   UNL d   1      50.568  33.332  52.948  0.00  0.00     0.099 A 
ATOM     23  C   UNL d   1      51.116  33.548  52.359  0.00  0.00     0.021 A 
ATOM     24  C   UNL d   1      51.924  33.424  52.484  0.00  0.00     0.005 A 
ENDBRANCH   5  19
BRANCH   2  25
ATOM     25  C   UNL d   1      53.390  34.308  53.785  0.00  0.00     0.102 C 
BRANCH  25  26
ATOM     26  C   UNL d   1      53.673  34.619  54.493  0.00  0.00     0.100 C 
BRANCH  26  27
ATOM     27  N   UNL d   1      53.347  35.321  54.797  0.00  0.00    -0.301 N 
BRANCH  27  28
ATOM     28  C   UNL d   1      53.366  36.009  54.341  0.00  0.00     0.080 C 
ATOM     29  C   UNL d   1      53.041  36.709  54.628  0.00  0.00     0.021 C 
ENDBRANCH  27  28
BRANCH  27  30
ATOM     30  C   UNL d   1      53.011  35.322  55.546  0.00  0.00     0.080 C 
ATOM     31  C   UNL d   1      53.477  35.179  56.214  0.00  0.00     0.021 C 
ENDBRANCH  27  30
ENDBRANCH  26  27
ENDBRANCH  25  26
ENDBRANCH   2  25
TORSDOF 8
ENDMDL
MODEL 5
REMARK VINA RESULT:      -4.6      1.289      4.542
REMARK  8 active torsions:
REMARK  status: ('A' for Active; 'I' for Inactive)
REMARK    1  A    between atoms: C_7  and  C_1 
REMARK    2  A    between atoms: C_10  and  N_2 
REMARK    3  A    between atoms: C_13  and  C_5 
REMARK    4  A    between atoms: C_6  and  C_7 
REMARK    5  A    between atoms: C_18  and  C_10 
REMARK    6  A    between atoms: N_19  and  C_18 
REMARK    7  A    between atoms: C_25  and  N_19 
REMARK    8  A    between atoms: C_26  and  N_19 
ROOT
ATOM      1  C   UNL d   1      53.023  32.114  53.214  0.00  0.00     0.101 A 
ATOM      2  N   UNL d   1      52.077  33.037  53.025  0.00  0.00    -0.269 N 
ATOM      3  C   UNL d   1      52.485  31.820  52.657  0.00  0.00     0.256 A 
ATOM      4  C   UNL d   1      51.902  32.389  52.540  0.00  0.00     0.304 A 
ATOM      5  C   UNL d   1      52.765  32.864  53.436  0.00  0.00     0.075 A 
ATOM      6  O   UNL d   1      51.254  32.320  52.026  0.00  0.00    -0.263 OA
ATOM      7  O   UNL d   1      52.524  31.081  52.280  0.00  0.00    -0.281 OA
ENDROOT
BRANCH   1   8
ATOM      8  C   UNL d   1      53.693  31.720  53.491  0.00  0.00     0.223 C 
ATOM      9  O   UNL d   1      54.441  32.063  53.398  0.00  0.00    -0.284 OA
BRANCH   8  10
ATOM     10  C   UNL d   1      53.626  30.987  53.861  0.00  0.00     0.139 A 
ATOM     11  O   UNL d   1      53.329  30.848  54.621  0.00  0.00    -0.304 OA
ATOM     12  C   UNL d   1      53.367  30.038  54.760  0.00  0.00     0.100 A 
ATOM     13  C   UNL d   1      53.149  29.586  55.415  0.00  0.00     0.025 A 
ATOM     14  C   UNL d   1      53.683  29.676  54.098  0.00  0.00     0.025 A 
ATOM     15  C   UNL d   1      53.251  28.773  55.401  0.00  0.00     0.002 A 
ATOM     16  C   UNL d   1      53.570  28.414  54.731  0.00  0.00     0.000 A 
ATOM     17  C   UNL d   1      53.786  28.860  54.082  0.00  0.00     0.002 A 
ATOM     18  C   UNL d   1      53.843  30.267  53.542  0.00  0.00     0.030 A 
ENDBRANCH   8  10
ENDBRANCH   1   8
BRANCH   5  19
ATOM     19  C   UNL d   1      53.149  33.358  53.990  0.00  0.00     0.036 A 
ATOM     20  C   UNL d   1      52.912  33.347  54.784  0.00  0.00     0.100 A 
ATOM     21  N   UNL d   1      53.288  33.832  55.332  0.00  0.00    -0.242 NA
ATOM     22  C   UNL d   1      53.912  34.339  55.090  0.00  0.00     0.099 A 
ATOM     23  C   UNL d   1      54.145  34.345  54.291  0.00  0.00     0.021 A 
ATOM     24  C   UNL d   1      53.762  33.854  53.746  0.00  0.00     0.005 A 
ENDBRANCH   5  19
BRANCH   2  25
ATOM     25  C   UNL d   1      51.630  33.734  53.079  0.00  0.00     0.102 C 
BRANCH  25  26
ATOM     26  C   UNL d   1      50.828  33.729  52.892  0.00  0.00     0.100 C 
BRANCH  26  27
ATOM     27  N   UNL d   1      50.406  34.444  52.852  0.00  0.00    -0.301 N 
BRANCH  27  28
ATOM     28  C   UNL d   1      50.204  34.756  52.114  0.00  0.00     0.080 C 
ATOM     29  C   UNL d   1      49.458  34.621  51.793  0.00  0.00     0.021 C 
ENDBRANCH  27  28
BRANCH  27  30
ATOM     30  C   UNL d   1      50.195  34.832  53.544  0.00  0.00     0.080 C 
ATOM     31  C   UNL d   1      49.477  35.239  53.593  0.00  0.00     0.021 C 
ENDBRANCH  27  30
ENDBRANCH  26  27
ENDBRANCH  25  26
ENDBRANCH   2  25
TORSDOF 8
ENDMDL
MODEL 6
REMARK VINA RESULT:      -4.3      1.683      4.696
REMARK  8 active torsions:
REMARK  status: ('A' for Active; 'I' for Inactive)
REMARK    1  A    between atoms: C_7  and  C_1 
REMARK    2  A    between atoms: C_10  and  N_2 
REMARK    3  A    between atoms: C_13  and  C_5 
REMARK    4  A    between atoms: C_6  and  C_7 
REMARK    5  A    between atoms: C_18  and  C_10 
REMARK    6  A    between atoms: N_19  and  C_18 
REMARK    7  A    between atoms: C_25  and  N_19 
REMARK    8  A    between atoms: C_26  and  N_19 
ROOT
ATOM      1  C   UNL d   1      52.365  33.017  52.981  0.00  0.00     0.101 A 
ATOM      2  N   UNL d   1      51.287  33.804  52.977  0.00  0.00    -0.269 N 
ATOM      3  C   UNL d   1      51.784  32.654  52.515  0.00  0.00     0.256 A 
ATOM      4  C   UNL d   1      51.120  33.139  52.513  0.00  0.00     0.304 A 
ATOM      5  C   UNL d   1      52.051  33.725  53.262  0.00  0.00     0.075 A 
ATOM      6  O   UNL d   1      50.409  32.984  52.113  0.00  0.00    -0.263 OA
ATOM      7  O   UNL d   1      51.857  31.928  52.119  0.00  0.00    -0.281 OA
ENDROOT
BRANCH   1   8
ATOM      8  C   UNL d   1      53.119  32.717  53.132  0.00  0.00     0.223 C 
ATOM      9  O   UNL d   1      53.786  33.181  52.973  0.00  0.00    -0.284 OA
BRANCH   8  10
ATOM     10  C   UNL d   1      53.216  31.959  53.440  0.00  0.00     0.139 A 
ATOM     11  O   UNL d   1      53.110  31.735  54.229  0.00  0.00    -0.304 OA
ATOM     12  C   UNL d   1      53.266  30.929  54.283  0.00  0.00     0.100 A 
ATOM     13  C   UNL d   1      53.248  30.411  54.926  0.00  0.00     0.025 A 
ATOM     14  C   UNL d   1      53.466  30.653  53.539  0.00  0.00     0.025 A 
ATOM     15  C   UNL d   1      53.432  29.621  54.817  0.00  0.00     0.002 A 
ATOM     16  C   UNL d   1      53.633  29.349  54.065  0.00  0.00     0.000 A 
ATOM     17  C   UNL d   1      53.651  29.859  53.429  0.00  0.00     0.002 A 
ATOM     18  C   UNL d   1      53.434  31.294  53.018  0.00  0.00     0.030 A 
ENDBRANCH   8  10
ENDBRANCH   1   8
BRANCH   5  19
ATOM     19  C   UNL d   1      52.455  34.266  53.756  0.00  0.00     0.036 A 
ATOM     20  C   UNL d   1      52.425  34.172  54.578  0.00  0.00     0.100 A 
ATOM     21  N   UNL d   1      52.821  34.702  55.067  0.00  0.00    -0.242 NA
ATOM     22  C   UNL d   1      53.256  35.339  54.735  0.00  0.00     0.099 A 
ATOM     23  C   UNL d   1      53.282  35.427  53.908  0.00  0.00     0.021 A 
ATOM     24  C   UNL d   1      52.881  34.890  53.423  0.00  0.00     0.005 A 
ENDBRANCH   5  19
BRANCH   2  25
ATOM     25  C   UNL d   1      50.767  34.434  53.122  0.00  0.00     0.102 C 
BRANCH  25  26
ATOM     26  C   UNL d   1      49.989  34.401  52.853  0.00  0.00     0.100 C 
BRANCH  26  27
ATOM     27  N   UNL d   1      49.487  35.057  52.953  0.00  0.00    -0.301 N 
BRANCH  27  28
ATOM     28  C   UNL d   1      49.188  35.445  52.289  0.00  0.00     0.080 C 
ATOM     29  C   UNL d   1      48.463  35.225  51.966  0.00  0.00     0.021 C 
ENDBRANCH  27  28
BRANCH  27  30
ATOM     30  C   UNL d   1      49.294  35.310  53.710  0.00  0.00     0.080 C 
ATOM     31  C   UNL d   1      48.689  35.862  53.825  0.00  0.00     0.021 C 
ENDBRANCH  27  30
ENDBRANCH  26  27
ENDBRANCH  25  26
ENDBRANCH   2  25
TORSDOF 8
ENDMDL
MODEL 7
REMARK VINA RESULT:      -4.1      1.607      2.660
REMARK  8 active torsions:
REMARK  status: ('A' for Active; 'I' for Inactive)
REMARK    1  A    between atoms: C_7  and  C_1 
REMARK    2  A    between atoms: C_10  and  N_2 
REMARK    3  A    between atoms: C_13  and  C_5 
REMARK    4  A    between atoms: C_6  and  C_7 
REMARK    5  A    between atoms: C_18  and  C_10 
REMARK    6  A    between atoms: N_19  and  C_18 
REMARK    7  A    between atoms: C_25  and  N_19 
REMARK    8  A    between atoms: C_26  and  N_19 
ROOT
ATOM      1  C   UNL d   1      51.021  33.873  52.790  0.00  0.00     0.101 A 
ATOM      2  N   UNL d   1      51.793  33.082  53.539  0.00  0.00    -0.269 N 
ATOM      3  C   UNL d   1      50.679  33.119  52.806  0.00  0.00     0.256 A 
ATOM      4  C   UNL d   1      51.154  32.632  53.267  0.00  0.00     0.304 A 
ATOM      5  C   UNL d   1      51.708  33.842  53.244  0.00  0.00     0.075 A 
ATOM      6  O   UNL d   1      51.013  31.830  53.429  0.00  0.00    -0.263 OA
ATOM      7  O   UNL d   1      49.977  32.892  52.423  0.00  0.00    -0.281 OA
ENDROOT
BRANCH   1   8
ATOM      8  C   UNL d   1      50.724  34.530  52.390  0.00  0.00     0.223 C 
ATOM      9  O   UNL d   1      51.147  34.855  51.757  0.00  0.00    -0.284 OA
BRANCH   8  10
ATOM     10  C   UNL d   1      50.006  34.869  52.614  0.00  0.00     0.139 A 
ATOM     11  O   UNL d   1      49.825  35.181  53.358  0.00  0.00    -0.304 OA
ATOM     12  C   UNL d   1      49.050  35.457  53.331  0.00  0.00     0.100 A 
ATOM     13  C   UNL d   1      48.579  35.820  53.904  0.00  0.00     0.025 A 
ATOM     14  C   UNL d   1      48.752  35.320  52.581  0.00  0.00     0.025 A 
ATOM     15  C   UNL d   1      47.812  36.042  53.719  0.00  0.00     0.002 A 
ATOM     16  C   UNL d   1      47.518  35.901  52.963  0.00  0.00     0.000 A 
ATOM     17  C   UNL d   1      47.982  35.543  52.395  0.00  0.00     0.002 A 
ATOM     18  C   UNL d   1      49.347  34.955  52.138  0.00  0.00     0.030 A 
ENDBRANCH   8  10
ENDBRANCH   1   8
BRANCH   5  19
ATOM     19  C   UNL d   1      52.225  34.486  53.375  0.00  0.00     0.036 A 
ATOM     20  C   UNL d   1      52.172  34.918  54.080  0.00  0.00     0.100 A 
ATOM     21  N   UNL d   1      52.679  35.553  54.213  0.00  0.00    -0.242 NA
ATOM     22  C   UNL d   1      53.251  35.764  53.636  0.00  0.00     0.099 A 
ATOM     23  C   UNL d   1      53.299  35.325  52.930  0.00  0.00     0.021 A 
ATOM     24  C   UNL d   1      52.785  34.689  52.804  0.00  0.00     0.005 A 
ENDBRANCH   5  19
BRANCH   2  25
ATOM     25  C   UNL d   1      52.407  32.805  54.023  0.00  0.00     0.102 C 
BRANCH  25  26
ATOM     26  C   UNL d   1      52.774  32.086  53.860  0.00  0.00     0.100 C 
BRANCH  26  27
ATOM     27  N   UNL d   1      53.499  31.898  54.220  0.00  0.00    -0.301 N 
BRANCH  27  28
ATOM     28  C   UNL d   1      54.093  31.535  53.775  0.00  0.00     0.080 C 
ATOM     29  C   UNL d   1      54.016  30.751  53.537  0.00  0.00     0.021 C 
ENDBRANCH  27  28
BRANCH  27  30
ATOM     30  C   UNL d   1      53.618  32.075  55.013  0.00  0.00     0.080 C 
ATOM     31  C   UNL d   1      54.325  32.425  55.262  0.00  0.00     0.021 C 
ENDBRANCH  27  30
ENDBRANCH  26  27
ENDBRANCH  25  26
ENDBRANCH   2  25
TORSDOF 8
ENDMDL
