MODEL 1
REMARK VINA RESULT:      -8.9      0.000      0.000
REMARK  2 active torsions:
REMARK  status: ('A' for Active; 'I' for Inactive)
REMARK    1  A    between atoms: N_2  and  S_1 
REMARK    2  A    between atoms: C_4  and  S_1 
ROOT
ATOM      1  S   UNL d   1     -48.031  13.591  22.462  0.00  0.00     0.273 S 
ATOM      2  O   UNL d   1     -48.557  13.957  22.979  0.00  0.00    -0.200 OA
ATOM      3  O   UNL d   1     -48.266  13.424  21.690  0.00  0.00    -0.200 OA
ENDROOT
BRANCH   1   4
ATOM      4  N   UNL d   1     -47.272  13.394  22.718  0.00  0.00    -0.212 N 
ATOM      5  C   UNL d   1     -46.655  13.949  22.647  0.00  0.00     0.193 A 
ATOM      6  N   UNL d   1     -45.889  13.750  22.905  0.00  0.00    -0.223 NA
ATOM      7  C   UNL d   1     -46.360  12.451  23.300  0.00  0.00     0.100 A 
ATOM      8  C   UNL d   1     -47.122  12.638  23.048  0.00  0.00     0.094 A 
ATOM      9  C   UNL d   1     -46.213  11.697  23.629  0.00  0.00     0.021 A 
ATOM     10  C   UNL d   1     -47.735  12.093  23.116  0.00  0.00     0.020 A 
ATOM     11  C   UNL d   1     -47.590  11.346  23.441  0.00  0.00     0.002 A 
ATOM     12  C   UNL d   1     -46.828  11.148  23.697  0.00  0.00     0.002 A 
ENDBRANCH   1   4
BRANCH   1  13
ATOM     13  C   UNL d   1     -48.784  13.791  22.221  0.00  0.00     0.104 A 
ATOM     14  C   UNL d   1     -49.166  14.437  22.568  0.00  0.00     0.012 A 
ATOM     15  C   UNL d   1     -49.921  14.644  22.332  0.00  0.00     0.001 A 
ATOM     16  C   UNL d   1     -48.780  14.868  23.153  0.00  0.00     0.001 C 
ATOM     17  C   UNL d   1     -50.307  14.207  21.743  0.00  0.00     0.000 A 
ATOM     18  C   UNL d   1     -49.927  13.561  21.394  0.00  0.00     0.001 A 
ATOM     19  C   UNL d   1     -51.064  14.414  21.505  0.00  0.00     0.000 C 
ATOM     20  C   UNL d   1     -49.166  13.359  21.638  0.00  0.00     0.013 A 
ENDBRANCH   1  13
TORSDOF 2
ENDMDL
MODEL 2
REMARK VINA RESULT:      -8.8      1.038      3.563
REMARK  2 active torsions:
REMARK  status: ('A' for Active; 'I' for Inactive)
REMARK    1  A    between atoms: N_2  and  S_1 
REMARK    2  A    between atoms: C_4  and  S_1 
ROOT
ATOM      1  S   UNL d   1     -48.514  13.436  23.067  0.00  0.00     0.273 S 
ATOM      2  O   UNL d   1     -47.787  13.464  22.682  0.00  0.00    -0.200 OA
ATOM      3  O   UNL d   1     -48.662  12.841  23.619  0.00  0.00    -0.200 OA
ENDROOT
BRANCH   1   4
ATOM      4  N   UNL d   1     -49.091  14.002  22.900  0.00  0.00    -0.212 N 
ATOM      5  C   UNL d   1     -49.059  14.746  23.274  0.00  0.00     0.193 A 
ATOM      6  N   UNL d   1     -49.642  15.317  23.106  0.00  0.00    -0.223 NA
ATOM      7  C   UNL d   1     -50.277  14.401  22.199  0.00  0.00     0.100 A 
ATOM      8  C   UNL d   1     -49.706  13.829  22.358  0.00  0.00     0.094 A 
ATOM      9  C   UNL d   1     -50.889  14.226  21.657  0.00  0.00     0.021 A 
ATOM     10  C   UNL d   1     -49.732  13.092  21.991  0.00  0.00     0.020 A 
ATOM     11  C   UNL d   1     -50.338  12.918  21.455  0.00  0.00     0.002 A 
ATOM     12  C   UNL d   1     -50.917  13.486  21.288  0.00  0.00     0.002 A 
ENDBRANCH   1   4
BRANCH   1  13
ATOM     13  C   UNL d   1     -47.935  12.883  23.224  0.00  0.00     0.104 A 
ATOM     14  C   UNL d   1     -47.144  13.062  23.065  0.00  0.00     0.012 A 
ATOM     15  C   UNL d   1     -46.559  12.514  23.218  0.00  0.00     0.001 A 
ATOM     16  C   UNL d   1     -46.952  13.798  22.751  0.00  0.00     0.001 C 
ATOM     17  C   UNL d   1     -46.756  11.773  23.535  0.00  0.00     0.000 A 
ATOM     18  C   UNL d   1     -47.546  11.590  23.695  0.00  0.00     0.001 A 
ATOM     19  C   UNL d   1     -46.169  11.221  23.689  0.00  0.00     0.000 C 
ATOM     20  C   UNL d   1     -48.130  12.149  23.537  0.00  0.00     0.013 A 
ENDBRANCH   1  13
TORSDOF 2
ENDMDL
MODEL 3
REMARK VINA RESULT:      -8.4      1.637      3.722
REMARK  2 active torsions:
REMARK  status: ('A' for Active; 'I' for Inactive)
REMARK    1  A    between atoms: N_2  and  S_1 
REMARK    2  A    between atoms: C_4  and  S_1 
ROOT
ATOM      1  S   UNL d   1     -48.688  13.429  22.939  0.00  0.00     0.273 S 
ATOM      2  O   UNL d   1     -48.428  13.438  22.157  0.00  0.00    -0.200 OA
ATOM      3  O   UNL d   1     -48.138  13.384  23.551  0.00  0.00    -0.200 OA
ENDROOT
BRANCH   1   4
ATOM      4  N   UNL d   1     -49.495  13.466  23.106  0.00  0.00    -0.212 N 
ATOM      5  C   UNL d   1     -49.943  12.764  23.132  0.00  0.00     0.193 A 
ATOM      6  N   UNL d   1     -50.757  12.801  23.301  0.00  0.00    -0.223 NA
ATOM      7  C   UNL d   1     -50.669  14.230  23.416  0.00  0.00     0.100 A 
ATOM      8  C   UNL d   1     -49.862  14.206  23.250  0.00  0.00     0.094 A 
ATOM      9  C   UNL d   1     -51.032  14.969  23.559  0.00  0.00     0.021 A 
ATOM     10  C   UNL d   1     -49.414  14.896  23.223  0.00  0.00     0.020 A 
ATOM     11  C   UNL d   1     -49.774  15.627  23.365  0.00  0.00     0.002 A 
ATOM     12  C   UNL d   1     -50.583  15.664  23.533  0.00  0.00     0.002 A 
ENDBRANCH   1   4
BRANCH   1  13
ATOM     13  C   UNL d   1     -47.892  13.394  22.760  0.00  0.00     0.104 A 
ATOM     14  C   UNL d   1     -47.652  13.140  22.011  0.00  0.00     0.012 A 
ATOM     15  C   UNL d   1     -46.858  13.102  21.824  0.00  0.00     0.001 A 
ATOM     16  C   UNL d   1     -48.221  12.928  21.455  0.00  0.00     0.001 C 
ATOM     17  C   UNL d   1     -46.288  13.317  22.387  0.00  0.00     0.000 A 
ATOM     18  C   UNL d   1     -46.525  13.570  23.137  0.00  0.00     0.001 A 
ATOM     19  C   UNL d   1     -45.490  13.278  22.200  0.00  0.00     0.000 C 
ATOM     20  C   UNL d   1     -47.328  13.606  23.317  0.00  0.00     0.013 A 
ENDBRANCH   1  13
TORSDOF 2
ENDMDL
MODEL 4
REMARK VINA RESULT:      -8.3      0.892      1.766
REMARK  2 active torsions:
REMARK  status: ('A' for Active; 'I' for Inactive)
REMARK    1  A    between atoms: N_2  and  S_1 
REMARK    2  A    between atoms: C_4  and  S_1 
ROOT
ATOM      1  S   UNL d   1     -48.519  13.001  22.913  0.00  0.00     0.273 S 
ATOM      2  O   UNL d   1     -48.917  12.885  22.201  0.00  0.00    -0.200 OA
ATOM      3  O   UNL d   1     -48.760  13.604  23.422  0.00  0.00    -0.200 OA
ENDROOT
BRANCH   1   4
ATOM      4  N   UNL d   1     -47.883  12.516  23.114  0.00  0.00    -0.212 N 
ATOM      5  C   UNL d   1     -48.024  11.789  23.495  0.00  0.00     0.193 A 
ATOM      6  N   UNL d   1     -47.382  11.299  23.698  0.00  0.00    -0.223 NA
ATOM      7  C   UNL d   1     -46.472  12.261  23.142  0.00  0.00     0.100 A 
ATOM      8  C   UNL d   1     -47.099  12.754  22.936  0.00  0.00     0.094 A 
ATOM      9  C   UNL d   1     -45.691  12.501  22.963  0.00  0.00     0.021 A 
ATOM     10  C   UNL d   1     -46.966  13.474  22.560  0.00  0.00     0.020 A 
ATOM     11  C   UNL d   1     -46.194  13.711  22.383  0.00  0.00     0.002 A 
ATOM     12  C   UNL d   1     -45.555  13.224  22.585  0.00  0.00     0.002 A 
ENDBRANCH   1   4
BRANCH   1  13
ATOM     13  C   UNL d   1     -49.150  13.475  22.703  0.00  0.00     0.104 A 
ATOM     14  C   UNL d   1     -49.689  13.210  22.135  0.00  0.00     0.012 A 
ATOM     15  C   UNL d   1     -50.323  13.677  21.919  0.00  0.00     0.001 A 
ATOM     16  C   UNL d   1     -49.581  12.471  21.790  0.00  0.00     0.001 C 
ATOM     17  C   UNL d   1     -50.428  14.422  22.269  0.00  0.00     0.000 A 
ATOM     18  C   UNL d   1     -49.892  14.690  22.837  0.00  0.00     0.001 A 
ATOM     19  C   UNL d   1     -51.064  14.892  22.053  0.00  0.00     0.000 C 
ATOM     20  C   UNL d   1     -49.255  14.211  23.049  0.00  0.00     0.013 A 
ENDBRANCH   1  13
TORSDOF 2
ENDMDL
