MODEL 1
REMARK VINA RESULT:      -4.2      0.000      0.000
REMARK  3 active torsions:
REMARK  status: ('A' for Active; 'I' for Inactive)
REMARK    1  A    between atoms: C_8  and  N_1 
REMARK    2  A    between atoms: N_10  and  C_5 
REMARK    3  A    between atoms: C_15  and  N_10 
ROOT
ATOM      1  N   UNL d   1      57.536   0.188  31.926  0.00  0.00    -0.212 N 
ATOM      2  C   UNL d   1      57.758  -0.089  31.180  0.00  0.00     0.170 A 
ATOM      3  C   UNL d   1      58.508   0.212  31.011  0.00  0.00     0.093 A 
ATOM      4  N   UNL d   1      58.152   0.662  32.217  0.00  0.00    -0.162 NA
ATOM      5  C   UNL d   1      58.877   0.025  30.291  0.00  0.00     0.169 A 
ATOM      6  C   UNL d   1      58.751   0.672  31.646  0.00  0.00     0.127 A 
ATOM      7  N   UNL d   1      57.368  -0.578  30.637  0.00  0.00    -0.205 NA
ATOM      8  N   UNL d   1      58.487  -0.464  29.748  0.00  0.00    -0.205 NA
ATOM      9  C   UNL d   1      57.737  -0.761  29.924  0.00  0.00     0.202 A 
ENDROOT
BRANCH   1  10
ATOM     10  C   UNL d   1      56.826   0.024  32.314  0.00  0.00     0.085 A 
ATOM     11  C   UNL d   1      56.663  -0.737  32.570  0.00  0.00     0.019 A 
ATOM     12  C   UNL d   1      55.948  -0.900  32.961  0.00  0.00     0.002 A 
ATOM     13  C   UNL d   1      55.779  -1.661  33.219  0.00  0.00     0.000 C 
ATOM     14  C   UNL d   1      55.407  -0.303  33.092  0.00  0.00     0.000 A 
ATOM     15  C   UNL d   1      55.572   0.470  32.833  0.00  0.00     0.002 A 
ATOM     16  C   UNL d   1      56.271   0.637  32.449  0.00  0.00     0.019 A 
ENDBRANCH   1  10
BRANCH   5  17
ATOM     17  N   UNL d   1      59.619   0.318  30.117  0.00  0.00    -0.227 NA
BRANCH  17  18
ATOM     18  C   UNL d   1      59.997   0.094  29.429  0.00  0.00     0.083 C 
ATOM     19  C   UNL d   1      59.986   0.587  28.766  0.00  0.00     0.021 C 
ATOM     20  C   UNL d   1      60.396  -0.632  29.390  0.00  0.00     0.021 C 
ENDBRANCH  17  18
ENDBRANCH   5  17
TORSDOF 3
ENDMDL
MODEL 2
REMARK VINA RESULT:      -4.2      1.112      1.765
REMARK  3 active torsions:
REMARK  status: ('A' for Active; 'I' for Inactive)
REMARK    1  A    between atoms: C_8  and  N_1 
REMARK    2  A    between atoms: N_10  and  C_5 
REMARK    3  A    between atoms: C_15  and  N_10 
ROOT
ATOM      1  N   UNL d   1      56.730  -0.514  32.198  0.00  0.00    -0.212 N 
ATOM      2  C   UNL d   1      57.245  -0.207  31.631  0.00  0.00     0.170 A 
ATOM      3  C   UNL d   1      57.383  -0.795  31.068  0.00  0.00     0.093 A 
ATOM      4  N   UNL d   1      56.550  -1.296  31.984  0.00  0.00    -0.162 NA
ATOM      5  C   UNL d   1      57.885  -0.645  30.424  0.00  0.00     0.169 A 
ATOM      6  C   UNL d   1      56.957  -1.463  31.283  0.00  0.00     0.127 A 
ATOM      7  N   UNL d   1      57.605   0.536  31.559  0.00  0.00    -0.205 NA
ATOM      8  N   UNL d   1      58.245   0.099  30.353  0.00  0.00    -0.205 NA
ATOM      9  C   UNL d   1      58.102   0.682  30.919  0.00  0.00     0.202 A 
ENDROOT
BRANCH   1  10
ATOM     10  C   UNL d   1      56.444  -0.116  32.862  0.00  0.00     0.085 A 
ATOM     11  C   UNL d   1      55.647   0.069  32.921  0.00  0.00     0.019 A 
ATOM     12  C   UNL d   1      55.362   0.470  33.590  0.00  0.00     0.002 A 
ATOM     13  C   UNL d   1      54.565   0.657  33.655  0.00  0.00     0.000 C 
ATOM     14  C   UNL d   1      55.873   0.681  34.191  0.00  0.00     0.000 A 
ATOM     15  C   UNL d   1      56.682   0.494  34.132  0.00  0.00     0.002 A 
ATOM     16  C   UNL d   1      56.968   0.101  33.479  0.00  0.00     0.019 A 
ENDBRANCH   1  10
BRANCH   5  17
ATOM     17  N   UNL d   1      58.026  -1.221  29.864  0.00  0.00    -0.227 NA
BRANCH  17  18
ATOM     18  C   UNL d   1      58.661  -1.153  29.355  0.00  0.00     0.083 C 
ATOM     19  C   UNL d   1      59.408  -1.425  29.582  0.00  0.00     0.021 C 
ATOM     20  C   UNL d   1      58.562  -0.810  28.607  0.00  0.00     0.021 C 
ENDBRANCH  17  18
ENDBRANCH   5  17
TORSDOF 3
ENDMDL
MODEL 3
REMARK VINA RESULT:      -3.5      0.828      4.231
REMARK  3 active torsions:
REMARK  status: ('A' for Active; 'I' for Inactive)
REMARK    1  A    between atoms: C_8  and  N_1 
REMARK    2  A    between atoms: N_10  and  C_5 
REMARK    3  A    between atoms: C_15  and  N_10 
ROOT
ATOM      1  N   UNL d   1      58.279  -0.560  30.068  0.00  0.00    -0.212 N 
ATOM      2  C   UNL d   1      57.950  -0.227  30.747  0.00  0.00     0.170 A 
ATOM      3  C   UNL d   1      57.405  -0.765  31.056  0.00  0.00     0.093 A 
ATOM      4  N   UNL d   1      57.936  -1.308  29.957  0.00  0.00    -0.162 NA
ATOM      5  C   UNL d   1      56.983  -0.580  31.746  0.00  0.00     0.169 A 
ATOM      6  C   UNL d   1      57.396  -1.428  30.572  0.00  0.00     0.127 A 
ATOM      7  N   UNL d   1      58.081   0.501  31.122  0.00  0.00    -0.205 NA
ATOM      8  N   UNL d   1      57.114   0.149  32.120  0.00  0.00    -0.205 NA
ATOM      9  C   UNL d   1      57.660   0.682  31.806  0.00  0.00     0.202 A 
ENDROOT
BRANCH   1  10
ATOM     10  C   UNL d   1      58.850  -0.213  29.582  0.00  0.00     0.085 A 
ATOM     11  C   UNL d   1      59.643  -0.394  29.683  0.00  0.00     0.019 A 
ATOM     12  C   UNL d   1      60.215  -0.043  29.194  0.00  0.00     0.002 A 
ATOM     13  C   UNL d   1      61.011  -0.220  29.290  0.00  0.00     0.000 C 
ATOM     14  C   UNL d   1      59.990   0.483  28.611  0.00  0.00     0.000 A 
ATOM     15  C   UNL d   1      59.185   0.667  28.508  0.00  0.00     0.002 A 
ATOM     16  C   UNL d   1      58.619   0.327  28.985  0.00  0.00     0.019 A 
ENDBRANCH   1  10
BRANCH   5  17
ATOM     17  N   UNL d   1      56.443  -1.107  32.057  0.00  0.00    -0.227 NA
BRANCH  17  18
ATOM     18  C   UNL d   1      56.051  -0.931  32.752  0.00  0.00     0.083 C 
ATOM     19  C   UNL d   1      55.473  -0.341  32.767  0.00  0.00     0.021 C 
ATOM     20  C   UNL d   1      56.231  -1.344  33.448  0.00  0.00     0.021 C 
ENDBRANCH  17  18
ENDBRANCH   5  17
TORSDOF 3
ENDMDL
MODEL 4
REMARK VINA RESULT:      -3.4      1.268      4.204
REMARK  3 active torsions:
REMARK  status: ('A' for Active; 'I' for Inactive)
REMARK    1  A    between atoms: C_8  and  N_1 
REMARK    2  A    between atoms: N_10  and  C_5 
REMARK    3  A    between atoms: C_15  and  N_10 
ROOT
ATOM      1  N   UNL d   1      57.242  -0.628  31.284  0.00  0.00    -0.212 N 
ATOM      2  C   UNL d   1      57.274  -0.214  31.998  0.00  0.00     0.170 A 
ATOM      3  C   UNL d   1      56.649  -0.474  32.470  0.00  0.00     0.093 A 
ATOM      4  N   UNL d   1      56.593  -1.145  31.316  0.00  0.00    -0.162 NA
ATOM      5  C   UNL d   1      56.540  -0.153  33.228  0.00  0.00     0.169 A 
ATOM      6  C   UNL d   1      56.231  -1.044  32.053  0.00  0.00     0.127 A 
ATOM      7  N   UNL d   1      57.798   0.366  32.274  0.00  0.00    -0.205 NA
ATOM      8  N   UNL d   1      57.064   0.427  33.504  0.00  0.00    -0.205 NA
ATOM      9  C   UNL d   1      57.686   0.682  33.026  0.00  0.00     0.202 A 
ENDROOT
BRANCH   1  10
ATOM     10  C   UNL d   1      57.762  -0.543  30.648  0.00  0.00     0.085 A 
ATOM     11  C   UNL d   1      58.136  -1.200  30.331  0.00  0.00     0.019 A 
ATOM     12  C   UNL d   1      58.659  -1.113  29.691  0.00  0.00     0.002 A 
ATOM     13  C   UNL d   1      59.036  -1.767  29.370  0.00  0.00     0.000 C 
ATOM     14  C   UNL d   1      58.802  -0.373  29.377  0.00  0.00     0.000 A 
ATOM     15  C   UNL d   1      58.423   0.295  29.698  0.00  0.00     0.002 A 
ATOM     16  C   UNL d   1      57.909   0.216  30.325  0.00  0.00     0.019 A 
ENDBRANCH   1  10
BRANCH   5  17
ATOM     17  N   UNL d   1      55.924  -0.405  33.701  0.00  0.00    -0.227 NA
BRANCH  17  18
ATOM     18  C   UNL d   1      55.503   0.133  34.148  0.00  0.00     0.083 C 
ATOM     19  C   UNL d   1      55.758   0.336  34.907  0.00  0.00     0.021 C 
ATOM     20  C   UNL d   1      54.816   0.482  33.842  0.00  0.00     0.021 C 
ENDBRANCH  17  18
ENDBRANCH   5  17
TORSDOF 3
ENDMDL
MODEL 5
REMARK VINA RESULT:      -3.3      1.172      3.951
REMARK  3 active torsions:
REMARK  status: ('A' for Active; 'I' for Inactive)
REMARK    1  A    between atoms: C_8  and  N_1 
REMARK    2  A    between atoms: N_10  and  C_5 
REMARK    3  A    between atoms: C_15  and  N_10 
ROOT
ATOM      1  N   UNL d   1      58.084  -0.077  30.748  0.00  0.00    -0.212 N 
ATOM      2  C   UNL d   1      57.496  -0.381  31.242  0.00  0.00     0.170 A 
ATOM      3  C   UNL d   1      57.466   0.090  31.919  0.00  0.00     0.093 A 
ATOM      4  N   UNL d   1      58.417   0.585  31.123  0.00  0.00    -0.162 NA
ATOM      5  C   UNL d   1      56.922  -0.084  32.522  0.00  0.00     0.169 A 
ATOM      6  C   UNL d   1      58.030   0.682  31.847  0.00  0.00     0.127 A 
ATOM      7  N   UNL d   1      56.986  -1.029  31.156  0.00  0.00    -0.205 NA
ATOM      8  N   UNL d   1      56.412  -0.732  32.435  0.00  0.00    -0.205 NA
ATOM      9  C   UNL d   1      56.448  -1.198  31.755  0.00  0.00     0.202 A 
ENDROOT
BRANCH   1  10
ATOM     10  C   UNL d   1      58.303  -0.376  30.010  0.00  0.00     0.085 A 
ATOM     11  C   UNL d   1      58.681  -1.102  29.955  0.00  0.00     0.019 A 
ATOM     12  C   UNL d   1      58.900  -1.401  29.212  0.00  0.00     0.002 A 
ATOM     13  C   UNL d   1      59.279  -2.127  29.151  0.00  0.00     0.000 C 
ATOM     14  C   UNL d   1      58.740  -0.975  28.534  0.00  0.00     0.000 A 
ATOM     15  C   UNL d   1      58.356  -0.239  28.589  0.00  0.00     0.002 A 
ATOM     16  C   UNL d   1      58.138   0.061  29.315  0.00  0.00     0.019 A 
ENDBRANCH   1  10
BRANCH   5  17
ATOM     17  N   UNL d   1      56.886   0.377  33.194  0.00  0.00    -0.227 NA
BRANCH  17  18
ATOM     18  C   UNL d   1      56.226   0.351  33.675  0.00  0.00     0.083 C 
ATOM     19  C   UNL d   1      56.265  -0.006  34.419  0.00  0.00     0.021 C 
ATOM     20  C   UNL d   1      55.510   0.682  33.419  0.00  0.00     0.021 C 
ENDBRANCH  17  18
ENDBRANCH   5  17
TORSDOF 3
ENDMDL
MODEL 6
REMARK VINA RESULT:      -2.7      9.116      9.750
REMARK  3 active torsions:
REMARK  status: ('A' for Active; 'I' for Inactive)
REMARK    1  A    between atoms: C_8  and  N_1 
REMARK    2  A    between atoms: N_10  and  C_5 
REMARK    3  A    between atoms: C_15  and  N_10 
ROOT
ATOM      1  N   UNL d   1      60.209  -9.228  33.978  0.00  0.00    -0.212 N 
ATOM      2  C   UNL d   1      59.806  -9.412  33.281  0.00  0.00     0.170 A 
ATOM      3  C   UNL d   1      60.367  -9.519  32.685  0.00  0.00     0.093 A 
ATOM      4  N   UNL d   1      61.022  -9.222  33.810  0.00  0.00    -0.162 NA
ATOM      5  C   UNL d   1      60.123  -9.711  31.915  0.00  0.00     0.169 A 
ATOM      6  C   UNL d   1      61.113  -9.403  33.008  0.00  0.00     0.127 A 
ATOM      7  N   UNL d   1      58.998  -9.494  33.118  0.00  0.00    -0.205 NA
ATOM      8  N   UNL d   1      59.314  -9.793  31.752  0.00  0.00    -0.205 NA
ATOM      9  C   UNL d   1      58.759  -9.684  32.353  0.00  0.00     0.202 A 
ENDROOT
BRANCH   1  10
ATOM     10  C   UNL d   1      59.865  -9.077  34.713  0.00  0.00     0.085 A 
ATOM     11  C   UNL d   1      59.874  -8.319  35.025  0.00  0.00     0.019 A 
ATOM     12  C   UNL d   1      59.527  -8.169  35.765  0.00  0.00     0.002 A 
ATOM     13  C   UNL d   1      59.533  -7.412  36.082  0.00  0.00     0.000 C 
ATOM     14  C   UNL d   1      59.177  -8.776  36.184  0.00  0.00     0.000 A 
ATOM     15  C   UNL d   1      59.168  -9.546  35.869  0.00  0.00     0.002 A 
ATOM     16  C   UNL d   1      59.506  -9.700  35.144  0.00  0.00     0.019 A 
ENDBRANCH   1  10
BRANCH   5  17
ATOM     17  N   UNL d   1      60.672  -9.818  31.320  0.00  0.00    -0.227 NA
BRANCH  17  18
ATOM     18  C   UNL d   1      60.534  -9.514  30.575  0.00  0.00     0.083 C 
ATOM     19  C   UNL d   1      59.913  -9.804  30.113  0.00  0.00     0.021 C 
ATOM     20  C   UNL d   1      61.016  -8.910  30.275  0.00  0.00     0.021 C 
ENDBRANCH  17  18
ENDBRANCH   5  17
TORSDOF 3
ENDMDL
