MODEL 1
REMARK VINA RESULT:      35.7      0.000      0.000
REMARK  4 active torsions:
REMARK  status: ('A' for Active; 'I' for Inactive)
REMARK    1  A    between atoms: C_2  and  C_1 
REMARK       I    between atoms: N_9  and  C_2 
REMARK    2  A    between atoms: N_4  and  C_14 
REMARK    3  A    between atoms: C_13  and  N_9 
REMARK    4  A    between atoms: C_14  and  C_13 
ROOT
ATOM      1  C   UNL d   1     -54.863-101.069 -44.620  0.00  0.00     0.281 C 
ATOM      2  O   UNL d   1     -54.957-101.575 -45.262  0.00  0.00    -0.265 OA
ATOM      3  N   UNL d   1     -54.806-100.254 -44.734  0.00  0.00    -0.205 NA
ENDROOT
BRANCH   1   4
ATOM      4  C   UNL d   1     -54.825-101.382 -43.849  0.00  0.00     0.077 A 
ATOM      5  C   UNL d   1     -54.815-100.873 -43.200  0.00  0.00     0.105 A 
ATOM      6  N   UNL d   1     -54.778-101.179 -42.439  0.00  0.00    -0.233 NA
ATOM      7  C   UNL d   1     -54.750-101.998 -42.322  0.00  0.00     0.139 A 
ATOM      8  C   UNL d   1     -54.759-102.506 -42.967  0.00  0.00     0.031 A 
ATOM      9 CL   UNL d   1     -54.712-102.315 -41.551  0.00  0.00    -0.061 Cl
ATOM     10  C   UNL d   1     -54.796-102.201 -43.733  0.00  0.00     0.009 A 
ENDBRANCH   1   4
BRANCH   3  11
ATOM     11  C   UNL d   1     -54.712 -99.747 -44.093  0.00  0.00     0.121 C 
BRANCH  11  12
ATOM     12  C   UNL d   1     -55.078 -99.012 -44.082  0.00  0.00     0.101 C 
BRANCH  12  13
ATOM     13  N   UNL d   1     -55.839 -98.927 -44.384  0.00  0.00    -0.298 N 
ATOM     14  C   UNL d   1     -56.482 -98.898 -43.875  0.00  0.00     0.107 A 
ATOM     15  C   UNL d   1     -57.251 -98.812 -44.179  0.00  0.00     0.142 A 
ATOM     16  O   UNL d   1     -57.369 -98.755 -44.989  0.00  0.00    -0.300 OA
ATOM     17  C   UNL d   1     -56.722 -98.784 -45.507  0.00  0.00     0.142 A 
ATOM     18  C   UNL d   1     -55.954 -98.870 -45.203  0.00  0.00     0.107 A 
ENDBRANCH  12  13
ENDBRANCH  11  12
ENDBRANCH   3  11
TORSDOF 4
ENDMDL
