MODEL 1
REMARK VINA RESULT:      98.9      0.000      0.000
REMARK  7 active torsions:
REMARK  status: ('A' for Active; 'I' for Inactive)
REMARK    1  A    between atoms: N_2  and  C_1 
REMARK       I    between atoms: C_6  and  N_2 
REMARK    2  A    between atoms: S_3  and  C_12 
REMARK    3  A    between atoms: C_28  and  N_4 
REMARK    4  A    between atoms: C_8  and  C_6 
REMARK    5  A    between atoms: C_15  and  C_11 
REMARK    6  A    between atoms: C_32  and  C_28 
REMARK    7  A    between atoms: O_31  and  C_32 
ROOT
ATOM      1  N   UNL d   1     -49.609  27.028  34.825  0.00  0.00    -0.184 NA
ATOM      2  C   UNL d   1     -49.792  26.881  34.036  0.00  0.00     0.281 C 
ATOM      3  O   UNL d   1     -49.539  27.406  33.453  0.00  0.00    -0.265 OA
ENDROOT
BRANCH   1   4
ATOM      4  C   UNL d   1     -49.175  27.700  35.024  0.00  0.00     0.182 A 
ATOM      5  N   UNL d   1     -48.985  27.936  35.786  0.00  0.00    -0.283 N 
ATOM      6  C   UNL d   1     -48.547  28.635  35.741  0.00  0.00     0.072 A 
ATOM      7  C   UNL d   1     -48.212  29.117  36.320  0.00  0.00     0.019 A 
ATOM      8  C   UNL d   1     -48.468  28.830  34.944  0.00  0.00     0.049 A 
ATOM      9  C   UNL d   1     -47.798  29.793  36.099  0.00  0.00     0.015 A 
ATOM     10  C   UNL d   1     -47.719  29.988  35.302  0.00  0.00     0.107 A 
ATOM     11  C   UNL d   1     -48.053  29.507  34.724  0.00  0.00     0.021 A 
ATOM     12  S   UNL d   1     -48.857  28.250  34.501  0.00  0.00    -0.048 SA
BRANCH   5  13
ATOM     13  C   UNL d   1     -49.192  27.547  36.485  0.00  0.00     0.108 C 
BRANCH  13  14
ATOM     14  C   UNL d   1     -49.969  27.560  36.755  0.00  0.00     0.135 C 
BRANCH  14  15
ATOM     15  O   UNL d   1     -50.142  27.348  37.529  0.00  0.00    -0.325 OA
ATOM     16  C   UNL d   1     -50.898  27.473  37.843  0.00  0.00     0.182 C 
ENDBRANCH  14  15
ENDBRANCH  13  14
ENDBRANCH   5  13
BRANCH  10  17
ATOM     17  S   UNL d   1     -47.297  30.676  35.081  0.00  0.00     0.302 S 
ATOM     18  O   UNL d   1     -47.983  30.938  34.713  0.00  0.00    -0.197 OA
ATOM     19  O   UNL d   1     -46.607  30.408  35.454  0.00  0.00    -0.197 OA
ATOM     20  N   UNL d   1     -46.905  31.363  34.852  0.00  0.00    -0.043 N 
ENDBRANCH  10  17
ENDBRANCH   1   4
BRANCH   2  21
ATOM     21  C   UNL d   1     -50.226  26.211  33.828  0.00  0.00     0.061 A 
ATOM     22  C   UNL d   1     -51.060  26.245  33.776  0.00  0.00     0.025 A 
ATOM     23  C   UNL d   1     -51.494  25.574  33.569  0.00  0.00     0.087 A 
ATOM     24  N   UNL d   1     -51.097  24.858  33.411  0.00  0.00    -0.245 NA
ATOM     25  C   UNL d   1     -50.272  24.826  33.463  0.00  0.00     0.082 A 
ATOM     26  C   UNL d   1     -49.838  25.496  33.670  0.00  0.00     0.022 A 
ATOM     27  C   UNL d   1     -49.878  24.112  33.306  0.00  0.00     0.019 A 
ATOM     28  C   UNL d   1     -49.010  25.467  33.723  0.00  0.00     0.002 A 
ATOM     29  C   UNL d   1     -48.620  24.740  33.562  0.00  0.00     0.000 A 
ATOM     30  C   UNL d   1     -49.054  24.070  33.355  0.00  0.00     0.002 A 
BRANCH  23  31
ATOM     31  C   UNL d   1     -52.315  25.608  33.517  0.00  0.00     0.047 A 
ATOM     32  S   UNL d   1     -52.689  26.316  33.319  0.00  0.00    -0.085 SA
ATOM     33  C   UNL d   1     -53.504  26.193  33.307  0.00  0.00     0.035 A 
ATOM     34  C   UNL d   1     -53.626  25.398  33.502  0.00  0.00     0.007 A 
ATOM     35  C   UNL d   1     -52.898  25.035  33.631  0.00  0.00     0.009 A 
ENDBRANCH  23  31
ENDBRANCH   2  21
TORSDOF 7
ENDMDL
