MODEL 1
REMARK VINA RESULT:      -5.4      0.000      0.000
REMARK  5 active torsions:
REMARK  status: ('A' for Active; 'I' for Inactive)
REMARK    1  A    between atoms: N_2  and  C_1 
REMARK    2  A    between atoms: C_8  and  C_5 
REMARK    3  A    between atoms: C_6  and  C_9 
REMARK       I    between atoms: N_12  and  C_6 
REMARK    4  A    between atoms: C_9  and  C_8 
REMARK    5  A    between atoms: C_13  and  N_12 
ROOT
ATOM      1  C   UNL d   1      57.769   0.206  30.817  0.00  0.00     0.279 C 
ATOM      2  N   UNL d   1      57.659  -0.025  30.038  0.00  0.00    -0.208 NA
ATOM      3  O   UNL d   1      58.529   0.444  31.089  0.00  0.00    -0.265 OA
ENDROOT
BRANCH   1   4
ATOM      4  C   UNL d   1      57.134   0.206  31.344  0.00  0.00     0.063 C 
BRANCH   4   5
ATOM      5  C   UNL d   1      57.029  -0.455  31.845  0.00  0.00     0.011 C 
BRANCH   5   6
ATOM      6  C   UNL d   1      56.441  -0.419  32.438  0.00  0.00     0.031 A 
ATOM      7  S   UNL d   1      56.143   0.204  32.884  0.00  0.00    -0.064 SA
ATOM      8  C   UNL d   1      55.580  -0.106  33.370  0.00  0.00     0.156 A 
ATOM      9  C   UNL d   1      55.518  -0.918  33.236  0.00  0.00     0.031 A 
ATOM     10  C   UNL d   1      56.044  -1.124  32.663  0.00  0.00     0.009 A 
BRANCH   8  11
ATOM     11  N   UNL d   1      55.124   0.325  33.926  0.00  0.00    -0.107 N 
ATOM     12  O   UNL d   1      54.362   0.544  33.745  0.00  0.00    -0.531 OA
ATOM     13  O   UNL d   1      55.456   0.525  34.662  0.00  0.00    -0.531 OA
ENDBRANCH   8  11
ENDBRANCH   5   6
ENDBRANCH   4   5
ENDBRANCH   1   4
BRANCH   2  14
ATOM     14  C   UNL d   1      58.289  -0.025  29.516  0.00  0.00     0.085 A 
ATOM     15  C   UNL d   1      58.667  -0.728  29.316  0.00  0.00     0.019 A 
ATOM     16  C   UNL d   1      59.294  -0.728  28.797  0.00  0.00     0.002 A 
ATOM     17  C   UNL d   1      59.672  -1.456  28.602  0.00  0.00     0.000 C 
ATOM     18  C   UNL d   1      59.558  -0.025  28.464  0.00  0.00     0.000 A 
ATOM     19  C   UNL d   1      59.182   0.682  28.662  0.00  0.00     0.002 A 
ATOM     20  C   UNL d   1      58.555   0.682  29.181  0.00  0.00     0.019 A 
ENDBRANCH   2  14
TORSDOF 5
ENDMDL
MODEL 2
REMARK VINA RESULT:      -4.8      1.914      5.113
REMARK  5 active torsions:
REMARK  status: ('A' for Active; 'I' for Inactive)
REMARK    1  A    between atoms: N_2  and  C_1 
REMARK    2  A    between atoms: C_8  and  C_5 
REMARK    3  A    between atoms: C_6  and  C_9 
REMARK       I    between atoms: N_12  and  C_6 
REMARK    4  A    between atoms: C_9  and  C_8 
REMARK    5  A    between atoms: C_13  and  N_12 
ROOT
ATOM      1  C   UNL d   1      57.387   0.483  31.225  0.00  0.00     0.279 C 
ATOM      2  N   UNL d   1      57.438   0.168  31.980  0.00  0.00    -0.208 NA
ATOM      3  O   UNL d   1      56.639   0.681  30.894  0.00  0.00    -0.265 OA
ENDROOT
BRANCH   1   4
ATOM      4  C   UNL d   1      58.071   0.608  30.781  0.00  0.00     0.063 C 
BRANCH   4   5
ATOM      5  C   UNL d   1      58.016   0.591  29.946  0.00  0.00     0.011 C 
BRANCH   5   6
ATOM      6  C   UNL d   1      58.678   0.333  29.506  0.00  0.00     0.031 A 
ATOM      7  S   UNL d   1      59.482   0.320  29.674  0.00  0.00    -0.064 SA
ATOM      8  C   UNL d   1      59.849   0.006  29.029  0.00  0.00     0.156 A 
ATOM      9  C   UNL d   1      59.286  -0.179  28.455  0.00  0.00     0.031 A 
ATOM     10  C   UNL d   1      58.559   0.018  28.737  0.00  0.00     0.009 A 
BRANCH   8  11
ATOM     11  N   UNL d   1      60.675  -0.116  28.949  0.00  0.00    -0.107 N 
ATOM     12  O   UNL d   1      61.120   0.400  28.503  0.00  0.00    -0.531 OA
ATOM     13  O   UNL d   1      61.034  -0.763  29.326  0.00  0.00    -0.531 OA
ENDBRANCH   8  11
ENDBRANCH   5   6
ENDBRANCH   4   5
ENDBRANCH   1   4
BRANCH   2  14
ATOM     14  C   UNL d   1      56.760   0.044  32.421  0.00  0.00     0.085 A 
ATOM     15  C   UNL d   1      56.473  -0.718  32.542  0.00  0.00     0.019 A 
ATOM     16  C   UNL d   1      55.799  -0.842  32.980  0.00  0.00     0.002 A 
ATOM     17  C   UNL d   1      55.516  -1.629  33.096  0.00  0.00     0.000 C 
ATOM     18  C   UNL d   1      55.394  -0.207  33.309  0.00  0.00     0.000 A 
ATOM     19  C   UNL d   1      55.678   0.558  33.190  0.00  0.00     0.002 A 
ATOM     20  C   UNL d   1      56.353   0.682  32.752  0.00  0.00     0.019 A 
ENDBRANCH   2  14
TORSDOF 5
ENDMDL
MODEL 3
REMARK VINA RESULT:      -4.5      1.937      5.162
REMARK  5 active torsions:
REMARK  status: ('A' for Active; 'I' for Inactive)
REMARK    1  A    between atoms: N_2  and  C_1 
REMARK    2  A    between atoms: C_8  and  C_5 
REMARK    3  A    between atoms: C_6  and  C_9 
REMARK       I    between atoms: N_12  and  C_6 
REMARK    4  A    between atoms: C_9  and  C_8 
REMARK    5  A    between atoms: C_13  and  N_12 
ROOT
ATOM      1  C   UNL d   1      57.025  -0.150  31.732  0.00  0.00     0.279 C 
ATOM      2  N   UNL d   1      56.609  -0.550  32.314  0.00  0.00    -0.208 NA
ATOM      3  O   UNL d   1      57.141   0.682  31.784  0.00  0.00    -0.265 OA
ENDROOT
BRANCH   1   4
ATOM      4  C   UNL d   1      57.334  -0.561  31.087  0.00  0.00     0.063 C 
BRANCH   4   5
ATOM      5  C   UNL d   1      57.923  -0.193  30.621  0.00  0.00     0.011 C 
BRANCH   5   6
ATOM      6  C   UNL d   1      58.268  -0.626  29.995  0.00  0.00     0.031 A 
ATOM      7  S   UNL d   1      58.508  -1.409  29.931  0.00  0.00    -0.064 SA
ATOM      8  C   UNL d   1      58.802  -1.502  29.187  0.00  0.00     0.156 A 
ATOM      9  C   UNL d   1      58.750  -0.786  28.779  0.00  0.00     0.031 A 
ATOM     10  C   UNL d   1      58.423  -0.237  29.267  0.00  0.00     0.009 A 
BRANCH   8  11
ATOM     11  N   UNL d   1      59.113  -2.213  28.870  0.00  0.00    -0.107 N 
ATOM     12  O   UNL d   1      58.616  -2.837  28.707  0.00  0.00    -0.531 OA
ATOM     13  O   UNL d   1      59.929  -2.277  28.725  0.00  0.00    -0.531 OA
ENDBRANCH   8  11
ENDBRANCH   5   6
ENDBRANCH   4   5
ENDBRANCH   1   4
BRANCH   2  14
ATOM     14  C   UNL d   1      56.302  -0.142  32.954  0.00  0.00     0.085 A 
ATOM     15  C   UNL d   1      55.489  -0.121  33.086  0.00  0.00     0.019 A 
ATOM     16  C   UNL d   1      55.184   0.285  33.723  0.00  0.00     0.002 A 
ATOM     17  C   UNL d   1      54.350   0.298  33.846  0.00  0.00     0.000 C 
ATOM     18  C   UNL d   1      55.683   0.680  34.243  0.00  0.00     0.000 A 
ATOM     19  C   UNL d   1      56.498   0.661  34.113  0.00  0.00     0.002 A 
ATOM     20  C   UNL d   1      56.803   0.255  33.477  0.00  0.00     0.019 A 
ENDBRANCH   2  14
TORSDOF 5
ENDMDL
MODEL 4
REMARK VINA RESULT:      -2.5      1.224      1.800
REMARK  5 active torsions:
REMARK  status: ('A' for Active; 'I' for Inactive)
REMARK    1  A    between atoms: N_2  and  C_1 
REMARK    2  A    between atoms: C_8  and  C_5 
REMARK    3  A    between atoms: C_6  and  C_9 
REMARK       I    between atoms: N_12  and  C_6 
REMARK    4  A    between atoms: C_9  and  C_8 
REMARK    5  A    between atoms: C_13  and  N_12 
ROOT
ATOM      1  C   UNL d   1      58.212  -0.771  29.973  0.00  0.00     0.279 C 
ATOM      2  N   UNL d   1      58.658  -1.428  30.179  0.00  0.00    -0.208 NA
ATOM      3  O   UNL d   1      58.181  -0.509  29.174  0.00  0.00    -0.265 OA
ENDROOT
BRANCH   1   4
ATOM      4  C   UNL d   1      57.788  -0.360  30.550  0.00  0.00     0.063 C 
BRANCH   4   5
ATOM      5  C   UNL d   1      57.255  -0.785  31.034  0.00  0.00     0.011 C 
BRANCH   5   6
ATOM      6  C   UNL d   1      56.905  -0.393  31.684  0.00  0.00     0.031 A 
ATOM      7  S   UNL d   1      56.317  -0.616  32.213  0.00  0.00    -0.064 SA
ATOM      8  C   UNL d   1      56.216   0.000  32.723  0.00  0.00     0.156 A 
ATOM      9  C   UNL d   1      56.734   0.611  32.521  0.00  0.00     0.031 A 
ATOM     10  C   UNL d   1      57.165   0.381  31.882  0.00  0.00     0.009 A 
BRANCH   8  11
ATOM     11  N   UNL d   1      55.672   0.023  33.359  0.00  0.00    -0.107 N 
ATOM     12  O   UNL d   1      54.971   0.430  33.280  0.00  0.00    -0.531 OA
ATOM     13  O   UNL d   1      55.852  -0.371  34.069  0.00  0.00    -0.531 OA
ENDBRANCH   8  11
ENDBRANCH   5   6
ENDBRANCH   4   5
ENDBRANCH   1   4
BRANCH   2  14
ATOM     14  C   UNL d   1      59.078  -1.835  29.607  0.00  0.00     0.085 A 
ATOM     15  C   UNL d   1      58.849  -2.593  29.380  0.00  0.00     0.019 A 
ATOM     16  C   UNL d   1      59.267  -2.998  28.811  0.00  0.00     0.002 A 
ATOM     17  C   UNL d   1      59.021  -3.774  28.588  0.00  0.00     0.000 C 
ATOM     18  C   UNL d   1      59.924  -2.656  28.455  0.00  0.00     0.000 A 
ATOM     19  C   UNL d   1      60.157  -1.898  28.680  0.00  0.00     0.002 A 
ATOM     20  C   UNL d   1      59.739  -1.493  29.249  0.00  0.00     0.019 A 
ENDBRANCH   2  14
TORSDOF 5
ENDMDL
