MODEL 1
REMARK VINA RESULT:     102.8      0.000      0.000
REMARK  5 active torsions:
REMARK  status: ('A' for Active; 'I' for Inactive)
REMARK    1  A    between atoms: C_11  and  N_4 
REMARK    2  A    between atoms: C_12  and  N_10 
REMARK    3  A    between atoms: C_14  and  C_11 
REMARK    4  A    between atoms: O_26  and  C_13 
REMARK    5  A    between atoms: O_28  and  C_24 
ROOT
ATOM      1  C   UNL d   1      45.504 -17.331  41.386  0.00  0.00     0.191 A 
ATOM      2  C   UNL d   1      45.906 -18.043  41.266  0.00  0.00     0.173 A 
ATOM      3  C   UNL d   1      45.420 -17.597  39.924  0.00  0.00     0.722 A 
ATOM      4  N   UNL d   1      46.182 -18.120  42.655  0.00  0.00    -0.224 N 
ATOM      5  N   UNL d   1      45.226 -17.064  40.667  0.00  0.00    -0.042 NA
ATOM      6  N   UNL d   1      45.870 -18.202  40.476  0.00  0.00    -0.132 N 
ATOM      7  N   UNL d   1      45.432 -17.002  42.135  0.00  0.00    -0.240 N 
ATOM      8  C   UNL d   1      45.779 -17.409  42.774  0.00  0.00     0.343 A 
ATOM      9  C   UNL d   1      46.237 -18.425  41.896  0.00  0.00     0.288 A 
ATOM     10  N   UNL d   1      45.391 -17.768  39.133  0.00  0.00    -0.138 N 
ATOM     11  C   UNL d   1      46.198 -18.853  40.122  0.00  0.00     0.100 A 
ATOM     12  C   UNL d   1      45.737 -18.444  38.802  0.00  0.00     0.100 A 
ATOM     13  O   UNL d   1      45.711 -17.080  43.538  0.00  0.00    -0.245 OA
ATOM     14  O   UNL d   1      46.640 -19.137  41.776  0.00  0.00    -0.265 OA
ATOM     15  C   UNL d   1      46.150 -18.999  39.308  0.00  0.00     0.036 A 
ATOM     16  C   UNL d   1      45.030 -16.291  42.254  0.00  0.00     0.105 C 
ATOM     17  C   UNL d   1      46.501 -19.680  38.989  0.00  0.00     0.003 C 
ENDROOT
BRANCH  10  18
ATOM     18  C   UNL d   1      44.990 -17.227  38.653  0.00  0.00     0.104 A 
ATOM     19  C   UNL d   1      45.410 -16.633  38.264  0.00  0.00     0.113 A 
ATOM     20  C   UNL d   1      45.053 -16.087  37.787  0.00  0.00     0.050 A 
ATOM     21  C   UNL d   1      44.226 -16.115  37.676  0.00  0.00     0.096 A 
ATOM     22  C   UNL d   1      43.788 -16.717  38.068  0.00  0.00     0.026 A 
ATOM     23  C   UNL d   1      44.175 -17.258  38.546  0.00  0.00     0.022 A 
BRANCH  19  24
ATOM     24  O   UNL d   1      46.228 -16.592  38.364  0.00  0.00    -0.327 OA
ATOM     25  C   UNL d   1      46.626 -15.930  38.114  0.00  0.00     0.181 C 
ENDBRANCH  19  24
BRANCH  21  26
ATOM     26  O   UNL d   1      43.829 -15.563  37.188  0.00  0.00    -0.328 OA
ATOM     27  C   UNL d   1      43.008 -15.601  37.099  0.00  0.00     0.181 C 
ENDBRANCH  21  26
ENDBRANCH  10  18
BRANCH   4  28
ATOM     28  C   UNL d   1      46.342 -18.165  43.464  0.00  0.00     0.090 C 
BRANCH  28  29
ATOM     29  C   UNL d   1      46.288 -18.891  43.856  0.00  0.00     0.045 A 
ATOM     30  C   UNL d   1      45.877 -18.935  44.562  0.00  0.00     0.141 A 
ATOM     31  F   UNL d   1      45.520 -18.263  44.879  0.00  0.00    -0.204 F 
ATOM     32  C   UNL d   1      45.822 -19.656  44.954  0.00  0.00     0.030 A 
ATOM     33  C   UNL d   1      46.177 -20.329  44.640  0.00  0.00     0.002 A 
ATOM     34  C   UNL d   1      46.590 -20.275  43.926  0.00  0.00     0.000 A 
ATOM     35  C   UNL d   1      46.645 -19.554  43.535  0.00  0.00     0.004 A 
ENDBRANCH  28  29
ENDBRANCH   4  28
TORSDOF 5
ENDMDL
MODEL 2
REMARK VINA RESULT:     103.4      4.353      5.261
REMARK  5 active torsions:
REMARK  status: ('A' for Active; 'I' for Inactive)
REMARK    1  A    between atoms: C_11  and  N_4 
REMARK    2  A    between atoms: C_12  and  N_10 
REMARK    3  A    between atoms: C_14  and  C_11 
REMARK    4  A    between atoms: O_26  and  C_13 
REMARK    5  A    between atoms: O_28  and  C_24 
ROOT
ATOM      1  C   UNL d   1      45.411 -13.045  40.919  0.00  0.00     0.191 A 
ATOM      2  C   UNL d   1      44.667 -12.693  40.989  0.00  0.00     0.173 A 
ATOM      3  C   UNL d   1      44.833 -13.058  39.549  0.00  0.00     0.722 A 
ATOM      4  N   UNL d   1      44.883 -12.511  42.378  0.00  0.00    -0.224 N 
ATOM      5  N   UNL d   1      45.529 -13.255  40.141  0.00  0.00    -0.042 NA
ATOM      6  N   UNL d   1      44.338 -12.692  40.252  0.00  0.00    -0.132 N 
ATOM      7  N   UNL d   1      45.902 -13.137  41.571  0.00  0.00    -0.240 N 
ATOM      8  C   UNL d   1      45.627 -12.863  42.309  0.00  0.00     0.343 A 
ATOM      9  C   UNL d   1      44.414 -12.433  41.710  0.00  0.00     0.288 A 
ATOM     10  N   UNL d   1      44.492 -13.051  38.814  0.00  0.00    -0.138 N 
ATOM     11  C   UNL d   1      43.606 -12.395  40.074  0.00  0.00     0.100 A 
ATOM     12  C   UNL d   1      43.739 -12.739  38.666  0.00  0.00     0.100 A 
ATOM     13  O   UNL d   1      46.120 -12.953  42.975  0.00  0.00    -0.245 OA
ATOM     14  O   UNL d   1      43.669 -12.080  41.780  0.00  0.00    -0.265 OA
ATOM     15  C   UNL d   1      43.286 -12.403  39.310  0.00  0.00     0.036 A 
ATOM     16  C   UNL d   1      46.646 -13.489  41.502  0.00  0.00     0.105 C 
ATOM     17  C   UNL d   1      42.531 -12.087  39.175  0.00  0.00     0.003 C 
ENDROOT
BRANCH  10  18
ATOM     18  C   UNL d   1      44.937 -13.378  38.198  0.00  0.00     0.104 A 
ATOM     19  C   UNL d   1      44.761 -14.135  37.920  0.00  0.00     0.113 A 
ATOM     20  C   UNL d   1      45.174 -14.486  37.320  0.00  0.00     0.050 A 
ATOM     21  C   UNL d   1      45.806 -14.075  36.959  0.00  0.00     0.096 A 
ATOM     22  C   UNL d   1      45.993 -13.303  37.236  0.00  0.00     0.026 A 
ATOM     23  C   UNL d   1      45.559 -12.972  37.845  0.00  0.00     0.022 A 
BRANCH  19  24
ATOM     24  O   UNL d   1      44.140 -14.552  38.266  0.00  0.00    -0.327 OA
ATOM     25  C   UNL d   1      43.782 -15.149  37.848  0.00  0.00     0.181 C 
ENDBRANCH  19  24
BRANCH  21  26
ATOM     26  O   UNL d   1      46.251 -14.414  36.336  0.00  0.00    -0.328 OA
ATOM     27  C   UNL d   1      46.647 -15.131  36.450  0.00  0.00     0.181 C 
ENDBRANCH  21  26
ENDBRANCH  10  18
BRANCH   4  28
ATOM     28  C   UNL d   1      45.008 -12.405  43.188  0.00  0.00     0.090 C 
BRANCH  28  29
ATOM     29  C   UNL d   1      44.705 -12.952  43.728  0.00  0.00     0.045 A 
ATOM     30  C   UNL d   1      45.179 -13.215  44.341  0.00  0.00     0.141 A 
ATOM     31  F   UNL d   1      45.950 -12.937  44.420  0.00  0.00    -0.204 F 
ATOM     32  C   UNL d   1      44.879 -13.760  44.880  0.00  0.00     0.030 A 
ATOM     33  C   UNL d   1      44.109 -14.040  44.805  0.00  0.00     0.002 A 
ATOM     34  C   UNL d   1      43.637 -13.769  44.182  0.00  0.00     0.000 A 
ATOM     35  C   UNL d   1      43.938 -13.224  43.643  0.00  0.00     0.004 A 
ENDBRANCH  28  29
ENDBRANCH   4  28
TORSDOF 5
ENDMDL
