MODEL 1
REMARK VINA RESULT:     -10.3      0.000      0.000
REMARK  3 active torsions:
REMARK  status: ('A' for Active; 'I' for Inactive)
REMARK    1  A    between atoms: C_6  and  N_1 
REMARK    2  A    between atoms: C_7  and  C_6 
REMARK    3  A    between atoms: C_8  and  C_7 
ROOT
ATOM      1  N   UNL d   1      52.847  32.966  53.393  0.00  0.00    -0.305 N 
ATOM      2  C   UNL d   1      52.826  31.974  53.161  0.00  0.00     0.064 A 
ATOM      3  C   UNL d   1      53.411  31.928  53.735  0.00  0.00     0.018 A 
ATOM      4  C   UNL d   1      53.321  33.347  53.948  0.00  0.00     0.064 A 
ATOM      5  C   UNL d   1      53.655  32.622  54.126  0.00  0.00     0.018 A 
ATOM      6  C   UNL d   1      52.585  31.287  52.774  0.00  0.00     0.018 A 
ATOM      7  C   UNL d   1      53.756  31.216  53.927  0.00  0.00     0.002 A 
ATOM      8  C   UNL d   1      53.565  34.041  54.339  0.00  0.00     0.018 A 
ATOM      9  C   UNL d   1      54.243  32.574  54.702  0.00  0.00     0.002 A 
ATOM     10  C   UNL d   1      53.511  30.519  53.534  0.00  0.00     0.000 A 
ATOM     11  C   UNL d   1      52.931  30.557  52.963  0.00  0.00     0.002 A 
ATOM     12  C   UNL d   1      54.498  33.250  55.100  0.00  0.00     0.000 A 
ATOM     13  C   UNL d   1      54.160  33.973  54.918  0.00  0.00     0.002 A 
ENDROOT
BRANCH   1  14
ATOM     14  C   UNL d   1      52.309  33.419  52.953  0.00  0.00     0.086 C 
BRANCH  14  15
ATOM     15  C   UNL d   1      51.531  33.532  53.247  0.00  0.00     0.089 C 
BRANCH  15  16
ATOM     16  C   UNL d   1      50.985  33.962  52.792  0.00  0.00     0.213 C 
ATOM     17  O   UNL d   1      50.243  34.119  53.099  0.00  0.00    -0.644 OA
ATOM     18  O   UNL d   1      50.601  34.393  52.192  0.00  0.00    -0.644 OA
ENDBRANCH  15  16
ENDBRANCH  14  15
ENDBRANCH   1  14
TORSDOF 3
ENDMDL
MODEL 2
REMARK VINA RESULT:     -10.3      1.999      3.395
REMARK  3 active torsions:
REMARK  status: ('A' for Active; 'I' for Inactive)
REMARK    1  A    between atoms: C_6  and  N_1 
REMARK    2  A    between atoms: C_7  and  C_6 
REMARK    3  A    between atoms: C_8  and  C_7 
ROOT
ATOM      1  N   UNL d   1      53.626  32.864  53.603  0.00  0.00    -0.305 N 
ATOM      2  C   UNL d   1      52.957  33.588  53.340  0.00  0.00     0.064 A 
ATOM      3  C   UNL d   1      52.511  32.946  53.088  0.00  0.00     0.018 A 
ATOM      4  C   UNL d   1      53.551  32.049  53.512  0.00  0.00     0.064 A 
ATOM      5  C   UNL d   1      52.816  32.177  53.177  0.00  0.00     0.018 A 
ATOM      6  C   UNL d   1      52.655  34.350  53.251  0.00  0.00     0.018 A 
ATOM      7  C   UNL d   1      51.777  33.052  52.752  0.00  0.00     0.002 A 
ATOM      8  C   UNL d   1      53.856  31.279  53.602  0.00  0.00     0.018 A 
ATOM      9  C   UNL d   1      52.366  31.534  52.923  0.00  0.00     0.002 A 
ATOM     10  C   UNL d   1      51.471  33.825  52.662  0.00  0.00     0.000 A 
ATOM     11  C   UNL d   1      51.908  34.467  52.911  0.00  0.00     0.002 A 
ATOM     12  C   UNL d   1      52.651  30.763  53.003  0.00  0.00     0.000 A 
ATOM     13  C   UNL d   1      53.388  30.642  53.339  0.00  0.00     0.002 A 
ENDROOT
BRANCH   1  14
ATOM     14  C   UNL d   1      54.318  33.164  53.946  0.00  0.00     0.086 C 
BRANCH  14  15
ATOM     15  C   UNL d   1      54.345  33.285  54.776  0.00  0.00     0.089 C 
BRANCH  15  16
ATOM     16  C   UNL d   1      54.995  33.682  55.107  0.00  0.00     0.213 C 
ATOM     17  O   UNL d   1      55.053  33.747  55.921  0.00  0.00    -0.644 OA
ATOM     18  O   UNL d   1      55.702  34.104  55.229  0.00  0.00    -0.644 OA
ENDBRANCH  15  16
ENDBRANCH  14  15
ENDBRANCH   1  14
TORSDOF 3
ENDMDL
MODEL 3
REMARK VINA RESULT:     -10.3      0.078      2.237
REMARK  3 active torsions:
REMARK  status: ('A' for Active; 'I' for Inactive)
REMARK    1  A    between atoms: C_6  and  N_1 
REMARK    2  A    between atoms: C_7  and  C_6 
REMARK    3  A    between atoms: C_8  and  C_7 
ROOT
ATOM      1  N   UNL d   1      52.798  32.868  53.327  0.00  0.00    -0.305 N 
ATOM      2  C   UNL d   1      53.358  33.403  53.990  0.00  0.00     0.064 A 
ATOM      3  C   UNL d   1      53.688  32.669  54.154  0.00  0.00     0.018 A 
ATOM      4  C   UNL d   1      52.825  32.058  53.179  0.00  0.00     0.064 A 
ATOM      5  C   UNL d   1      53.415  31.998  53.742  0.00  0.00     0.018 A 
ATOM      6  C   UNL d   1      53.629  34.067  54.397  0.00  0.00     0.018 A 
ATOM      7  C   UNL d   1      54.276  32.588  54.710  0.00  0.00     0.002 A 
ATOM      8  C   UNL d   1      52.552  31.388  52.768  0.00  0.00     0.018 A 
ATOM      9  C   UNL d   1      53.747  31.262  53.908  0.00  0.00     0.002 A 
ATOM     10  C   UNL d   1      54.550  33.262  55.123  0.00  0.00     0.000 A 
ATOM     11  C   UNL d   1      54.227  33.994  54.966  0.00  0.00     0.002 A 
ATOM     12  C   UNL d   1      53.490  30.585  53.511  0.00  0.00     0.000 A 
ATOM     13  C   UNL d   1      52.899  30.652  52.949  0.00  0.00     0.002 A 
ENDROOT
BRANCH   1  14
ATOM     14  C   UNL d   1      52.259  33.332  52.901  0.00  0.00     0.086 C 
BRANCH  14  15
ATOM     15  C   UNL d   1      51.501  33.483  53.226  0.00  0.00     0.089 C 
BRANCH  15  16
ATOM     16  C   UNL d   1      50.955  33.933  52.791  0.00  0.00     0.213 C 
ATOM     17  O   UNL d   1      50.228  34.111  53.121  0.00  0.00    -0.644 OA
ATOM     18  O   UNL d   1      50.568  34.381  52.206  0.00  0.00    -0.644 OA
ENDBRANCH  15  16
ENDBRANCH  14  15
ENDBRANCH   1  14
TORSDOF 3
ENDMDL
MODEL 4
REMARK VINA RESULT:     -10.3      1.999      2.888
REMARK  3 active torsions:
REMARK  status: ('A' for Active; 'I' for Inactive)
REMARK    1  A    between atoms: C_6  and  N_1 
REMARK    2  A    between atoms: C_7  and  C_6 
REMARK    3  A    between atoms: C_8  and  C_7 
ROOT
ATOM      1  N   UNL d   1      53.577  32.983  53.589  0.00  0.00    -0.305 N 
ATOM      2  C   UNL d   1      53.548  31.967  53.508  0.00  0.00     0.064 A 
ATOM      3  C   UNL d   1      52.814  32.112  53.170  0.00  0.00     0.018 A 
ATOM      4  C   UNL d   1      53.004  33.525  53.354  0.00  0.00     0.064 A 
ATOM      5  C   UNL d   1      52.548  32.898  53.096  0.00  0.00     0.018 A 
ATOM      6  C   UNL d   1      53.812  31.189  53.581  0.00  0.00     0.018 A 
ATOM      7  C   UNL d   1      52.345  31.502  52.908  0.00  0.00     0.002 A 
ATOM      8  C   UNL d   1      52.738  34.311  53.280  0.00  0.00     0.018 A 
ATOM      9  C   UNL d   1      51.810  33.042  52.757  0.00  0.00     0.002 A 
ATOM     10  C   UNL d   1      52.613  30.712  52.982  0.00  0.00     0.000 A 
ATOM     11  C   UNL d   1      53.341  30.560  53.317  0.00  0.00     0.002 A 
ATOM     12  C   UNL d   1      51.528  33.813  52.674  0.00  0.00     0.000 A 
ATOM     13  C   UNL d   1      51.990  34.437  52.934  0.00  0.00     0.002 A 
ENDROOT
BRANCH   1  14
ATOM     14  C   UNL d   1      54.274  33.266  53.937  0.00  0.00     0.086 C 
BRANCH  14  15
ATOM     15  C   UNL d   1      54.314  33.342  54.772  0.00  0.00     0.089 C 
BRANCH  15  16
ATOM     16  C   UNL d   1      54.978  33.704  55.114  0.00  0.00     0.213 C 
ATOM     17  O   UNL d   1      55.044  33.731  55.929  0.00  0.00    -0.644 OA
ATOM     18  O   UNL d   1      55.698  34.100  55.249  0.00  0.00    -0.644 OA
ENDBRANCH  15  16
ENDBRANCH  14  15
ENDBRANCH   1  14
TORSDOF 3
ENDMDL
MODEL 5
REMARK VINA RESULT:     -10.1      1.744      3.098
REMARK  3 active torsions:
REMARK  status: ('A' for Active; 'I' for Inactive)
REMARK    1  A    between atoms: C_6  and  N_1 
REMARK    2  A    between atoms: C_7  and  C_6 
REMARK    3  A    between atoms: C_8  and  C_7 
ROOT
ATOM      1  N   UNL d   1      53.059  32.623  53.342  0.00  0.00    -0.305 N 
ATOM      2  C   UNL d   1      53.742  32.808  54.077  0.00  0.00     0.064 A 
ATOM      3  C   UNL d   1      53.370  33.540  54.102  0.00  0.00     0.018 A 
ATOM      4  C   UNL d   1      52.476  33.128  53.054  0.00  0.00     0.064 A 
ATOM      5  C   UNL d   1      52.735  33.693  53.585  0.00  0.00     0.018 A 
ATOM      6  C   UNL d   1      54.371  32.656  54.588  0.00  0.00     0.018 A 
ATOM      7  C   UNL d   1      53.613  34.115  54.623  0.00  0.00     0.002 A 
ATOM      8  C   UNL d   1      51.841  33.281  52.537  0.00  0.00     0.018 A 
ATOM      9  C   UNL d   1      52.364  34.429  53.612  0.00  0.00     0.002 A 
ATOM     10  C   UNL d   1      54.251  33.961  55.142  0.00  0.00     0.000 A 
ATOM     11  C   UNL d   1      54.624  33.237  55.123  0.00  0.00     0.002 A 
ATOM     12  C   UNL d   1      51.733  34.600  53.108  0.00  0.00     0.000 A 
ATOM     13  C   UNL d   1      51.478  34.030  52.579  0.00  0.00     0.002 A 
ENDROOT
BRANCH   1  14
ATOM     14  C   UNL d   1      53.124  31.863  53.016  0.00  0.00     0.086 C 
BRANCH  14  15
ATOM     15  C   UNL d   1      52.712  31.226  53.374  0.00  0.00     0.089 C 
BRANCH  15  16
ATOM     16  C   UNL d   1      52.789  30.463  53.055  0.00  0.00     0.213 C 
ATOM     17  O   UNL d   1      52.456  29.828  53.449  0.00  0.00    -0.644 OA
ATOM     18  O   UNL d   1      52.977  29.806  52.581  0.00  0.00    -0.644 OA
ENDBRANCH  15  16
ENDBRANCH  14  15
ENDBRANCH   1  14
TORSDOF 3
ENDMDL
MODEL 6
REMARK VINA RESULT:     -10.1      1.749      2.822
REMARK  3 active torsions:
REMARK  status: ('A' for Active; 'I' for Inactive)
REMARK    1  A    between atoms: C_6  and  N_1 
REMARK    2  A    between atoms: C_7  and  C_6 
REMARK    3  A    between atoms: C_8  and  C_7 
ROOT
ATOM      1  N   UNL d   1      53.148  32.592  53.414  0.00  0.00    -0.305 N 
ATOM      2  C   UNL d   1      52.405  33.165  53.014  0.00  0.00     0.064 A 
ATOM      3  C   UNL d   1      52.677  33.720  53.554  0.00  0.00     0.018 A 
ATOM      4  C   UNL d   1      53.676  32.793  54.012  0.00  0.00     0.064 A 
ATOM      5  C   UNL d   1      53.316  33.527  54.052  0.00  0.00     0.018 A 
ATOM      6  C   UNL d   1      51.772  33.357  52.522  0.00  0.00     0.018 A 
ATOM      7  C   UNL d   1      52.333  34.455  53.610  0.00  0.00     0.002 A 
ATOM      8  C   UNL d   1      54.316  32.599  54.509  0.00  0.00     0.018 A 
ATOM      9  C   UNL d   1      53.588  34.086  54.593  0.00  0.00     0.002 A 
ATOM     10  C   UNL d   1      51.691  34.650  53.110  0.00  0.00     0.000 A 
ATOM     11  C   UNL d   1      51.415  34.103  52.571  0.00  0.00     0.002 A 
ATOM     12  C   UNL d   1      54.221  33.913  55.095  0.00  0.00     0.000 A 
ATOM     13  C   UNL d   1      54.577  33.177  55.050  0.00  0.00     0.002 A 
ENDROOT
BRANCH   1  14
ATOM     14  C   UNL d   1      53.200  31.837  53.075  0.00  0.00     0.086 C 
BRANCH  14  15
ATOM     15  C   UNL d   1      52.732  31.214  53.387  0.00  0.00     0.089 C 
BRANCH  15  16
ATOM     16  C   UNL d   1      52.815  30.449  53.073  0.00  0.00     0.213 C 
ATOM     17  O   UNL d   1      52.410  29.828  53.419  0.00  0.00    -0.644 OA
ATOM     18  O   UNL d   1      53.029  29.786  52.619  0.00  0.00    -0.644 OA
ENDBRANCH  15  16
ENDBRANCH  14  15
ENDBRANCH   1  14
TORSDOF 3
ENDMDL
MODEL 7
REMARK VINA RESULT:      -8.4      1.643      2.748
REMARK  3 active torsions:
REMARK  status: ('A' for Active; 'I' for Inactive)
REMARK    1  A    between atoms: C_6  and  N_1 
REMARK    2  A    between atoms: C_7  and  C_6 
REMARK    3  A    between atoms: C_8  and  C_7 
ROOT
ATOM      1  N   UNL d   1      52.717  34.060  53.462  0.00  0.00    -0.305 N 
ATOM      2  C   UNL d   1      53.436  33.348  53.581  0.00  0.00     0.064 A 
ATOM      3  C   UNL d   1      52.826  32.837  53.380  0.00  0.00     0.018 A 
ATOM      4  C   UNL d   1      51.928  33.953  53.252  0.00  0.00     0.064 A 
ATOM      5  C   UNL d   1      52.071  33.149  53.215  0.00  0.00     0.018 A 
ATOM      6  C   UNL d   1      54.184  33.040  53.743  0.00  0.00     0.018 A 
ATOM      7  C   UNL d   1      52.947  32.034  53.338  0.00  0.00     0.002 A 
ATOM      8  C   UNL d   1      51.173  34.265  53.087  0.00  0.00     0.018 A 
ATOM      9  C   UNL d   1      51.459  32.634  53.014  0.00  0.00     0.002 A 
ATOM     10  C   UNL d   1      53.706  31.721  53.503  0.00  0.00     0.000 A 
ATOM     11  C   UNL d   1      54.317  32.222  53.704  0.00  0.00     0.002 A 
ATOM     12  C   UNL d   1      50.704  32.923  52.847  0.00  0.00     0.000 A 
ATOM     13  C   UNL d   1      50.567  33.729  52.885  0.00  0.00     0.002 A 
ENDROOT
BRANCH   1  14
ATOM     14  C   UNL d   1      52.990  34.831  53.601  0.00  0.00     0.086 C 
BRANCH  14  15
ATOM     15  C   UNL d   1      52.918  35.160  54.369  0.00  0.00     0.089 C 
BRANCH  15  16
ATOM     16  C   UNL d   1      53.144  35.949  54.495  0.00  0.00     0.213 C 
ATOM     17  O   UNL d   1      52.879  36.340  55.163  0.00  0.00    -0.644 OA
ATOM     18  O   UNL d   1      53.476  36.709  54.433  0.00  0.00    -0.644 OA
ENDBRANCH  15  16
ENDBRANCH  14  15
ENDBRANCH   1  14
TORSDOF 3
ENDMDL
MODEL 8
REMARK VINA RESULT:      -8.2      1.621      2.671
REMARK  3 active torsions:
REMARK  status: ('A' for Active; 'I' for Inactive)
REMARK    1  A    between atoms: C_6  and  N_1 
REMARK    2  A    between atoms: C_7  and  C_6 
REMARK    3  A    between atoms: C_8  and  C_7 
ROOT
ATOM      1  N   UNL d   1      52.924  33.992  53.527  0.00  0.00    -0.305 N 
ATOM      2  C   UNL d   1      51.967  33.962  53.176  0.00  0.00     0.064 A 
ATOM      3  C   UNL d   1      52.100  33.152  53.166  0.00  0.00     0.018 A 
ATOM      4  C   UNL d   1      53.432  33.359  53.667  0.00  0.00     0.064 A 
ATOM      5  C   UNL d   1      52.838  32.856  53.414  0.00  0.00     0.018 A 
ATOM      6  C   UNL d   1      51.236  34.255  52.930  0.00  0.00     0.018 A 
ATOM      7  C   UNL d   1      51.523  32.635  52.918  0.00  0.00     0.002 A 
ATOM      8  C   UNL d   1      54.170  33.064  53.915  0.00  0.00     0.018 A 
ATOM      9  C   UNL d   1      52.970  32.042  53.403  0.00  0.00     0.002 A 
ATOM     10  C   UNL d   1      50.781  32.932  52.669  0.00  0.00     0.000 A 
ATOM     11  C   UNL d   1      50.642  33.735  52.676  0.00  0.00     0.002 A 
ATOM     12  C   UNL d   1      53.694  31.730  53.646  0.00  0.00     0.000 A 
ATOM     13  C   UNL d   1      54.284  32.238  53.898  0.00  0.00     0.002 A 
ENDROOT
BRANCH   1  14
ATOM     14  C   UNL d   1      53.194  34.760  53.682  0.00  0.00     0.086 C 
BRANCH  14  15
ATOM     15  C   UNL d   1      52.975  35.136  54.399  0.00  0.00     0.089 C 
BRANCH  15  16
ATOM     16  C   UNL d   1      53.165  35.936  54.511  0.00  0.00     0.213 C 
ATOM     17  O   UNL d   1      52.875  36.329  55.168  0.00  0.00    -0.644 OA
ATOM     18  O   UNL d   1      53.466  36.709  54.438  0.00  0.00    -0.644 OA
ENDBRANCH  15  16
ENDBRANCH  14  15
ENDBRANCH   1  14
TORSDOF 3
ENDMDL
