MODEL 1
REMARK VINA RESULT:     -11.9      0.000      0.000
REMARK  4 active torsions:
REMARK  status: ('A' for Active; 'I' for Inactive)
REMARK    1  A    between atoms: C_10  and  N_2 
REMARK    2  A    between atoms: C_7  and  N_4 
REMARK    3  A    between atoms: C_11  and  C_7 
REMARK    4  A    between atoms: O_22  and  C_18 
ROOT
ATOM      1  S   UNL d   1      52.830  33.942  53.930  0.00  0.00     0.276 S 
ATOM      2  N   UNL d   1      52.448  33.474  53.364  0.00  0.00    -0.184 N 
ATOM      3  C   UNL d   1      52.788  32.752  53.131  0.00  0.00     0.348 A 
ATOM      4  N   UNL d   1      53.504  32.509  53.467  0.00  0.00    -0.258 N 
ATOM      5  C   UNL d   1      53.543  33.699  54.264  0.00  0.00     0.120 A 
ATOM      6  C   UNL d   1      53.884  32.976  54.030  0.00  0.00     0.081 A 
ATOM      7  O   UNL d   1      52.974  34.586  54.446  0.00  0.00    -0.199 OA
ATOM      8  O   UNL d   1      52.125  34.306  53.681  0.00  0.00    -0.199 OA
ATOM      9  O   UNL d   1      52.408  32.272  52.559  0.00  0.00    -0.245 OA
ATOM     10  C   UNL d   1      53.919  34.166  54.824  0.00  0.00     0.014 A 
ATOM     11  C   UNL d   1      54.597  32.726  54.358  0.00  0.00     0.018 A 
ATOM     12  C   UNL d   1      54.636  33.923  55.160  0.00  0.00     0.001 A 
ATOM     13  C   UNL d   1      54.976  33.201  54.927  0.00  0.00     0.002 A 
ENDROOT
BRANCH   2  14
ATOM     14  C   UNL d   1      51.737  33.718  53.033  0.00  0.00     0.079 A 
ATOM     15  C   UNL d   1      51.020  33.558  53.413  0.00  0.00     0.020 A 
ATOM     16  C   UNL d   1      50.306  33.802  53.082  0.00  0.00     0.026 A 
ATOM     17  C   UNL d   1      50.305  34.212  52.359  0.00  0.00     0.094 A 
ATOM     18  C   UNL d   1      51.019  34.374  51.975  0.00  0.00     0.026 A 
ATOM     19  C   UNL d   1      51.737  34.128  52.310  0.00  0.00     0.020 A 
BRANCH  17  20
ATOM     20  O   UNL d   1      49.582  34.463  52.017  0.00  0.00    -0.328 OA
ATOM     21  C   UNL d   1      49.067  34.933  52.447  0.00  0.00     0.181 C 
ENDBRANCH  17  20
ENDBRANCH   2  14
BRANCH   4  22
ATOM     22  C   UNL d   1      53.844  31.788  53.233  0.00  0.00     0.087 C 
BRANCH  22  23
ATOM     23  C   UNL d   1      53.527  31.079  53.501  0.00  0.00     0.045 A 
ATOM     24  C   UNL d   1      53.397  30.473  52.966  0.00  0.00     0.141 A 
ATOM     25  F   UNL d   1      53.579  30.566  52.174  0.00  0.00    -0.204 F 
ATOM     26  C   UNL d   1      53.078  29.764  53.237  0.00  0.00     0.030 A 
ATOM     27  C   UNL d   1      52.895  29.668  54.032  0.00  0.00     0.002 A 
ATOM     28  C   UNL d   1      53.029  30.281  54.558  0.00  0.00     0.000 A 
ATOM     29  C   UNL d   1      53.345  30.988  54.292  0.00  0.00     0.004 A 
ENDBRANCH  22  23
ENDBRANCH   4  22
TORSDOF 4
ENDMDL
MODEL 2
REMARK VINA RESULT:     -11.8      1.160      2.670
REMARK  4 active torsions:
REMARK  status: ('A' for Active; 'I' for Inactive)
REMARK    1  A    between atoms: C_10  and  N_2 
REMARK    2  A    between atoms: C_7  and  N_4 
REMARK    3  A    between atoms: C_11  and  C_7 
REMARK    4  A    between atoms: O_22  and  C_18 
ROOT
ATOM      1  S   UNL d   1      52.132  31.872  53.036  0.00  0.00     0.276 S 
ATOM      2  N   UNL d   1      52.295  32.682  53.072  0.00  0.00    -0.184 N 
ATOM      3  C   UNL d   1      53.065  32.939  53.253  0.00  0.00     0.348 A 
ATOM      4  N   UNL d   1      53.660  32.382  53.395  0.00  0.00    -0.258 N 
ATOM      5  C   UNL d   1      52.725  31.318  53.178  0.00  0.00     0.120 A 
ATOM      6  C   UNL d   1      53.496  31.574  53.359  0.00  0.00     0.081 A 
ATOM      7  O   UNL d   1      51.695  31.165  52.935  0.00  0.00    -0.199 OA
ATOM      8  O   UNL d   1      51.446  32.313  52.873  0.00  0.00    -0.199 OA
ATOM      9  O   UNL d   1      53.239  33.758  53.291  0.00  0.00    -0.245 OA
ATOM     10  C   UNL d   1      52.560  30.515  53.141  0.00  0.00     0.014 A 
ATOM     11  C   UNL d   1      54.095  31.027  53.502  0.00  0.00     0.018 A 
ATOM     12  C   UNL d   1      53.155  29.956  53.283  0.00  0.00     0.001 A 
ATOM     13  C   UNL d   1      53.925  30.213  53.464  0.00  0.00     0.002 A 
ENDROOT
BRANCH   2  14
ATOM     14  C   UNL d   1      51.703  33.233  52.931  0.00  0.00     0.079 A 
ATOM     15  C   UNL d   1      51.652  33.616  52.199  0.00  0.00     0.020 A 
ATOM     16  C   UNL d   1      51.058  34.170  52.055  0.00  0.00     0.026 A 
ATOM     17  C   UNL d   1      50.505  34.345  52.650  0.00  0.00     0.094 A 
ATOM     18  C   UNL d   1      50.551  33.965  53.384  0.00  0.00     0.026 A 
ATOM     19  C   UNL d   1      51.150  33.408  53.526  0.00  0.00     0.020 A 
BRANCH  17  20
ATOM     20  O   UNL d   1      49.898  34.906  52.511  0.00  0.00    -0.328 OA
ATOM     21  C   UNL d   1      49.253  34.705  52.048  0.00  0.00     0.181 C 
ENDBRANCH  17  20
ENDBRANCH   2  14
BRANCH   4  22
ATOM     22  C   UNL d   1      54.429  32.638  53.575  0.00  0.00     0.087 C 
BRANCH  22  23
ATOM     23  C   UNL d   1      54.587  32.979  54.305  0.00  0.00     0.045 A 
ATOM     24  C   UNL d   1      55.232  33.479  54.381  0.00  0.00     0.141 A 
ATOM     25  F   UNL d   1      55.716  33.639  53.741  0.00  0.00    -0.204 F 
ATOM     26  C   UNL d   1      55.388  33.820  55.114  0.00  0.00     0.030 A 
ATOM     27  C   UNL d   1      54.903  33.660  55.758  0.00  0.00     0.002 A 
ATOM     28  C   UNL d   1      54.261  33.159  55.670  0.00  0.00     0.000 A 
ATOM     29  C   UNL d   1      54.103  32.818  54.944  0.00  0.00     0.004 A 
ENDBRANCH  22  23
ENDBRANCH   4  22
TORSDOF 4
ENDMDL
MODEL 3
REMARK VINA RESULT:     -11.0      1.389      3.810
REMARK  4 active torsions:
REMARK  status: ('A' for Active; 'I' for Inactive)
REMARK    1  A    between atoms: C_10  and  N_2 
REMARK    2  A    between atoms: C_7  and  N_4 
REMARK    3  A    between atoms: C_11  and  C_7 
REMARK    4  A    between atoms: O_22  and  C_18 
ROOT
ATOM      1  S   UNL d   1      53.686  32.651  54.397  0.00  0.00     0.276 S 
ATOM      2  N   UNL d   1      53.310  32.220  53.800  0.00  0.00    -0.184 N 
ATOM      3  C   UNL d   1      52.907  32.622  53.193  0.00  0.00     0.348 A 
ATOM      4  N   UNL d   1      52.887  33.449  53.194  0.00  0.00    -0.258 N 
ATOM      5  C   UNL d   1      53.665  33.476  54.397  0.00  0.00     0.120 A 
ATOM      6  C   UNL d   1      53.262  33.878  53.790  0.00  0.00     0.081 A 
ATOM      7  O   UNL d   1      54.130  32.807  55.090  0.00  0.00    -0.199 OA
ATOM      8  O   UNL d   1      53.786  31.836  54.522  0.00  0.00    -0.199 OA
ATOM      9  O   UNL d   1      52.523  32.193  52.584  0.00  0.00    -0.245 OA
ATOM     10  C   UNL d   1      54.039  33.900  54.991  0.00  0.00     0.014 A 
ATOM     11  C   UNL d   1      53.237  34.702  53.782  0.00  0.00     0.018 A 
ATOM     12  C   UNL d   1      54.019  34.728  54.992  0.00  0.00     0.001 A 
ATOM     13  C   UNL d   1      53.617  35.130  54.385  0.00  0.00     0.002 A 
ENDROOT
BRANCH   2  14
ATOM     14  C   UNL d   1      53.331  31.399  53.802  0.00  0.00     0.079 A 
ATOM     15  C   UNL d   1      53.896  30.993  53.355  0.00  0.00     0.020 A 
ATOM     16  C   UNL d   1      53.919  30.169  53.356  0.00  0.00     0.026 A 
ATOM     17  C   UNL d   1      53.370  29.741  53.810  0.00  0.00     0.094 A 
ATOM     18  C   UNL d   1      52.803  30.142  54.259  0.00  0.00     0.026 A 
ATOM     19  C   UNL d   1      52.782  30.972  54.257  0.00  0.00     0.020 A 
BRANCH  17  20
ATOM     20  O   UNL d   1      53.388  28.903  53.816  0.00  0.00    -0.328 OA
ATOM     21  C   UNL d   1      53.464  28.501  54.525  0.00  0.00     0.181 C 
ENDBRANCH  17  20
ENDBRANCH   2  14
BRANCH   4  22
ATOM     22  C   UNL d   1      52.485  33.851  52.588  0.00  0.00     0.087 C 
BRANCH  22  23
ATOM     23  C   UNL d   1      51.669  33.934  52.622  0.00  0.00     0.045 A 
ATOM     24  C   UNL d   1      51.268  34.210  51.963  0.00  0.00     0.141 A 
ATOM     25  F   UNL d   1      51.670  34.401  51.278  0.00  0.00    -0.204 F 
ATOM     26  C   UNL d   1      50.449  34.292  52.000  0.00  0.00     0.030 A 
ATOM     27  C   UNL d   1      50.044  34.100  52.688  0.00  0.00     0.002 A 
ATOM     28  C   UNL d   1      50.455  33.825  53.341  0.00  0.00     0.000 A 
ATOM     29  C   UNL d   1      51.268  33.742  53.308  0.00  0.00     0.004 A 
ENDBRANCH  22  23
ENDBRANCH   4  22
TORSDOF 4
ENDMDL
MODEL 4
REMARK VINA RESULT:     -10.1      1.486      3.996
REMARK  4 active torsions:
REMARK  status: ('A' for Active; 'I' for Inactive)
REMARK    1  A    between atoms: C_10  and  N_2 
REMARK    2  A    between atoms: C_7  and  N_4 
REMARK    3  A    between atoms: C_11  and  C_7 
REMARK    4  A    between atoms: O_22  and  C_18 
ROOT
ATOM      1  S   UNL d   1      52.224  32.132  53.158  0.00  0.00     0.276 S 
ATOM      2  N   UNL d   1      52.935  31.793  53.410  0.00  0.00    -0.184 N 
ATOM      3  C   UNL d   1      53.603  32.276  53.525  0.00  0.00     0.348 A 
ATOM      4  N   UNL d   1      53.548  33.090  53.385  0.00  0.00    -0.258 N 
ATOM      5  C   UNL d   1      52.171  32.943  53.019  0.00  0.00     0.120 A 
ATOM      6  C   UNL d   1      52.838  33.426  53.134  0.00  0.00     0.081 A 
ATOM      7  O   UNL d   1      51.422  32.185  52.923  0.00  0.00    -0.199 OA
ATOM      8  O   UNL d   1      52.135  31.311  53.258  0.00  0.00    -0.199 OA
ATOM      9  O   UNL d   1      54.327  31.941  53.780  0.00  0.00    -0.245 OA
ATOM     10  C   UNL d   1      51.464  33.275  52.769  0.00  0.00     0.014 A 
ATOM     11  C   UNL d   1      52.794  34.237  52.998  0.00  0.00     0.018 A 
ATOM     12  C   UNL d   1      51.408  34.089  52.630  0.00  0.00     0.001 A 
ATOM     13  C   UNL d   1      52.076  34.572  52.744  0.00  0.00     0.002 A 
ENDROOT
BRANCH   2  14
ATOM     14  C   UNL d   1      52.987  30.985  53.548  0.00  0.00     0.079 A 
ATOM     15  C   UNL d   1      53.103  30.459  52.920  0.00  0.00     0.020 A 
ATOM     16  C   UNL d   1      53.154  29.647  53.056  0.00  0.00     0.026 A 
ATOM     17  C   UNL d   1      53.089  29.354  53.831  0.00  0.00     0.094 A 
ATOM     18  C   UNL d   1      52.973  29.876  54.462  0.00  0.00     0.026 A 
ATOM     19  C   UNL d   1      52.922  30.692  54.322  0.00  0.00     0.020 A 
BRANCH  17  20
ATOM     20  O   UNL d   1      53.141  28.531  53.976  0.00  0.00    -0.328 OA
ATOM     21  C   UNL d   1      53.524  28.257  54.646  0.00  0.00     0.181 C 
ENDBRANCH  17  20
ENDBRANCH   2  14
BRANCH   4  22
ATOM     22  C   UNL d   1      54.215  33.572  53.500  0.00  0.00     0.087 C 
BRANCH  22  23
ATOM     23  C   UNL d   1      54.500  33.703  54.258  0.00  0.00     0.045 A 
ATOM     24  C   UNL d   1      55.309  33.693  54.387  0.00  0.00     0.141 A 
ATOM     25  F   UNL d   1      55.830  33.554  53.772  0.00  0.00    -0.204 F 
ATOM     26  C   UNL d   1      55.593  33.825  55.149  0.00  0.00     0.030 A 
ATOM     27  C   UNL d   1      55.072  33.964  55.768  0.00  0.00     0.002 A 
ATOM     28  C   UNL d   1      54.265  33.973  55.627  0.00  0.00     0.000 A 
ATOM     29  C   UNL d   1      53.979  33.842  54.872  0.00  0.00     0.004 A 
ENDBRANCH  22  23
ENDBRANCH   4  22
TORSDOF 4
ENDMDL
