MODEL 1
REMARK VINA RESULT:      56.9      0.000      0.000
REMARK  8 active torsions:
REMARK  status: ('A' for Active; 'I' for Inactive)
REMARK    1  A    between atoms: C_16  and  N_1 
REMARK    2  A    between atoms: S_7  and  C_2 
REMARK       I    between atoms: C_6  and  N_12 
REMARK    3  A    between atoms: C_9  and  C_6 
REMARK    4  A    between atoms: C_13  and  S_7 
REMARK    5  A    between atoms: C_8  and  C_13 
REMARK    6  A    between atoms: N_12  and  C_22 
REMARK    7  A    between atoms: C_22  and  C_16 
REMARK    8  A    between atoms: O_24  and  C_18 
ROOT
ATOM      1  N   UNL d   1     -56.390-100.499 -43.710  0.00  0.00    -0.302 N 
ATOM      2  C   UNL d   1     -57.060 -99.392 -44.053  0.00  0.00     0.049 A 
ATOM      3  C   UNL d   1     -57.122-100.109 -43.649  0.00  0.00     0.087 A 
ATOM      4  C   UNL d   1     -56.291 -99.331 -44.368  0.00  0.00     0.024 A 
ATOM      5  C   UNL d   1     -55.877-100.022 -44.153  0.00  0.00     0.065 A 
ATOM      6  C   UNL d   1     -55.910 -98.755 -44.814  0.00  0.00     0.002 A 
ATOM      7  C   UNL d   1     -55.086-100.123 -44.389  0.00  0.00     0.018 A 
ATOM      8  C   UNL d   1     -55.132 -98.853 -45.049  0.00  0.00     0.000 A 
ATOM      9  C   UNL d   1     -54.718 -99.543 -44.833  0.00  0.00     0.002 A 
ENDROOT
BRANCH   1  10
ATOM     10  C   UNL d   1     -56.207-101.235 -43.386  0.00  0.00     0.101 C 
BRANCH  10  11
ATOM     11  C   UNL d   1     -55.512-101.337 -42.954  0.00  0.00     0.121 C 
BRANCH  11  12
ATOM     12  N   UNL d   1     -55.529-101.715 -42.221  0.00  0.00    -0.205 NA
ATOM     13  C   UNL d   1     -55.234-101.335 -41.554  0.00  0.00     0.279 C 
ATOM     14  O   UNL d   1     -54.919-100.574 -41.614  0.00  0.00    -0.265 OA
BRANCH  13  15
ATOM     15  C   UNL d   1     -55.252-101.713 -40.821  0.00  0.00     0.058 A 
ATOM     16  C   UNL d   1     -54.712-101.488 -40.223  0.00  0.00     0.007 A 
ATOM     17  C   UNL d   1     -54.728-101.865 -39.489  0.00  0.00     0.024 A 
ATOM     18  C   UNL d   1     -55.285-102.466 -39.358  0.00  0.00     0.094 A 
ATOM     19  C   UNL d   1     -55.816-102.686 -39.949  0.00  0.00     0.024 A 
ATOM     20  C   UNL d   1     -55.796-102.310 -40.673  0.00  0.00     0.007 A 
BRANCH  18  21
ATOM     21  O   UNL d   1     -55.312-102.856 -38.616  0.00  0.00    -0.328 OA
ATOM     22  C   UNL d   1     -55.081-102.476 -37.917  0.00  0.00     0.181 C 
ENDBRANCH  18  21
ENDBRANCH  13  15
ENDBRANCH  11  12
ENDBRANCH  10  11
ENDBRANCH   1  10
BRANCH   2  23
ATOM     23  S   UNL d   1     -57.653 -98.825 -44.137  0.00  0.00    -0.080 SA
BRANCH  23  24
ATOM     24  C   UNL d   1     -58.441 -99.025 -43.979  0.00  0.00     0.100 C 
BRANCH  24  25
ATOM     25  C   UNL d   1     -59.014 -98.959 -44.564  0.00  0.00     0.303 C 
ATOM     26  O   UNL d   1     -58.789 -98.803 -45.342  0.00  0.00    -0.263 OA
ATOM     27  N   UNL d   1     -59.813 -99.049 -44.376  0.00  0.00    -0.102 N 
ENDBRANCH  24  25
ENDBRANCH  23  24
ENDBRANCH   2  23
TORSDOF 8
ENDMDL
MODEL 2
REMARK VINA RESULT:      57.7      1.367      1.873
REMARK  8 active torsions:
REMARK  status: ('A' for Active; 'I' for Inactive)
REMARK    1  A    between atoms: C_16  and  N_1 
REMARK    2  A    between atoms: S_7  and  C_2 
REMARK       I    between atoms: C_6  and  N_12 
REMARK    3  A    between atoms: C_9  and  C_6 
REMARK    4  A    between atoms: C_13  and  S_7 
REMARK    5  A    between atoms: C_8  and  C_13 
REMARK    6  A    between atoms: N_12  and  C_22 
REMARK    7  A    between atoms: C_22  and  C_16 
REMARK    8  A    between atoms: O_24  and  C_18 
ROOT
ATOM      1  N   UNL d   1     -54.962-101.190 -43.342  0.00  0.00    -0.302 N 
ATOM      2  C   UNL d   1     -55.359-100.217 -44.171  0.00  0.00     0.049 A 
ATOM      3  C   UNL d   1     -55.126-100.376 -43.395  0.00  0.00     0.087 A 
ATOM      4  C   UNL d   1     -55.341-100.929 -44.605  0.00  0.00     0.024 A 
ATOM      5  C   UNL d   1     -55.093-101.532 -44.085  0.00  0.00     0.065 A 
ATOM      6  C   UNL d   1     -55.511-101.115 -45.387  0.00  0.00     0.002 A 
ATOM      7  C   UNL d   1     -55.021-102.313 -44.360  0.00  0.00     0.018 A 
ATOM      8  C   UNL d   1     -55.440-101.883 -45.660  0.00  0.00     0.000 A 
ATOM      9  C   UNL d   1     -55.193-102.486 -45.141  0.00  0.00     0.002 A 
ENDROOT
BRANCH   1  10
ATOM     10  C   UNL d   1     -54.711-101.587 -42.664  0.00  0.00     0.101 C 
BRANCH  10  11
ATOM     11  C   UNL d   1     -55.238-102.061 -42.242  0.00  0.00     0.121 C 
BRANCH  11  12
ATOM     12  N   UNL d   1     -55.116-102.205 -41.438  0.00  0.00    -0.205 NA
ATOM     13  C   UNL d   1     -55.738-102.123 -40.907  0.00  0.00     0.279 C 
ATOM     14  O   UNL d   1     -56.486-101.897 -41.172  0.00  0.00    -0.265 OA
BRANCH  13  15
ATOM     15  C   UNL d   1     -55.616-102.267 -40.103  0.00  0.00     0.058 A 
ATOM     16  C   UNL d   1     -56.168-101.983 -39.541  0.00  0.00     0.007 A 
ATOM     17  C   UNL d   1     -56.047-102.126 -38.737  0.00  0.00     0.024 A 
ATOM     18  C   UNL d   1     -55.375-102.552 -38.500  0.00  0.00     0.094 A 
ATOM     19  C   UNL d   1     -54.834-102.830 -39.056  0.00  0.00     0.024 A 
ATOM     20  C   UNL d   1     -54.958-102.686 -39.850  0.00  0.00     0.007 A 
BRANCH  18  21
ATOM     21  O   UNL d   1     -55.242-102.704 -37.687  0.00  0.00    -0.328 OA
ATOM     22  C   UNL d   1     -55.551-102.211 -37.097  0.00  0.00     0.181 C 
ENDBRANCH  18  21
ENDBRANCH  13  15
ENDBRANCH  11  12
ENDBRANCH  10  11
ENDBRANCH   1  10
BRANCH   2  23
ATOM     23  S   UNL d   1     -55.575 -99.481 -44.476  0.00  0.00    -0.080 SA
BRANCH  23  24
ATOM     24  C   UNL d   1     -56.353 -99.210 -44.389  0.00  0.00     0.100 C 
BRANCH  24  25
ATOM     25  C   UNL d   1     -56.794 -98.987 -45.046  0.00  0.00     0.303 C 
ATOM     26  O   UNL d   1     -56.438 -98.966 -45.789  0.00  0.00    -0.263 OA
ATOM     27  N   UNL d   1     -57.589 -98.786 -44.963  0.00  0.00    -0.102 N 
ENDBRANCH  24  25
ENDBRANCH  23  24
ENDBRANCH   2  23
TORSDOF 8
ENDMDL
