MODEL 1
REMARK VINA RESULT:      92.5      0.000      0.000
REMARK  5 active torsions:
REMARK  status: ('A' for Active; 'I' for Inactive)
REMARK       I    between atoms: C_7  and  N_1 
REMARK    1  A    between atoms: C_11  and  C_3 
REMARK    2  A    between atoms: C_14  and  C_5 
REMARK    3  A    between atoms: C_18  and  C_7 
REMARK    4  A    between atoms: C_17  and  O_19 
REMARK    5  A    between atoms: O_19  and  C_18 
ROOT
ATOM      1  N   UNL d   1     -49.387  27.456  35.360  0.00  0.00    -0.193 N 
ATOM      2  N   UNL d   1     -49.917  27.053  35.847  0.00  0.00    -0.162 NA
ATOM      3  C   UNL d   1     -49.925  27.441  36.578  0.00  0.00     0.109 A 
ATOM      4  C   UNL d   1     -49.072  28.086  35.789  0.00  0.00     0.088 A 
ATOM      5  C   UNL d   1     -49.408  28.072  36.541  0.00  0.00     0.041 A 
ATOM      6  C   UNL d   1     -49.150  27.329  34.579  0.00  0.00     0.305 C 
ATOM      7  O   UNL d   1     -48.598  27.833  34.228  0.00  0.00    -0.263 OA
ENDROOT
BRANCH   4   8
ATOM      8  C   UNL d   1     -48.520  28.649  35.545  0.00  0.00     0.018 A 
ATOM      9  C   UNL d   1     -47.720  28.465  35.553  0.00  0.00     0.004 A 
ATOM     10  C   UNL d   1     -47.164  29.027  35.308  0.00  0.00     0.030 A 
ATOM     11  C   UNL d   1     -47.416  29.761  35.061  0.00  0.00     0.140 A 
ATOM     12  C   UNL d   1     -48.225  29.946  35.054  0.00  0.00     0.030 A 
ATOM     13  F   UNL d   1     -46.855  30.323  34.817  0.00  0.00    -0.204 F 
ATOM     14  C   UNL d   1     -48.772  29.391  35.295  0.00  0.00     0.004 A 
ENDBRANCH   4   8
BRANCH   6  15
ATOM     15  C   UNL d   1     -49.465  26.699  34.150  0.00  0.00     0.185 C 
BRANCH  15  16
ATOM     16  O   UNL d   1     -49.907  26.845  33.468  0.00  0.00    -0.300 OA
BRANCH  16  17
ATOM     17  C   UNL d   1     -50.695  26.602  33.429  0.00  0.00     0.100 A 
ATOM     18  C   UNL d   1     -50.878  25.797  33.407  0.00  0.00     0.029 A 
ATOM     19  C   UNL d   1     -51.665  25.554  33.367  0.00  0.00     0.059 A 
ATOM     20  C   UNL d   1     -50.274  25.240  33.425  0.00  0.00     0.021 A 
ATOM     21  C   UNL d   1     -51.849  24.754  33.345  0.00  0.00     0.265 A 
ATOM     22  C   UNL d   1     -52.269  26.115  33.349  0.00  0.00     0.005 A 
ATOM     23  O   UNL d   1     -52.636  24.511  33.306  0.00  0.00    -0.267 OA
ATOM     24  N   UNL d   1     -51.244  24.192  33.364  0.00  0.00    -0.270 N 
ATOM     25  C   UNL d   1     -50.457  24.435  33.403  0.00  0.00     0.083 A 
ATOM     26  C   UNL d   1     -51.433  23.380  33.341  0.00  0.00     0.102 C 
ATOM     27  C   UNL d   1     -52.087  26.920  33.371  0.00  0.00     0.002 A 
ATOM     28  C   UNL d   1     -51.300  27.163  33.410  0.00  0.00     0.025 A 
ENDBRANCH  16  17
ENDBRANCH  15  16
ENDBRANCH   6  15
BRANCH   3  29
ATOM     29  C   UNL d   1     -50.387  27.201  37.207  0.00  0.00     0.049 A 
ATOM     30  S   UNL d   1     -50.661  27.716  37.803  0.00  0.00    -0.085 SA
ATOM     31  C   UNL d   1     -51.101  27.275  38.331  0.00  0.00     0.035 A 
ATOM     32  C   UNL d   1     -51.108  26.493  38.075  0.00  0.00     0.007 A 
ATOM     33  C   UNL d   1     -50.668  26.445  37.383  0.00  0.00     0.009 A 
ENDBRANCH   3  29
TORSDOF 5
ENDMDL
