MODEL 1
REMARK VINA RESULT:      10.0      0.000      0.000
REMARK  4 active torsions:
REMARK  status: ('A' for Active; 'I' for Inactive)
REMARK    1  A    between atoms: N_3  and  C_2 
REMARK       I    between atoms: C_6  and  N_3 
REMARK    2  A    between atoms: C_8  and  C_4 
REMARK    3  A    between atoms: C_9  and  C_6 
REMARK    4  A    between atoms: C_12  and  C_8 
ROOT
ATOM      1  N   UNL d   1      45.925 -16.745  43.735  0.00  0.00    -0.181 NA
ATOM      2  C   UNL d   1      46.130 -17.438  44.136  0.00  0.00     0.281 C 
ATOM      3  O   UNL d   1      46.168 -17.446  44.955  0.00  0.00    -0.265 OA
ENDROOT
BRANCH   1   4
ATOM      4  C   UNL d   1      45.758 -16.058  44.154  0.00  0.00     0.216 A 
ATOM      5  N   UNL d   1      46.211 -15.369  44.159  0.00  0.00    -0.200 NA
ATOM      6  C   UNL d   1      45.837 -14.820  44.655  0.00  0.00     0.175 A 
ATOM      7  N   UNL d   1      45.148 -15.181  44.955  0.00  0.00    -0.187 NA
ATOM      8  S   UNL d   1      45.107 -15.936  44.645  0.00  0.00     0.054 SA
BRANCH   6   9
ATOM      9  C   UNL d   1      46.100 -14.060  44.819  0.00  0.00     0.082 C 
BRANCH   9  10
ATOM     10  C   UNL d   1      45.746 -13.410  44.449  0.00  0.00     0.199 C 
ATOM     11  O   UNL d   1      45.855 -13.294  43.639  0.00  0.00    -0.286 OA
ATOM     12  C   UNL d   1      45.286 -12.879  44.888  0.00  0.00     0.045 C 
ENDBRANCH   9  10
ENDBRANCH   6   9
ENDBRANCH   1   4
BRANCH   2  13
ATOM     13  C   UNL d   1      46.296 -18.125  43.709  0.00  0.00     0.060 A 
ATOM     14  C   UNL d   1      46.314 -18.102  42.882  0.00  0.00     0.034 A 
ATOM     15  C   UNL d   1      46.480 -18.785  42.451  0.00  0.00     0.140 A 
ATOM     16  F   UNL d   1      46.495 -18.754  41.626  0.00  0.00    -0.204 F 
ATOM     17  C   UNL d   1      46.627 -19.488  42.848  0.00  0.00     0.030 A 
ATOM     18  C   UNL d   1      46.610 -19.514  43.672  0.00  0.00     0.003 A 
ATOM     19  C   UNL d   1      46.444 -18.831  44.102  0.00  0.00     0.005 A 
ENDBRANCH   2  13
TORSDOF 4
ENDMDL
MODEL 2
REMARK VINA RESULT:      11.4      1.841      4.484
REMARK  4 active torsions:
REMARK  status: ('A' for Active; 'I' for Inactive)
REMARK    1  A    between atoms: N_3  and  C_2 
REMARK       I    between atoms: C_6  and  N_3 
REMARK    2  A    between atoms: C_8  and  C_4 
REMARK    3  A    between atoms: C_9  and  C_6 
REMARK    4  A    between atoms: C_12  and  C_8 
ROOT
ATOM      1  N   UNL d   1      46.272 -16.447  44.319  0.00  0.00    -0.181 NA
ATOM      2  C   UNL d   1      45.622 -16.042  44.630  0.00  0.00     0.281 C 
ATOM      3  O   UNL d   1      44.987 -16.456  44.942  0.00  0.00    -0.265 OA
ENDROOT
BRANCH   1   4
ATOM      4  C   UNL d   1      46.287 -17.269  44.321  0.00  0.00     0.216 A 
ATOM      5  N   UNL d   1      46.539 -17.753  43.702  0.00  0.00    -0.200 NA
ATOM      6  C   UNL d   1      46.459 -18.542  43.943  0.00  0.00     0.175 A 
ATOM      7  N   UNL d   1      46.153 -18.537  44.720  0.00  0.00    -0.187 NA
ATOM      8  S   UNL d   1      46.051 -17.758  44.942  0.00  0.00     0.054 SA
BRANCH   6   9
ATOM      9  C   UNL d   1      46.647 -19.204  43.497  0.00  0.00     0.082 C 
BRANCH   9  10
ATOM     10  C   UNL d   1      46.195 -19.398  42.832  0.00  0.00     0.199 C 
ATOM     11  O   UNL d   1      45.568 -19.929  42.907  0.00  0.00    -0.286 OA
ATOM     12  C   UNL d   1      46.371 -19.062  42.096  0.00  0.00     0.045 C 
ENDBRANCH   9  10
ENDBRANCH   6   9
ENDBRANCH   1   4
BRANCH   2  13
ATOM     13  C   UNL d   1      45.614 -15.217  44.626  0.00  0.00     0.060 A 
ATOM     14  C   UNL d   1      44.975 -14.812  44.289  0.00  0.00     0.034 A 
ATOM     15  C   UNL d   1      44.963 -13.988  44.282  0.00  0.00     0.140 A 
ATOM     16  F   UNL d   1      44.322 -13.592  43.944  0.00  0.00    -0.204 F 
ATOM     17  C   UNL d   1      45.588 -13.571  44.612  0.00  0.00     0.030 A 
ATOM     18  C   UNL d   1      46.226 -13.972  44.948  0.00  0.00     0.003 A 
ATOM     19  C   UNL d   1      46.238 -14.796  44.955  0.00  0.00     0.005 A 
ENDBRANCH   2  13
TORSDOF 4
ENDMDL
