MODEL 1
REMARK VINA RESULT:      14.2      0.000      0.000
REMARK  8 active torsions:
REMARK  status: ('A' for Active; 'I' for Inactive)
REMARK    1  A    between atoms: C_6  and  C_1 
REMARK    2  A    between atoms: C_7  and  C_3 
REMARK       I    between atoms: N_10  and  C_6 
REMARK    3  A    between atoms: O_12  and  C_7 
REMARK    4  A    between atoms: C_20  and  N_10 
REMARK    5  A    between atoms: C_23  and  O_12 
REMARK    6  A    between atoms: O_21  and  C_14 
REMARK    7  A    between atoms: C_15  and  C_22 
REMARK    8  A    between atoms: C_22  and  C_20 
ROOT
ATOM      1  C   UNL d   1      46.300 -18.755  43.579  0.00  0.00     0.075 A 
ATOM      2  C   UNL d   1      46.451 -18.564  42.790  0.00  0.00     0.027 A 
ATOM      3  C   UNL d   1      46.373 -19.247  42.339  0.00  0.00     0.121 A 
ATOM      4  N   UNL d   1      46.171 -19.872  42.854  0.00  0.00    -0.349 N 
ATOM      5  C   UNL d   1      46.127 -19.562  43.616  0.00  0.00     0.061 A 
ATOM      6  C   UNL d   1      46.646 -17.817  42.504  0.00  0.00     0.002 C 
ATOM      7  C   UNL d   1      45.942 -19.986  44.303  0.00  0.00     0.019 C 
ATOM      8  H   UNL d   1      46.039 -20.656  42.636  0.00  0.00     0.166 HD
ENDROOT
BRANCH   1   9
ATOM      9  C   UNL d   1      46.318 -18.234  44.214  0.00  0.00     0.281 C 
ATOM     10  O   UNL d   1      46.568 -18.494  44.955  0.00  0.00    -0.265 OA
ATOM     11  N   UNL d   1      46.086 -17.448  44.115  0.00  0.00    -0.206 NA
BRANCH  11  12
ATOM     12  C   UNL d   1      46.104 -16.927  44.751  0.00  0.00     0.102 C 
BRANCH  12  13
ATOM     13  C   UNL d   1      45.457 -16.447  44.911  0.00  0.00     0.021 C 
BRANCH  13  14
ATOM     14  C   UNL d   1      45.493 -15.641  44.774  0.00  0.00     0.002 A 
ATOM     15  C   UNL d   1      46.223 -15.255  44.701  0.00  0.00     0.002 A 
ATOM     16  C   UNL d   1      46.259 -14.448  44.564  0.00  0.00     0.024 A 
ATOM     17  C   UNL d   1      45.559 -14.005  44.497  0.00  0.00     0.094 A 
ATOM     18  C   UNL d   1      44.825 -14.378  44.567  0.00  0.00     0.024 A 
ATOM     19  C   UNL d   1      44.794 -15.197  44.706  0.00  0.00     0.002 A 
BRANCH  17  20
ATOM     20  O   UNL d   1      45.597 -13.193  44.359  0.00  0.00    -0.328 OA
ATOM     21  C   UNL d   1      45.944 -12.694  44.920  0.00  0.00     0.181 C 
ENDBRANCH  17  20
ENDBRANCH  13  14
ENDBRANCH  12  13
ENDBRANCH  11  12
ENDBRANCH   1   9
BRANCH   3  22
ATOM     22  C   UNL d   1      46.474 -19.315  41.520  0.00  0.00     0.316 C 
ATOM     23  O   UNL d   1      46.636 -20.048  41.179  0.00  0.00    -0.257 OA
BRANCH  22  24
ATOM     24  O   UNL d   1      46.412 -18.642  41.052  0.00  0.00    -0.270 OA
BRANCH  24  25
ATOM     25  C   UNL d   1      46.454 -18.711  40.229  0.00  0.00     0.126 C 
ATOM     26  C   UNL d   1      45.865 -18.391  39.757  0.00  0.00     0.029 C 
ENDBRANCH  24  25
ENDBRANCH  22  24
ENDBRANCH   3  22
TORSDOF 8
ENDMDL
MODEL 2
REMARK VINA RESULT:      16.8      1.438      5.297
REMARK  8 active torsions:
REMARK  status: ('A' for Active; 'I' for Inactive)
REMARK    1  A    between atoms: C_6  and  C_1 
REMARK    2  A    between atoms: C_7  and  C_3 
REMARK       I    between atoms: N_10  and  C_6 
REMARK    3  A    between atoms: O_12  and  C_7 
REMARK    4  A    between atoms: C_20  and  N_10 
REMARK    5  A    between atoms: C_23  and  O_12 
REMARK    6  A    between atoms: O_21  and  C_14 
REMARK    7  A    between atoms: C_15  and  C_22 
REMARK    8  A    between atoms: C_22  and  C_20 
ROOT
ATOM      1  C   UNL d   1      45.579 -14.747  44.221  0.00  0.00     0.075 A 
ATOM      2  C   UNL d   1      45.863 -13.972  44.233  0.00  0.00     0.027 A 
ATOM      3  C   UNL d   1      45.264 -13.473  43.973  0.00  0.00     0.121 A 
ATOM      4  N   UNL d   1      44.597 -13.943  43.798  0.00  0.00    -0.349 N 
ATOM      5  C   UNL d   1      44.797 -14.727  43.952  0.00  0.00     0.061 A 
ATOM      6  C   UNL d   1      46.619 -13.739  44.465  0.00  0.00     0.002 C 
ATOM      7  C   UNL d   1      44.302 -15.383  43.856  0.00  0.00     0.019 C 
ATOM      8  H   UNL d   1      43.871 -13.668  43.520  0.00  0.00     0.166 HD
ENDROOT
BRANCH   1   9
ATOM      9  C   UNL d   1      45.998 -15.419  44.439  0.00  0.00     0.281 C 
ATOM     10  O   UNL d   1      46.646 -15.357  44.943  0.00  0.00    -0.265 OA
ATOM     11  N   UNL d   1      45.774 -16.161  44.153  0.00  0.00    -0.206 NA
BRANCH  11  12
ATOM     12  C   UNL d   1      46.193 -16.833  44.370  0.00  0.00     0.102 C 
BRANCH  12  13
ATOM     13  C   UNL d   1      45.835 -17.572  44.341  0.00  0.00     0.021 C 
BRANCH  13  14
ATOM     14  C   UNL d   1      46.034 -18.108  43.754  0.00  0.00     0.002 A 
ATOM     15  C   UNL d   1      46.209 -18.897  43.941  0.00  0.00     0.002 A 
ATOM     16  C   UNL d   1      46.408 -19.432  43.354  0.00  0.00     0.024 A 
ATOM     17  C   UNL d   1      46.438 -19.189  42.560  0.00  0.00     0.094 A 
ATOM     18  C   UNL d   1      46.266 -18.405  42.361  0.00  0.00     0.024 A 
ATOM     19  C   UNL d   1      46.064 -17.865  42.960  0.00  0.00     0.002 A 
BRANCH  17  20
ATOM     20  O   UNL d   1      46.638 -19.729  41.970  0.00  0.00    -0.328 OA
ATOM     21  C   UNL d   1      46.385 -19.604  41.193  0.00  0.00     0.181 C 
ENDBRANCH  17  20
ENDBRANCH  13  14
ENDBRANCH  12  13
ENDBRANCH  11  12
ENDBRANCH   1   9
BRANCH   3  22
ATOM     22  C   UNL d   1      45.304 -12.649  43.896  0.00  0.00     0.316 C 
ATOM     23  O   UNL d   1      45.799 -12.208  44.384  0.00  0.00    -0.257 OA
BRANCH  22  24
ATOM     24  O   UNL d   1      44.842 -12.278  43.326  0.00  0.00    -0.270 OA
BRANCH  24  25
ATOM     25  C   UNL d   1      45.170 -12.091  42.591  0.00  0.00     0.126 C 
ATOM     26  C   UNL d   1      44.710 -12.117  41.914  0.00  0.00     0.029 C 
ENDBRANCH  24  25
ENDBRANCH  22  24
ENDBRANCH   3  22
TORSDOF 8
ENDMDL
