MODEL 1
REMARK VINA RESULT:      -4.1      0.000      0.000
REMARK  3 active torsions:
REMARK  status: ('A' for Active; 'I' for Inactive)
REMARK    1  A    between atoms: C_9  and  C_4 
REMARK    2  A    between atoms: C_10  and  C_7 
REMARK    3  A    between atoms: C_11  and  C_10 
ROOT
ATOM      1  C   UNL d   1      58.514  -9.799  32.950  0.00  0.00     0.179 A 
ATOM      2  N   UNL d   1      59.257  -9.793  32.597  0.00  0.00    -0.282 N 
ATOM      3  N   UNL d   1      57.941  -9.806  32.349  0.00  0.00    -0.221 NA
ATOM      4  C   UNL d   1      58.331  -9.803  31.626  0.00  0.00     0.101 A 
ATOM      5  S   UNL d   1      58.620  -9.797  33.766  0.00  0.00    -0.048 SA
ATOM      6  C   UNL d   1      59.144  -9.796  31.775  0.00  0.00     0.101 A 
ATOM      7  C   UNL d   1      59.427  -9.789  33.916  0.00  0.00     0.050 A 
ATOM      8  C   UNL d   1      59.822  -9.787  33.186  0.00  0.00     0.089 A 
ENDROOT
BRANCH   7   9
ATOM      9  C   UNL d   1      59.781  -9.785  34.660  0.00  0.00     0.008 C 
BRANCH   9  10
ATOM     10  C   UNL d   1      59.919  -9.069  35.043  0.00  0.00     0.001 A 
ATOM     11  C   UNL d   1      59.315  -8.710  35.479  0.00  0.00     0.002 A 
ATOM     12  C   UNL d   1      59.453  -7.995  35.861  0.00  0.00     0.030 A 
ATOM     13  C   UNL d   1      60.194  -7.635  35.811  0.00  0.00     0.140 A 
ATOM     14  C   UNL d   1      60.796  -7.990  35.378  0.00  0.00     0.030 A 
ATOM     15  F   UNL d   1      60.328  -6.913  36.199  0.00  0.00    -0.204 F 
ATOM     16  C   UNL d   1      60.660  -8.709  34.992  0.00  0.00     0.002 A 
ENDBRANCH   9  10
ENDBRANCH   7   9
BRANCH   4  17
ATOM     17  C   UNL d   1      57.981  -9.808  30.885  0.00  0.00     0.019 A 
ATOM     18  C   UNL d   1      57.163  -9.811  30.814  0.00  0.00     0.002 A 
ATOM     19  C   UNL d   1      56.815  -9.815  30.067  0.00  0.00     0.000 A 
ATOM     20  C   UNL d   1      57.288  -9.817  29.390  0.00  0.00     0.000 A 
ATOM     21  C   UNL d   1      58.110  -9.814  29.462  0.00  0.00     0.000 A 
ATOM     22  C   UNL d   1      58.459  -9.810  30.207  0.00  0.00     0.002 A 
ENDBRANCH   4  17
TORSDOF 3
ENDMDL
MODEL 2
REMARK VINA RESULT:      -3.9      9.417      9.834
REMARK  3 active torsions:
REMARK  status: ('A' for Active; 'I' for Inactive)
REMARK    1  A    between atoms: C_9  and  C_4 
REMARK    2  A    between atoms: C_10  and  C_7 
REMARK    3  A    between atoms: C_11  and  C_10 
ROOT
ATOM      1  C   UNL d   1      58.493   0.348  30.870  0.00  0.00     0.179 A 
ATOM      2  N   UNL d   1      57.983  -0.059  30.368  0.00  0.00    -0.282 N 
ATOM      3  N   UNL d   1      59.264   0.273  30.572  0.00  0.00    -0.221 NA
ATOM      4  C   UNL d   1      59.229  -0.179  29.887  0.00  0.00     0.101 A 
ATOM      5  S   UNL d   1      58.045   0.675  31.478  0.00  0.00    -0.048 SA
ATOM      6  C   UNL d   1      58.439  -0.386  29.758  0.00  0.00     0.101 A 
ATOM      7  C   UNL d   1      57.260   0.470  31.352  0.00  0.00     0.050 A 
ATOM      8  C   UNL d   1      57.223   0.013  30.660  0.00  0.00     0.089 A 
ENDROOT
BRANCH   7   9
ATOM      9  C   UNL d   1      56.623   0.682  31.828  0.00  0.00     0.008 C 
BRANCH   9  10
ATOM     10  C   UNL d   1      56.347   0.157  32.400  0.00  0.00     0.001 A 
ATOM     11  C   UNL d   1      56.256   0.410  33.183  0.00  0.00     0.002 A 
ATOM     12  C   UNL d   1      55.980  -0.115  33.754  0.00  0.00     0.030 A 
ATOM     13  C   UNL d   1      55.794  -0.892  33.547  0.00  0.00     0.140 A 
ATOM     14  C   UNL d   1      55.884  -1.144  32.769  0.00  0.00     0.030 A 
ATOM     15  F   UNL d   1      55.516  -1.417  34.127  0.00  0.00    -0.204 F 
ATOM     16  C   UNL d   1      56.161  -0.619  32.193  0.00  0.00     0.002 A 
ENDBRANCH   9  10
ENDBRANCH   7   9
BRANCH   4  17
ATOM     17  C   UNL d   1      59.862  -0.391  29.412  0.00  0.00     0.019 A 
ATOM     18  C   UNL d   1      60.404   0.175  29.167  0.00  0.00     0.002 A 
ATOM     19  C   UNL d   1      61.038  -0.041  28.689  0.00  0.00     0.000 A 
ATOM     20  C   UNL d   1      61.131  -0.828  28.455  0.00  0.00     0.000 A 
ATOM     21  C   UNL d   1      60.587  -1.397  28.701  0.00  0.00     0.000 A 
ATOM     22  C   UNL d   1      59.952  -1.182  29.179  0.00  0.00     0.002 A 
ENDBRANCH   4  17
TORSDOF 3
ENDMDL
MODEL 3
REMARK VINA RESULT:      -3.9      8.920      9.326
REMARK  3 active torsions:
REMARK  status: ('A' for Active; 'I' for Inactive)
REMARK    1  A    between atoms: C_9  and  C_4 
REMARK    2  A    between atoms: C_10  and  C_7 
REMARK    3  A    between atoms: C_11  and  C_10 
ROOT
ATOM      1  C   UNL d   1      58.059  -0.133  30.470  0.00  0.00     0.179 A 
ATOM      2  N   UNL d   1      57.638  -0.810  30.676  0.00  0.00    -0.282 N 
ATOM      3  N   UNL d   1      58.676  -0.355  29.962  0.00  0.00    -0.221 NA
ATOM      4  C   UNL d   1      58.636  -1.168  29.854  0.00  0.00     0.101 A 
ATOM      5  S   UNL d   1      57.707   0.509  30.848  0.00  0.00    -0.048 SA
ATOM      6  C   UNL d   1      57.996  -1.453  30.293  0.00  0.00     0.101 A 
ATOM      7  C   UNL d   1      57.071   0.227  31.285  0.00  0.00     0.050 A 
ATOM      8  C   UNL d   1      57.030  -0.594  31.176  0.00  0.00     0.089 A 
ENDROOT
BRANCH   7   9
ATOM      9  C   UNL d   1      56.564   0.682  31.748  0.00  0.00     0.008 C 
BRANCH   9  10
ATOM     10  C   UNL d   1      56.383   0.440  32.514  0.00  0.00     0.001 A 
ATOM     11  C   UNL d   1      55.691   0.010  32.658  0.00  0.00     0.002 A 
ATOM     12  C   UNL d   1      55.509  -0.232  33.424  0.00  0.00     0.030 A 
ATOM     13  C   UNL d   1      56.016  -0.046  34.048  0.00  0.00     0.140 A 
ATOM     14  C   UNL d   1      56.705   0.381  33.906  0.00  0.00     0.030 A 
ATOM     15  F   UNL d   1      55.829  -0.292  34.818  0.00  0.00    -0.204 F 
ATOM     16  C   UNL d   1      56.890   0.626  33.138  0.00  0.00     0.002 A 
ENDBRANCH   9  10
ENDBRANCH   7   9
BRANCH   4  17
ATOM     17  C   UNL d   1      59.139  -1.622  29.393  0.00  0.00     0.019 A 
ATOM     18  C   UNL d   1      59.913  -1.381  29.264  0.00  0.00     0.002 A 
ATOM     19  C   UNL d   1      60.416  -1.840  28.801  0.00  0.00     0.000 A 
ATOM     20  C   UNL d   1      60.143  -2.543  28.465  0.00  0.00     0.000 A 
ATOM     21  C   UNL d   1      59.365  -2.786  28.595  0.00  0.00     0.000 A 
ATOM     22  C   UNL d   1      58.861  -2.328  29.058  0.00  0.00     0.002 A 
ENDBRANCH   4  17
TORSDOF 3
ENDMDL
MODEL 4
REMARK VINA RESULT:      -1.8      8.385      8.779
REMARK  3 active torsions:
REMARK  status: ('A' for Active; 'I' for Inactive)
REMARK    1  A    between atoms: C_9  and  C_4 
REMARK    2  A    between atoms: C_10  and  C_7 
REMARK    3  A    between atoms: C_11  and  C_10 
ROOT
ATOM      1  C   UNL d   1      58.934  -1.753  29.708  0.00  0.00     0.179 A 
ATOM      2  N   UNL d   1      59.521  -1.380  29.268  0.00  0.00    -0.282 N 
ATOM      3  N   UNL d   1      59.045  -2.573  29.646  0.00  0.00    -0.221 NA
ATOM      4  C   UNL d   1      59.699  -2.706  29.169  0.00  0.00     0.101 A 
ATOM      5  S   UNL d   1      58.458  -1.170  30.043  0.00  0.00    -0.048 SA
ATOM      6  C   UNL d   1      59.996  -1.971  28.933  0.00  0.00     0.101 A 
ATOM      7  C   UNL d   1      58.752  -0.439  29.810  0.00  0.00     0.050 A 
ATOM      8  C   UNL d   1      59.414  -0.572  29.327  0.00  0.00     0.089 A 
ENDROOT
BRANCH   7   9
ATOM      9  C   UNL d   1      58.443   0.295  30.019  0.00  0.00     0.008 C 
BRANCH   9  10
ATOM     10  C   UNL d   1      58.056   0.386  30.740  0.00  0.00     0.001 A 
ATOM     11  C   UNL d   1      57.237   0.279  30.786  0.00  0.00     0.002 A 
ATOM     12  C   UNL d   1      56.851   0.370  31.507  0.00  0.00     0.030 A 
ATOM     13  C   UNL d   1      57.279   0.567  32.184  0.00  0.00     0.140 A 
ATOM     14  C   UNL d   1      58.093   0.674  32.140  0.00  0.00     0.030 A 
ATOM     15  F   UNL d   1      56.884   0.658  32.909  0.00  0.00    -0.204 F 
ATOM     16  C   UNL d   1      58.484   0.584  31.417  0.00  0.00     0.002 A 
ENDBRANCH   9  10
ENDBRANCH   7   9
BRANCH   4  17
ATOM     17  C   UNL d   1      60.008  -3.435  28.960  0.00  0.00     0.019 A 
ATOM     18  C   UNL d   1      59.517  -4.023  28.665  0.00  0.00     0.002 A 
ATOM     19  C   UNL d   1      59.831  -4.755  28.455  0.00  0.00     0.000 A 
ATOM     20  C   UNL d   1      60.640  -4.899  28.541  0.00  0.00     0.000 A 
ATOM     21  C   UNL d   1      61.133  -4.308  28.838  0.00  0.00     0.000 A 
ATOM     22  C   UNL d   1      60.821  -3.576  29.047  0.00  0.00     0.002 A 
ENDBRANCH   4  17
TORSDOF 3
ENDMDL
