MODEL 1
REMARK VINA RESULT:      10.6      0.000      0.000
REMARK  3 active torsions:
REMARK  status: ('A' for Active; 'I' for Inactive)
REMARK    1  A    between atoms: C_2  and  C_1 
REMARK    2  A    between atoms: C_5  and  C_2 
REMARK    3  A    between atoms: C_4  and  C_3 
ROOT
ATOM      1  C   UNL d   1      45.329 -13.407  44.347  0.00  0.00     0.045 A 
ATOM      2  C   UNL d   1      45.226 -12.795  43.803  0.00  0.00     0.068 A 
ATOM      3  C   UNL d   1      45.918 -13.362  44.920  0.00  0.00     0.003 A 
ATOM      4  C   UNL d   1      45.719 -12.131  43.835  0.00  0.00     0.006 A 
ATOM      5  C   UNL d   1      46.409 -12.704  44.954  0.00  0.00     0.000 A 
ATOM      6  C   UNL d   1      46.309 -12.082  44.405  0.00  0.00     0.000 A 
ENDROOT
BRANCH   1   7
ATOM      7  C   UNL d   1      44.835 -14.075  44.317  0.00  0.00     0.196 C 
ATOM      8  O   UNL d   1      44.031 -13.980  44.172  0.00  0.00    -0.287 OA
BRANCH   7   9
ATOM      9  C   UNL d   1      45.150 -14.830  44.431  0.00  0.00     0.039 A 
ATOM     10  C   UNL d   1      45.902 -15.018  44.133  0.00  0.00     0.005 A 
ATOM     11  C   UNL d   1      46.213 -15.777  44.251  0.00  0.00     0.030 A 
ATOM     12  C   UNL d   1      45.779 -16.341  44.660  0.00  0.00     0.140 A 
ATOM     13  C   UNL d   1      45.035 -16.155  44.955  0.00  0.00     0.030 A 
ATOM     14  F   UNL d   1      46.102 -17.099  44.772  0.00  0.00    -0.204 F 
ATOM     15  C   UNL d   1      44.716 -15.402  44.844  0.00  0.00     0.005 A 
ENDBRANCH   7   9
ENDBRANCH   1   7
BRANCH   2  16
ATOM     16  C   UNL d   1      44.634 -12.851  43.234  0.00  0.00     0.211 C 
ATOM     17  O   UNL d   1      44.831 -12.878  42.431  0.00  0.00    -0.644 OA
ATOM     18  O   UNL d   1      43.849 -12.880  43.476  0.00  0.00    -0.644 OA
ENDBRANCH   2  16
TORSDOF 3
ENDMDL
