MODEL 1
REMARK VINA RESULT:      36.6      0.000      0.000
REMARK  1 active torsions:
REMARK  status: ('A' for Active; 'I' for Inactive)
REMARK    1  A    between atoms: C_13  and  N_5 
ROOT
ATOM      1  C   UNL d   1      13.531  13.111  -3.247  0.00  0.00     0.170 A 
ATOM      2  C   UNL d   1      13.158  13.258  -3.937  0.00  0.00     0.093 A 
ATOM      3  C   UNL d   1      13.152  13.993  -4.249  0.00  0.00     0.172 A 
ATOM      4  N   UNL d   1      13.526  14.584  -3.864  0.00  0.00    -0.190 N 
ATOM      5  N   UNL d   1      13.534  12.368  -2.935  0.00  0.00    -0.212 N 
ATOM      6  N   UNL d   1      13.906  13.708  -2.862  0.00  0.00    -0.205 NA
ATOM      7  N   UNL d   1      12.775  14.135  -4.942  0.00  0.00    -0.206 NA
ATOM      8  N   UNL d   1      13.154  11.779  -3.331  0.00  0.00    -0.162 NA
ATOM      9  N   UNL d   1      13.523  15.319  -4.173  0.00  0.00    -0.143 NA
ATOM     10  C   UNL d   1      13.900  14.438  -3.174  0.00  0.00     0.203 A 
ATOM     11  C   UNL d   1      12.784  11.928  -4.017  0.00  0.00     0.127 A 
ATOM     12  C   UNL d   1      13.150  15.460  -4.859  0.00  0.00     0.184 A 
ATOM     13  C   UNL d   1      13.026  16.156  -5.355  0.00  0.00     0.044 C 
ENDROOT
BRANCH   5  14
ATOM     14  C   UNL d   1      13.919  12.223  -2.227  0.00  0.00     0.085 A 
ATOM     15  C   UNL d   1      13.488  12.083  -1.554  0.00  0.00     0.019 A 
ATOM     16  C   UNL d   1      13.879  11.935  -0.835  0.00  0.00     0.002 A 
ATOM     17  C   UNL d   1      13.433  11.785  -0.112  0.00  0.00     0.000 C 
ATOM     18  C   UNL d   1      14.710  11.931  -0.806  0.00  0.00     0.000 A 
ATOM     19  C   UNL d   1      15.136  12.076  -1.504  0.00  0.00     0.002 A 
ATOM     20  C   UNL d   1      15.123  11.780  -0.073  0.00  0.00     0.000 C 
ATOM     21  C   UNL d   1      14.744  12.220  -2.209  0.00  0.00     0.019 A 
ENDBRANCH   5  14
TORSDOF 1
ENDMDL
