MODEL 1
REMARK VINA RESULT:      34.1      0.000      0.000
REMARK  2 active torsions:
REMARK  status: ('A' for Active; 'I' for Inactive)
REMARK    1  A    between atoms: N_4  and  C_2 
REMARK       I    between atoms: C_3  and  N_4 
REMARK    2  A    between atoms: C_5  and  C_3 
ROOT
ATOM      1  C   UNL d   1     -51.064  23.838  34.107  0.00  0.00     0.282 C 
ATOM      2  N   UNL d   1     -51.575  23.192  34.174  0.00  0.00    -0.182 NA
ATOM      3  O   UNL d   1     -50.255  23.730  34.238  0.00  0.00    -0.265 OA
ENDROOT
BRANCH   1   4
ATOM      4  C   UNL d   1     -51.372  24.581  33.910  0.00  0.00     0.069 A 
ATOM      5  C   UNL d   1     -50.891  25.115  33.517  0.00  0.00     0.063 A 
ATOM      6  C   UNL d   1     -51.194  25.858  33.317  0.00  0.00     0.023 A 
ATOM      7 CL   UNL d   1     -50.120  24.927  33.318  0.00  0.00    -0.082 Cl
ATOM      8  C   UNL d   1     -51.972  26.052  33.516  0.00  0.00     0.059 A 
ATOM      9  C   UNL d   1     -52.443  25.509  33.909  0.00  0.00     0.012 A 
ATOM     10 CL   UNL d   1     -52.274  26.807  33.311  0.00  0.00    -0.082 Cl
ATOM     11  C   UNL d   1     -52.133  24.774  34.102  0.00  0.00     0.006 A 
ENDBRANCH   1   4
BRANCH   2  12
ATOM     12  C   UNL d   1     -52.381  23.291  34.046  0.00  0.00     0.204 A 
ATOM     13  N   UNL d   1     -52.971  23.251  34.625  0.00  0.00    -0.203 NA
ATOM     14  C   UNL d   1     -53.708  23.384  34.257  0.00  0.00     0.174 A 
ATOM     15  S   UNL d   1     -53.553  23.506  33.450  0.00  0.00    -0.018 SA
ATOM     16  S   UNL d   1     -54.445  23.393  34.627  0.00  0.00    -0.050 SA
ATOM     17  S   UNL d   1     -52.711  23.448  33.309  0.00  0.00    -0.010 SA
ENDBRANCH   2  12
TORSDOF 2
ENDMDL
