MODEL 1
REMARK VINA RESULT:     111.3      0.000      0.000
REMARK  3 active torsions:
REMARK  status: ('A' for Active; 'I' for Inactive)
REMARK    1  A    between atoms: N_9  and  C_7 
REMARK       I    between atoms: C_10  and  N_9 
REMARK    2  A    between atoms: C_13  and  C_10 
REMARK    3  A    between atoms: O_23  and  C_18 
ROOT
ATOM      1  C   UNL d   1      60.182  48.791  51.691  0.00  0.00     0.081 A 
ATOM      2  C   UNL d   1      59.861  49.398  52.138  0.00  0.00     0.301 A 
ATOM      3  C   UNL d   1      59.784  48.480  51.042  0.00  0.00     0.090 A 
ATOM      4  O   UNL d   1      59.117  49.706  51.929  0.00  0.00    -0.273 OA
ATOM      5  N   UNL d   1      60.118  47.867  50.598  0.00  0.00    -0.226 NA
ATOM      6  C   UNL d   1      59.046  48.788  50.838  0.00  0.00     0.041 A 
ATOM      7  C   UNL d   1      60.862  47.565  50.814  0.00  0.00     0.166 A 
ATOM      8  C   UNL d   1      60.925  48.485  51.901  0.00  0.00     0.010 A 
ATOM      9  C   UNL d   1      58.709  49.402  51.280  0.00  0.00     0.105 A 
ATOM     10  C   UNL d   1      61.265  47.872  51.463  0.00  0.00     0.039 A 
ATOM     11  O   UNL d   1      60.266  49.708  52.792  0.00  0.00    -0.259 OA
ATOM     12  C   UNL d   1      58.640  48.481  50.186  0.00  0.00     0.004 A 
ATOM     13  C   UNL d   1      61.321  48.799  52.553  0.00  0.00     0.000 C 
ATOM     14  C   UNL d   1      57.979  49.707  51.079  0.00  0.00     0.025 A 
ATOM     15  C   UNL d   1      57.904  48.792  49.987  0.00  0.00     0.000 A 
ATOM     16  C   UNL d   1      57.573  49.406  50.434  0.00  0.00     0.002 A 
ENDROOT
BRANCH   7  17
ATOM     17  N   UNL d   1      61.203  46.945  50.367  0.00  0.00    -0.189 NA
ATOM     18  C   UNL d   1      61.028  46.163  50.556  0.00  0.00     0.281 C 
ATOM     19  O   UNL d   1      60.515  45.992  51.187  0.00  0.00    -0.265 OA
BRANCH  18  20
ATOM     20  C   UNL d   1      61.357  45.557  50.123  0.00  0.00     0.058 A 
ATOM     21  C   UNL d   1      61.614  45.690  49.341  0.00  0.00     0.007 A 
ATOM     22  C   UNL d   1      61.949  45.075  48.901  0.00  0.00     0.024 A 
ATOM     23  C   UNL d   1      62.018  44.330  49.262  0.00  0.00     0.094 A 
ATOM     24  C   UNL d   1      61.766  44.198  50.031  0.00  0.00     0.024 A 
ATOM     25  C   UNL d   1      61.436  44.815  50.456  0.00  0.00     0.007 A 
BRANCH  23  26
ATOM     26  O   UNL d   1      62.355  43.700  48.828  0.00  0.00    -0.328 OA
ATOM     27  C   UNL d   1      62.255  42.914  49.063  0.00  0.00     0.181 C 
ENDBRANCH  23  26
ENDBRANCH  18  20
ENDBRANCH   7  17
TORSDOF 3
ENDMDL
