MODEL 1
REMARK VINA RESULT:      18.6      0.000      0.000
REMARK  4 active torsions:
REMARK  status: ('A' for Active; 'I' for Inactive)
REMARK    1  A    between atoms: N_3  and  C_1 
REMARK       I    between atoms: C_7  and  N_3 
REMARK    2  A    between atoms: S_10  and  C_5 
REMARK    3  A    between atoms: C_9  and  C_7 
REMARK    4  A    between atoms: C_13  and  S_10 
ROOT
ATOM      1  N   UNL d   1      58.925  49.603  50.060  0.00  0.00    -0.181 NA
ATOM      2  C   UNL d   1      58.231  49.640  50.511  0.00  0.00     0.281 C 
ATOM      3  O   UNL d   1      58.267  49.707  51.343  0.00  0.00    -0.265 OA
ENDROOT
BRANCH   1   4
ATOM      4  C   UNL d   1      59.633  49.632  50.432  0.00  0.00     0.219 A 
ATOM      5  S   UNL d   1      59.845  49.631  51.232  0.00  0.00    -0.019 SA
ATOM      6  C   UNL d   1      60.669  49.671  51.278  0.00  0.00     0.165 A 
ATOM      7  N   UNL d   1      60.961  49.696  50.535  0.00  0.00    -0.133 NA
ATOM      8  N   UNL d   1      60.342  49.672  50.035  0.00  0.00    -0.120 NA
BRANCH   6   9
ATOM      9  S   UNL d   1      61.145  49.684  51.975  0.00  0.00    -0.059 SA
BRANCH   9  10
ATOM     10  C   UNL d   1      60.876  49.379  52.655  0.00  0.00     0.037 C 
ATOM     11  C   UNL d   1      61.129  49.679  53.372  0.00  0.00     0.008 C 
ENDBRANCH   9  10
ENDBRANCH   6   9
ENDBRANCH   1   4
BRANCH   2  12
ATOM     12  C   UNL d   1      57.483  49.608  50.103  0.00  0.00     0.058 A 
ATOM     13  C   UNL d   1      56.764  49.603  50.504  0.00  0.00     0.005 A 
ATOM     14  C   UNL d   1      56.046  49.571  50.067  0.00  0.00     0.000 A 
ATOM     15  C   UNL d   1      56.046  49.544  49.247  0.00  0.00     0.000 A 
ATOM     16  C   UNL d   1      56.757  49.548  48.839  0.00  0.00     0.000 A 
ATOM     17  C   UNL d   1      57.485  49.580  49.270  0.00  0.00     0.005 A 
ENDBRANCH   2  12
TORSDOF 4
ENDMDL
MODEL 2
REMARK VINA RESULT:      19.1      1.541      4.260
REMARK  4 active torsions:
REMARK  status: ('A' for Active; 'I' for Inactive)
REMARK    1  A    between atoms: N_3  and  C_1 
REMARK       I    between atoms: C_7  and  N_3 
REMARK    2  A    between atoms: S_10  and  C_5 
REMARK    3  A    between atoms: C_9  and  C_7 
REMARK    4  A    between atoms: C_13  and  S_10 
ROOT
ATOM      1  N   UNL d   1      58.795  49.673  50.562  0.00  0.00    -0.181 NA
ATOM      2  C   UNL d   1      59.100  49.686  51.333  0.00  0.00     0.281 C 
ATOM      3  O   UNL d   1      58.588  49.707  51.992  0.00  0.00    -0.265 OA
ENDROOT
BRANCH   1   4
ATOM      4  C   UNL d   1      58.002  49.682  50.458  0.00  0.00     0.219 A 
ATOM      5  S   UNL d   1      57.526  49.674  49.781  0.00  0.00    -0.019 SA
ATOM      6  C   UNL d   1      56.736  49.690  50.023  0.00  0.00     0.165 A 
ATOM      7  N   UNL d   1      56.719  49.707  50.821  0.00  0.00    -0.133 NA
ATOM      8  N   UNL d   1      57.473  49.702  51.076  0.00  0.00    -0.120 NA
BRANCH   6   9
ATOM      9  S   UNL d   1      56.049  49.690  49.534  0.00  0.00    -0.059 SA
BRANCH   9  10
ATOM     10  C   UNL d   1      56.039  49.293  48.849  0.00  0.00     0.037 C 
ATOM     11  C   UNL d   1      56.045  48.477  48.842  0.00  0.00     0.008 C 
ENDBRANCH   9  10
ENDBRANCH   6   9
ENDBRANCH   1   4
BRANCH   2  12
ATOM     12  C   UNL d   1      59.947  49.676  51.431  0.00  0.00     0.058 A 
ATOM     13  C   UNL d   1      60.463  49.667  50.790  0.00  0.00     0.005 A 
ATOM     14  C   UNL d   1      61.293  49.658  50.925  0.00  0.00     0.000 A 
ATOM     15  C   UNL d   1      61.601  49.657  51.686  0.00  0.00     0.000 A 
ATOM     16  C   UNL d   1      61.095  49.666  52.331  0.00  0.00     0.000 A 
ATOM     17  C   UNL d   1      60.258  49.676  52.204  0.00  0.00     0.005 A 
ENDBRANCH   2  12
TORSDOF 4
ENDMDL
