MODEL 1
REMARK VINA RESULT:      -7.1      0.000      0.000
REMARK  8 active torsions:
REMARK  status: ('A' for Active; 'I' for Inactive)
REMARK    1  A    between atoms: N_5  and  C_1 
REMARK    2  A    between atoms: C_2  and  N_5 
REMARK    3  A    between atoms: N_3  and  C_2 
REMARK       I    between atoms: C_6  and  N_3 
REMARK    4  A    between atoms: C_13  and  C_6 
REMARK    5  A    between atoms: C_9  and  C_7 
REMARK    6  A    between atoms: C_11  and  C_9 
REMARK    7  A    between atoms: O_21  and  C_11 
REMARK    8  A    between atoms: C_23  and  O_21 
ROOT
ATOM      1  C   UNL d   1      52.584  33.744  53.492  0.00  0.00     0.225 C 
ATOM      2  S   UNL d   1      52.603  34.020  54.257  0.00  0.00    -0.037 SA
ENDROOT
BRANCH   1   3
ATOM      3  N   UNL d   1      53.277  33.464  53.143  0.00  0.00    -0.192 NA
BRANCH   3   4
ATOM      4  C   UNL d   1      53.574  32.711  53.355  0.00  0.00     0.196 A 
ATOM      5  N   UNL d   1      53.370  32.000  53.031  0.00  0.00    -0.220 NA
ATOM      6  C   UNL d   1      53.796  31.433  53.410  0.00  0.00     0.095 A 
ATOM      7  C   UNL d   1      54.268  31.807  53.974  0.00  0.00     0.058 A 
ATOM      8  S   UNL d   1      54.122  32.593  53.931  0.00  0.00    -0.046 SA
BRANCH   6   9
ATOM      9  C   UNL d   1      53.750  30.613  53.241  0.00  0.00     0.088 C 
BRANCH   9  10
ATOM     10  C   UNL d   1      53.201  30.134  53.593  0.00  0.00     0.302 C 
ATOM     11  O   UNL d   1      52.440  30.055  53.301  0.00  0.00    -0.259 OA
BRANCH  10  12
ATOM     12  O   UNL d   1      53.409  29.700  54.281  0.00  0.00    -0.271 OA
BRANCH  12  13
ATOM     13  C   UNL d   1      53.168  28.910  54.341  0.00  0.00     0.126 C 
ATOM     14  C   UNL d   1      53.394  28.499  55.016  0.00  0.00     0.029 C 
ENDBRANCH  12  13
ENDBRANCH  10  12
ENDBRANCH   9  10
ENDBRANCH   6   9
ENDBRANCH   3   4
ENDBRANCH   1   3
BRANCH   1  15
ATOM     15  N   UNL d   1      51.897  33.740  53.066  0.00  0.00    -0.179 NA
ATOM     16  C   UNL d   1      51.464  34.445  52.986  0.00  0.00     0.281 C 
ATOM     17  O   UNL d   1      51.733  35.134  53.336  0.00  0.00    -0.265 OA
BRANCH  16  18
ATOM     18  C   UNL d   1      50.756  34.449  52.548  0.00  0.00     0.058 A 
ATOM     19  C   UNL d   1      50.757  34.249  51.741  0.00  0.00     0.007 A 
ATOM     20  C   UNL d   1      50.040  34.260  51.326  0.00  0.00     0.030 A 
ATOM     21  C   UNL d   1      49.331  34.467  51.711  0.00  0.00     0.140 A 
ATOM     22  C   UNL d   1      49.344  34.661  52.503  0.00  0.00     0.030 A 
ATOM     23  F   UNL d   1      48.632  34.477  51.306  0.00  0.00    -0.204 F 
ATOM     24  C   UNL d   1      50.046  34.655  52.927  0.00  0.00     0.007 A 
ENDBRANCH  16  18
ENDBRANCH   1  15
TORSDOF 8
ENDMDL
MODEL 2
REMARK VINA RESULT:      -7.0      2.479      5.368
REMARK  8 active torsions:
REMARK  status: ('A' for Active; 'I' for Inactive)
REMARK    1  A    between atoms: N_5  and  C_1 
REMARK    2  A    between atoms: C_2  and  N_5 
REMARK    3  A    between atoms: N_3  and  C_2 
REMARK       I    between atoms: C_6  and  N_3 
REMARK    4  A    between atoms: C_13  and  C_6 
REMARK    5  A    between atoms: C_9  and  C_7 
REMARK    6  A    between atoms: C_11  and  C_9 
REMARK    7  A    between atoms: O_21  and  C_11 
REMARK    8  A    between atoms: C_23  and  O_21 
ROOT
ATOM      1  C   UNL d   1      52.467  32.413  52.994  0.00  0.00     0.225 C 
ATOM      2  S   UNL d   1      52.259  31.640  53.137  0.00  0.00    -0.037 SA
ENDROOT
BRANCH   1   3
ATOM      3  N   UNL d   1      52.160  32.803  52.335  0.00  0.00    -0.192 NA
BRANCH   3   4
ATOM      4  C   UNL d   1      51.627  33.440  52.440  0.00  0.00     0.196 A 
ATOM      5  N   UNL d   1      50.926  33.424  52.839  0.00  0.00    -0.220 NA
ATOM      6  C   UNL d   1      50.607  34.161  52.793  0.00  0.00     0.095 A 
ATOM      7  C   UNL d   1      51.125  34.633  52.357  0.00  0.00     0.058 A 
ATOM      8  S   UNL d   1      51.749  34.177  52.146  0.00  0.00    -0.046 SA
BRANCH   6   9
ATOM      9  C   UNL d   1      49.875  34.385  53.136  0.00  0.00     0.088 C 
BRANCH   9  10
ATOM     10  C   UNL d   1      49.362  34.884  52.760  0.00  0.00     0.302 C 
ATOM     11  O   UNL d   1      49.087  34.738  52.003  0.00  0.00    -0.259 OA
BRANCH  10  12
ATOM     12  O   UNL d   1      49.096  35.578  53.151  0.00  0.00    -0.271 OA
BRANCH  12  13
ATOM     13  C   UNL d   1      48.286  35.750  53.149  0.00  0.00     0.126 C 
ATOM     14  C   UNL d   1      48.042  36.410  53.575  0.00  0.00     0.029 C 
ENDBRANCH  12  13
ENDBRANCH  10  12
ENDBRANCH   9  10
ENDBRANCH   6   9
ENDBRANCH   3   4
ENDBRANCH   1   3
BRANCH   1  15
ATOM     15  N   UNL d   1      52.971  32.809  53.487  0.00  0.00    -0.179 NA
ATOM     16  C   UNL d   1      53.634  32.412  53.794  0.00  0.00     0.281 C 
ATOM     17  O   UNL d   1      53.772  31.630  53.597  0.00  0.00    -0.265 OA
BRANCH  16  18
ATOM     18  C   UNL d   1      54.158  32.812  54.302  0.00  0.00     0.058 A 
ATOM     19  C   UNL d   1      54.015  32.839  55.121  0.00  0.00     0.007 A 
ATOM     20  C   UNL d   1      54.550  33.244  55.607  0.00  0.00     0.030 A 
ATOM     21  C   UNL d   1      55.220  33.616  55.282  0.00  0.00     0.140 A 
ATOM     22  C   UNL d   1      55.348  33.582  54.477  0.00  0.00     0.030 A 
ATOM     23  F   UNL d   1      55.741  34.010  55.755  0.00  0.00    -0.204 F 
ATOM     24  C   UNL d   1      54.828  33.186  53.982  0.00  0.00     0.007 A 
ENDBRANCH  16  18
ENDBRANCH   1  15
TORSDOF 8
ENDMDL
MODEL 3
REMARK VINA RESULT:      -7.0      1.973      5.106
REMARK  8 active torsions:
REMARK  status: ('A' for Active; 'I' for Inactive)
REMARK    1  A    between atoms: N_5  and  C_1 
REMARK    2  A    between atoms: C_2  and  N_5 
REMARK    3  A    between atoms: N_3  and  C_2 
REMARK       I    between atoms: C_6  and  N_3 
REMARK    4  A    between atoms: C_13  and  C_6 
REMARK    5  A    between atoms: C_9  and  C_7 
REMARK    6  A    between atoms: C_11  and  C_9 
REMARK    7  A    between atoms: O_21  and  C_11 
REMARK    8  A    between atoms: C_23  and  O_21 
ROOT
ATOM      1  C   UNL d   1      53.240  33.113  53.647  0.00  0.00     0.225 C 
ATOM      2  S   UNL d   1      53.668  33.441  54.256  0.00  0.00    -0.037 SA
ENDROOT
BRANCH   1   3
ATOM      3  N   UNL d   1      53.004  33.586  53.014  0.00  0.00    -0.192 NA
BRANCH   3   4
ATOM      4  C   UNL d   1      52.263  33.974  53.038  0.00  0.00     0.196 A 
ATOM      5  N   UNL d   1      51.553  33.678  52.792  0.00  0.00    -0.220 NA
ATOM      6  C   UNL d   1      50.999  34.246  52.923  0.00  0.00     0.095 A 
ATOM      7  C   UNL d   1      51.379  34.898  53.255  0.00  0.00     0.058 A 
ATOM      8  S   UNL d   1      52.157  34.718  53.321  0.00  0.00    -0.046 SA
BRANCH   6   9
ATOM      9  C   UNL d   1      50.183  34.164  52.744  0.00  0.00     0.088 C 
BRANCH   9  10
ATOM     10  C   UNL d   1      49.869  34.437  52.050  0.00  0.00     0.302 C 
ATOM     11  O   UNL d   1      50.204  34.269  51.323  0.00  0.00    -0.259 OA
BRANCH  10  12
ATOM     12  O   UNL d   1      49.174  34.908  52.066  0.00  0.00    -0.271 OA
BRANCH  12  13
ATOM     13  C   UNL d   1      48.612  34.808  51.467  0.00  0.00     0.126 C 
ATOM     14  C   UNL d   1      47.938  35.279  51.502  0.00  0.00     0.029 C 
ENDBRANCH  12  13
ENDBRANCH  10  12
ENDBRANCH   9  10
ENDBRANCH   6   9
ENDBRANCH   3   4
ENDBRANCH   1   3
BRANCH   1  15
ATOM     15  N   UNL d   1      53.042  32.329  53.650  0.00  0.00    -0.179 NA
ATOM     16  C   UNL d   1      53.644  31.757  53.627  0.00  0.00     0.281 C 
ATOM     17  O   UNL d   1      54.429  31.988  53.602  0.00  0.00    -0.265 OA
BRANCH  16  18
ATOM     18  C   UNL d   1      53.448  30.949  53.630  0.00  0.00     0.058 A 
ATOM     19  C   UNL d   1      53.128  30.589  52.952  0.00  0.00     0.007 A 
ATOM     20  C   UNL d   1      52.941  29.782  52.978  0.00  0.00     0.030 A 
ATOM     21  C   UNL d   1      53.070  29.340  53.671  0.00  0.00     0.140 A 
ATOM     22  C   UNL d   1      53.384  29.705  54.329  0.00  0.00     0.030 A 
ATOM     23  F   UNL d   1      52.887  28.554  53.697  0.00  0.00    -0.204 F 
ATOM     24  C   UNL d   1      53.575  30.502  54.319  0.00  0.00     0.007 A 
ENDBRANCH  16  18
ENDBRANCH   1  15
TORSDOF 8
ENDMDL
MODEL 4
REMARK VINA RESULT:      -6.7      2.720      5.807
REMARK  8 active torsions:
REMARK  status: ('A' for Active; 'I' for Inactive)
REMARK    1  A    between atoms: N_5  and  C_1 
REMARK    2  A    between atoms: C_2  and  N_5 
REMARK    3  A    between atoms: N_3  and  C_2 
REMARK       I    between atoms: C_6  and  N_3 
REMARK    4  A    between atoms: C_13  and  C_6 
REMARK    5  A    between atoms: C_9  and  C_7 
REMARK    6  A    between atoms: C_11  and  C_9 
REMARK    7  A    between atoms: O_21  and  C_11 
REMARK    8  A    between atoms: C_23  and  O_21 
ROOT
ATOM      1  C   UNL d   1      51.466  33.939  52.802  0.00  0.00     0.225 C 
ATOM      2  S   UNL d   1      51.681  34.196  52.061  0.00  0.00    -0.037 SA
ENDROOT
BRANCH   1   3
ATOM      3  N   UNL d   1      50.681  33.729  52.948  0.00  0.00    -0.192 NA
BRANCH   3   4
ATOM      4  C   UNL d   1      50.070  34.284  52.812  0.00  0.00     0.196 A 
ATOM      5  N   UNL d   1      49.800  34.844  53.327  0.00  0.00    -0.220 NA
ATOM      6  C   UNL d   1      49.211  35.247  52.956  0.00  0.00     0.095 A 
ATOM      7  C   UNL d   1      49.123  34.927  52.201  0.00  0.00     0.058 A 
ATOM      8  S   UNL d   1      49.657  34.335  52.125  0.00  0.00    -0.046 SA
BRANCH   6   9
ATOM      9  C   UNL d   1      48.779  35.879  53.299  0.00  0.00     0.088 C 
BRANCH   9  10
ATOM     10  C   UNL d   1      47.970  35.899  53.289  0.00  0.00     0.302 C 
ATOM     11  O   UNL d   1      47.543  35.969  52.595  0.00  0.00    -0.259 OA
BRANCH  10  12
ATOM     12  O   UNL d   1      47.546  35.844  54.012  0.00  0.00    -0.271 OA
BRANCH  12  13
ATOM     13  C   UNL d   1      46.876  36.320  54.116  0.00  0.00     0.126 C 
ATOM     14  C   UNL d   1      46.501  36.285  54.847  0.00  0.00     0.029 C 
ENDBRANCH  12  13
ENDBRANCH  10  12
ENDBRANCH   9  10
ENDBRANCH   6   9
ENDBRANCH   3   4
ENDBRANCH   1   3
BRANCH   1  15
ATOM     15  N   UNL d   1      52.007  33.884  53.399  0.00  0.00    -0.179 NA
ATOM     16  C   UNL d   1      52.663  33.381  53.309  0.00  0.00     0.281 C 
ATOM     17  O   UNL d   1      52.756  32.948  52.621  0.00  0.00    -0.265 OA
BRANCH  16  18
ATOM     18  C   UNL d   1      53.224  33.319  53.920  0.00  0.00     0.058 A 
ATOM     19  C   UNL d   1      53.547  34.002  54.268  0.00  0.00     0.007 A 
ATOM     20  C   UNL d   1      54.105  33.916  54.875  0.00  0.00     0.030 A 
ATOM     21  C   UNL d   1      54.338  33.159  55.131  0.00  0.00     0.140 A 
ATOM     22  C   UNL d   1      54.014  32.498  54.780  0.00  0.00     0.030 A 
ATOM     23  F   UNL d   1      54.882  33.075  55.722  0.00  0.00    -0.204 F 
ATOM     24  C   UNL d   1      53.461  32.566  54.179  0.00  0.00     0.007 A 
ENDBRANCH  16  18
ENDBRANCH   1  15
TORSDOF 8
ENDMDL
MODEL 5
REMARK VINA RESULT:      -6.3      1.595      2.383
REMARK  8 active torsions:
REMARK  status: ('A' for Active; 'I' for Inactive)
REMARK    1  A    between atoms: N_5  and  C_1 
REMARK    2  A    between atoms: C_2  and  N_5 
REMARK    3  A    between atoms: N_3  and  C_2 
REMARK       I    between atoms: C_6  and  N_3 
REMARK    4  A    between atoms: C_13  and  C_6 
REMARK    5  A    between atoms: C_9  and  C_7 
REMARK    6  A    between atoms: C_11  and  C_9 
REMARK    7  A    between atoms: O_21  and  C_11 
REMARK    8  A    between atoms: C_23  and  O_21 
ROOT
ATOM      1  C   UNL d   1      50.758  34.183  52.838  0.00  0.00     0.225 C 
ATOM      2  S   UNL d   1      50.667  33.375  52.844  0.00  0.00    -0.037 SA
ENDROOT
BRANCH   1   3
ATOM      3  N   UNL d   1      51.503  34.508  52.695  0.00  0.00    -0.192 NA
BRANCH   3   4
ATOM      4  C   UNL d   1      52.172  34.208  53.099  0.00  0.00     0.196 A 
ATOM      5  N   UNL d   1      52.607  33.558  52.899  0.00  0.00    -0.220 NA
ATOM      6  C   UNL d   1      53.193  33.484  53.445  0.00  0.00     0.095 A 
ATOM      7  C   UNL d   1      53.111  34.101  53.986  0.00  0.00     0.058 A 
ATOM      8  S   UNL d   1      52.479  34.539  53.763  0.00  0.00    -0.046 SA
BRANCH   6   9
ATOM      9  C   UNL d   1      53.772  32.877  53.442  0.00  0.00     0.088 C 
BRANCH   9  10
ATOM     10  C   UNL d   1      53.674  32.191  53.858  0.00  0.00     0.302 C 
ATOM     11  O   UNL d   1      53.786  32.151  54.668  0.00  0.00    -0.259 OA
BRANCH  10  12
ATOM     12  O   UNL d   1      53.449  31.489  53.454  0.00  0.00    -0.271 OA
BRANCH  12  13
ATOM     13  C   UNL d   1      53.689  30.759  53.763  0.00  0.00     0.126 C 
ATOM     14  C   UNL d   1      53.368  30.084  53.420  0.00  0.00     0.029 C 
ENDBRANCH  12  13
ENDBRANCH  10  12
ENDBRANCH   9  10
ENDBRANCH   6   9
ENDBRANCH   3   4
ENDBRANCH   1   3
BRANCH   1  15
ATOM     15  N   UNL d   1      50.131  34.675  52.968  0.00  0.00    -0.179 NA
ATOM     16  C   UNL d   1      49.524  34.720  52.402  0.00  0.00     0.281 C 
ATOM     17  O   UNL d   1      49.565  34.269  51.721  0.00  0.00    -0.265 OA
BRANCH  16  18
ATOM     18  C   UNL d   1      48.875  35.225  52.529  0.00  0.00     0.058 A 
ATOM     19  C   UNL d   1      48.756  35.582  53.271  0.00  0.00     0.007 A 
ATOM     20  C   UNL d   1      48.103  36.081  53.374  0.00  0.00     0.030 A 
ATOM     21  C   UNL d   1      47.575  36.223  52.746  0.00  0.00     0.140 A 
ATOM     22  C   UNL d   1      47.703  35.867  52.023  0.00  0.00     0.030 A 
ATOM     23  F   UNL d   1      46.938  36.709  52.847  0.00  0.00    -0.204 F 
ATOM     24  C   UNL d   1      48.345  35.370  51.906  0.00  0.00     0.007 A 
ENDBRANCH  16  18
ENDBRANCH   1  15
TORSDOF 8
ENDMDL
MODEL 6
REMARK VINA RESULT:      -4.5      9.511     10.253
REMARK  8 active torsions:
REMARK  status: ('A' for Active; 'I' for Inactive)
REMARK    1  A    between atoms: N_5  and  C_1 
REMARK    2  A    between atoms: C_2  and  N_5 
REMARK    3  A    between atoms: N_3  and  C_2 
REMARK       I    between atoms: C_6  and  N_3 
REMARK    4  A    between atoms: C_13  and  C_6 
REMARK    5  A    between atoms: C_9  and  C_7 
REMARK    6  A    between atoms: C_11  and  C_9 
REMARK    7  A    between atoms: O_21  and  C_11 
REMARK    8  A    between atoms: C_23  and  O_21 
ROOT
ATOM      1  C   UNL d   1      44.993  27.304  57.639  0.00  0.00     0.225 C 
ATOM      2  S   UNL d   1      44.654  26.933  58.278  0.00  0.00    -0.037 SA
ENDROOT
BRANCH   1   3
ATOM      3  N   UNL d   1      45.428  26.862  57.094  0.00  0.00    -0.192 NA
BRANCH   3   4
ATOM      4  C   UNL d   1      45.047  26.273  56.638  0.00  0.00     0.196 A 
ATOM      5  N   UNL d   1      45.083  25.475  56.751  0.00  0.00    -0.220 NA
ATOM      6  C   UNL d   1      44.631  25.132  56.180  0.00  0.00     0.095 A 
ATOM      7  C   UNL d   1      44.316  25.734  55.713  0.00  0.00     0.058 A 
ATOM      8  S   UNL d   1      44.579  26.432  56.005  0.00  0.00    -0.046 SA
BRANCH   6   9
ATOM      9  C   UNL d   1      44.517  24.305  56.098  0.00  0.00     0.088 C 
BRANCH   9  10
ATOM     10  C   UNL d   1      44.993  23.854  55.624  0.00  0.00     0.302 C 
ATOM     11  O   UNL d   1      45.045  23.974  54.816  0.00  0.00    -0.259 OA
BRANCH  10  12
ATOM     12  O   UNL d   1      45.453  23.239  55.964  0.00  0.00    -0.271 OA
BRANCH  12  13
ATOM     13  C   UNL d   1      45.420  22.484  55.625  0.00  0.00     0.126 C 
ATOM     14  C   UNL d   1      46.012  21.953  55.832  0.00  0.00     0.029 C 
ENDBRANCH  12  13
ENDBRANCH  10  12
ENDBRANCH   9  10
ENDBRANCH   6   9
ENDBRANCH   3   4
ENDBRANCH   1   3
BRANCH   1  15
ATOM     15  N   UNL d   1      44.912  28.100  57.526  0.00  0.00    -0.179 NA
ATOM     16  C   UNL d   1      45.077  28.619  58.154  0.00  0.00     0.281 C 
ATOM     17  O   UNL d   1      45.318  28.323  58.877  0.00  0.00    -0.265 OA
BRANCH  16  18
ATOM     18  C   UNL d   1      44.996  29.440  58.045  0.00  0.00     0.058 A 
ATOM     19  C   UNL d   1      44.728  29.747  57.320  0.00  0.00     0.007 A 
ATOM     20  C   UNL d   1      44.655  30.567  57.235  0.00  0.00     0.030 A 
ATOM     21  C   UNL d   1      44.847  31.077  57.865  0.00  0.00     0.140 A 
ATOM     22  C   UNL d   1      45.109  30.764  58.571  0.00  0.00     0.030 A 
ATOM     23  F   UNL d   1      44.776  31.877  57.782  0.00  0.00    -0.204 F 
ATOM     24  C   UNL d   1      45.186  29.953  58.671  0.00  0.00     0.007 A 
ENDBRANCH  16  18
ENDBRANCH   1  15
TORSDOF 8
ENDMDL
