MODEL 1
REMARK VINA RESULT:      43.0      0.000      0.000
REMARK  5 active torsions:
REMARK  status: ('A' for Active; 'I' for Inactive)
REMARK    1  A    between atoms: C_2  and  S_1 
REMARK    2  A    between atoms: N_4  and  S_1 
REMARK    3  A    between atoms: C_10  and  N_4 
REMARK    4  A    between atoms: C_14  and  C_5 
REMARK    5  A    between atoms: C_13  and  C_10 
ROOT
ATOM      1  S   UNL d   1      59.533  49.403  50.196  0.00  0.00     0.285 S 
ATOM      2  O   UNL d   1      59.821  49.623  49.466  0.00  0.00    -0.198 OA
ATOM      3  O   UNL d   1      59.241  49.180  50.939  0.00  0.00    -0.198 OA
ENDROOT
BRANCH   1   4
ATOM      4  C   UNL d   1      60.284  49.505  50.522  0.00  0.00     0.105 A 
ATOM      5  C   UNL d   1      60.380  49.525  51.341  0.00  0.00     0.013 A 
ATOM      6  C   UNL d   1      61.130  49.626  51.667  0.00  0.00     0.001 A 
ATOM      7  C   UNL d   1      61.786  49.707  51.174  0.00  0.00     0.000 A 
ATOM      8  C   UNL d   1      61.687  49.687  50.363  0.00  0.00     0.001 A 
ATOM      9  C   UNL d   1      60.937  49.586  50.038  0.00  0.00     0.012 A 
ATOM     10  C   UNL d   1      60.842  49.566  49.219  0.00  0.00     0.001 C 
BRANCH   6  11
ATOM     11  C   UNL d   1      61.223  49.645  52.490  0.00  0.00     0.000 C 
ATOM     12  C   UNL d   1      60.560  49.705  52.978  0.00  0.00     0.000 C 
ATOM     13  C   UNL d   1      61.978  49.605  52.823  0.00  0.00     0.000 C 
ENDBRANCH   6  11
ENDBRANCH   1   4
BRANCH   1  14
ATOM     14  N   UNL d   1      58.782  49.302  49.870  0.00  0.00    -0.155 NA
BRANCH  14  15
ATOM     15  C   UNL d   1      58.266  48.745  50.190  0.00  0.00     0.131 C 
BRANCH  15  16
ATOM     16  C   UNL d   1      57.524  48.981  50.465  0.00  0.00     0.101 A 
ATOM     17  N   UNL d   1      57.259  48.730  51.205  0.00  0.00    -0.242 NA
ATOM     18  C   UNL d   1      56.517  48.966  51.479  0.00  0.00     0.099 A 
ATOM     19  C   UNL d   1      56.041  49.452  51.014  0.00  0.00     0.021 A 
ATOM     20  C   UNL d   1      56.305  49.706  50.270  0.00  0.00     0.003 A 
ATOM     21  C   UNL d   1      57.046  49.470  49.996  0.00  0.00     0.021 A 
ENDBRANCH  15  16
ENDBRANCH  14  15
ENDBRANCH   1  14
TORSDOF 5
ENDMDL
MODEL 2
REMARK VINA RESULT:      44.5      1.176      4.031
REMARK  5 active torsions:
REMARK  status: ('A' for Active; 'I' for Inactive)
REMARK    1  A    between atoms: C_2  and  S_1 
REMARK    2  A    between atoms: N_4  and  S_1 
REMARK    3  A    between atoms: C_10  and  N_4 
REMARK    4  A    between atoms: C_14  and  C_5 
REMARK    5  A    between atoms: C_13  and  C_10 
ROOT
ATOM      1  S   UNL d   1      59.519  49.493  50.492  0.00  0.00     0.285 S 
ATOM      2  O   UNL d   1      59.929  49.660  49.808  0.00  0.00    -0.198 OA
ATOM      3  O   UNL d   1      59.102  49.323  51.188  0.00  0.00    -0.198 OA
ENDROOT
BRANCH   1   4
ATOM      4  C   UNL d   1      58.809  49.517  50.072  0.00  0.00     0.105 A 
ATOM      5  C   UNL d   1      58.091  49.435  50.469  0.00  0.00     0.013 A 
ATOM      6  C   UNL d   1      57.382  49.458  50.050  0.00  0.00     0.001 A 
ATOM      7  C   UNL d   1      57.390  49.564  49.232  0.00  0.00     0.000 A 
ATOM      8  C   UNL d   1      58.103  49.645  48.842  0.00  0.00     0.001 A 
ATOM      9  C   UNL d   1      58.812  49.621  49.261  0.00  0.00     0.012 A 
ATOM     10  C   UNL d   1      59.530  49.703  48.864  0.00  0.00     0.001 C 
BRANCH   6  11
ATOM     11  C   UNL d   1      56.662  49.376  50.452  0.00  0.00     0.000 C 
ATOM     12  C   UNL d   1      56.574  49.695  51.207  0.00  0.00     0.000 C 
ATOM     13  C   UNL d   1      56.033  48.975  50.097  0.00  0.00     0.000 C 
ENDBRANCH   6  11
ENDBRANCH   1   4
BRANCH   1  14
ATOM     14  N   UNL d   1      60.229  49.469  50.912  0.00  0.00    -0.155 NA
BRANCH  14  15
ATOM     15  C   UNL d   1      60.220  49.378  51.731  0.00  0.00     0.131 C 
BRANCH  15  16
ATOM     16  C   UNL d   1      60.930  49.327  52.148  0.00  0.00     0.101 A 
ATOM     17  N   UNL d   1      61.562  48.898  51.836  0.00  0.00    -0.242 NA
ATOM     18  C   UNL d   1      62.272  48.846  52.253  0.00  0.00     0.099 A 
ATOM     19  C   UNL d   1      62.350  49.224  52.982  0.00  0.00     0.021 A 
ATOM     20  C   UNL d   1      61.717  49.655  53.298  0.00  0.00     0.003 A 
ATOM     21  C   UNL d   1      61.007  49.707  52.881  0.00  0.00     0.021 A 
ENDBRANCH  15  16
ENDBRANCH  14  15
ENDBRANCH   1  14
TORSDOF 5
ENDMDL
MODEL 3
REMARK VINA RESULT:      45.3      1.559      2.060
REMARK  5 active torsions:
REMARK  status: ('A' for Active; 'I' for Inactive)
REMARK    1  A    between atoms: C_2  and  S_1 
REMARK    2  A    between atoms: N_4  and  S_1 
REMARK    3  A    between atoms: C_10  and  N_4 
REMARK    4  A    between atoms: C_14  and  C_5 
REMARK    5  A    between atoms: C_13  and  C_10 
ROOT
ATOM      1  S   UNL d   1      59.697  49.072  50.552  0.00  0.00     0.285 S 
ATOM      2  O   UNL d   1      60.178  49.688  50.323  0.00  0.00    -0.198 OA
ATOM      3  O   UNL d   1      59.207  48.445  50.786  0.00  0.00    -0.198 OA
ENDROOT
BRANCH   1   4
ATOM      4  C   UNL d   1      60.360  48.642  50.791  0.00  0.00     0.105 A 
ATOM      5  C   UNL d   1      60.518  47.906  50.455  0.00  0.00     0.013 A 
ATOM      6  C   UNL d   1      61.180  47.477  50.693  0.00  0.00     0.001 A 
ATOM      7  C   UNL d   1      61.686  47.784  51.267  0.00  0.00     0.000 A 
ATOM      8  C   UNL d   1      61.526  48.514  51.597  0.00  0.00     0.001 A 
ATOM      9  C   UNL d   1      60.864  48.943  51.359  0.00  0.00     0.012 A 
ATOM     10  C   UNL d   1      60.706  49.679  51.695  0.00  0.00     0.001 C 
BRANCH   6  11
ATOM     11  C   UNL d   1      61.336  46.737  50.353  0.00  0.00     0.000 C 
ATOM     12  C   UNL d   1      60.986  46.059  50.667  0.00  0.00     0.000 C 
ATOM     13  C   UNL d   1      61.842  46.677  49.703  0.00  0.00     0.000 C 
ENDBRANCH   6  11
ENDBRANCH   1   4
BRANCH   1  14
ATOM     14  N   UNL d   1      59.034  49.501  50.314  0.00  0.00    -0.155 NA
BRANCH  14  15
ATOM     15  C   UNL d   1      58.350  49.493  50.775  0.00  0.00     0.131 C 
BRANCH  15  16
ATOM     16  C   UNL d   1      57.609  49.513  50.414  0.00  0.00     0.101 A 
ATOM     17  N   UNL d   1      57.540  49.365  49.605  0.00  0.00    -0.242 NA
ATOM     18  C   UNL d   1      56.798  49.385  49.244  0.00  0.00     0.099 A 
ATOM     19  C   UNL d   1      56.126  49.552  49.691  0.00  0.00     0.021 A 
ATOM     20  C   UNL d   1      56.193  49.700  50.504  0.00  0.00     0.003 A 
ATOM     21  C   UNL d   1      56.934  49.680  50.865  0.00  0.00     0.021 A 
ENDBRANCH  15  16
ENDBRANCH  14  15
ENDBRANCH   1  14
TORSDOF 5
ENDMDL
