MODEL 1
REMARK VINA RESULT:       2.6      0.000      0.000
REMARK  4 active torsions:
REMARK  status: ('A' for Active; 'I' for Inactive)
REMARK    1  A    between atoms: C_4  and  C_1 
REMARK    2  A    between atoms: C_9  and  N_2 
REMARK    3  A    between atoms: C_10  and  N_3 
REMARK    4  A    between atoms: O_15  and  C_12 
ROOT
ATOM      1  C   UNL d   1      58.492  -0.500  30.392  0.00  0.00     0.133 A 
ATOM      2  N   UNL d   1      59.065   0.055  30.217  0.00  0.00    -0.290 N 
ATOM      3  N   UNL d   1      58.043  -0.208  31.012  0.00  0.00    -0.290 N 
ATOM      4  C   UNL d   1      58.349   0.534  31.215  0.00  0.00     0.101 A 
ATOM      5  C   UNL d   1      58.954   0.682  30.738  0.00  0.00     0.101 A 
ENDROOT
BRANCH   1   6
ATOM      6  C   UNL d   1      58.483  -1.192  29.941  0.00  0.00     0.036 A 
ATOM      7  C   UNL d   1      59.021  -1.806  30.123  0.00  0.00     0.047 A 
ATOM      8  C   UNL d   1      59.012  -2.498  29.673  0.00  0.00     0.218 A 
ATOM      9  O   UNL d   1      59.552  -3.115  29.855  0.00  0.00    -0.284 OA
ATOM     10  C   UNL d   1      58.477  -2.575  29.052  0.00  0.00     0.133 A 
ATOM     11  C   UNL d   1      57.949  -1.967  28.877  0.00  0.00     0.028 A 
ATOM     12  C   UNL d   1      57.958  -1.279  29.325  0.00  0.00     0.005 A 
BRANCH  10  13
ATOM     13  O   UNL d   1      58.465  -3.279  28.590  0.00  0.00    -0.325 OA
ATOM     14  C   UNL d   1      57.795  -3.760  28.601  0.00  0.00     0.181 C 
ENDBRANCH  10  13
ENDBRANCH   1   6
BRANCH   2  15
ATOM     15  C   UNL d   1      59.715   0.235  29.720  0.00  0.00     0.066 A 
ATOM     16  C   UNL d   1      59.588   0.501  28.956  0.00  0.00     0.018 A 
ATOM     17  C   UNL d   1      60.208   0.682  28.456  0.00  0.00     0.002 A 
ATOM     18  C   UNL d   1      60.993   0.597  28.722  0.00  0.00     0.000 A 
ATOM     19  C   UNL d   1      61.133   0.327  29.501  0.00  0.00     0.002 A 
ATOM     20  C   UNL d   1      60.486   0.146  29.999  0.00  0.00     0.018 A 
ENDBRANCH   2  15
BRANCH   3  21
ATOM     21  C   UNL d   1      57.396  -0.483  31.443  0.00  0.00     0.066 A 
ATOM     22  C   UNL d   1      56.687  -0.058  31.467  0.00  0.00     0.018 A 
ATOM     23  C   UNL d   1      56.056  -0.326  31.888  0.00  0.00     0.002 A 
ATOM     24  C   UNL d   1      56.096  -1.045  32.315  0.00  0.00     0.000 A 
ATOM     25  C   UNL d   1      56.808  -1.471  32.291  0.00  0.00     0.002 A 
ATOM     26  C   UNL d   1      57.453  -1.195  31.860  0.00  0.00     0.018 A 
ENDBRANCH   3  21
TORSDOF 4
ENDMDL
MODEL 2
REMARK VINA RESULT:       4.7      1.356      1.991
REMARK  4 active torsions:
REMARK  status: ('A' for Active; 'I' for Inactive)
REMARK    1  A    between atoms: C_4  and  C_1 
REMARK    2  A    between atoms: C_9  and  N_2 
REMARK    3  A    between atoms: C_10  and  N_3 
REMARK    4  A    between atoms: O_15  and  C_12 
ROOT
ATOM      1  C   UNL d   1      58.074  -0.027  31.767  0.00  0.00     0.133 A 
ATOM      2  N   UNL d   1      58.795   0.314  31.935  0.00  0.00    -0.290 N 
ATOM      3  N   UNL d   1      57.568   0.134  32.392  0.00  0.00    -0.290 N 
ATOM      4  C   UNL d   1      57.991   0.580  32.946  0.00  0.00     0.101 A 
ATOM      5  C   UNL d   1      58.718   0.682  32.667  0.00  0.00     0.101 A 
ENDROOT
BRANCH   1   6
ATOM      6  C   UNL d   1      58.004  -0.437  31.052  0.00  0.00     0.036 A 
ATOM      7  C   UNL d   1      57.728  -0.033  30.374  0.00  0.00     0.047 A 
ATOM      8  C   UNL d   1      57.659  -0.442  29.661  0.00  0.00     0.218 A 
ATOM      9  O   UNL d   1      57.381  -0.037  28.980  0.00  0.00    -0.284 OA
ATOM     10  C   UNL d   1      57.862  -1.239  29.624  0.00  0.00     0.133 A 
ATOM     11  C   UNL d   1      58.134  -1.632  30.295  0.00  0.00     0.028 A 
ATOM     12  C   UNL d   1      58.203  -1.225  31.005  0.00  0.00     0.005 A 
BRANCH  10  13
ATOM     13  O   UNL d   1      57.793  -1.659  28.898  0.00  0.00    -0.325 OA
ATOM     14  C   UNL d   1      58.457  -2.028  28.577  0.00  0.00     0.181 C 
ENDBRANCH  10  13
ENDBRANCH   1   6
BRANCH   2  15
ATOM     15  C   UNL d   1      59.577   0.436  31.659  0.00  0.00     0.066 A 
ATOM     16  C   UNL d   1      60.204   0.434  32.185  0.00  0.00     0.018 A 
ATOM     17  C   UNL d   1      60.974   0.551  31.935  0.00  0.00     0.002 A 
ATOM     18  C   UNL d   1      61.132   0.677  31.127  0.00  0.00     0.000 A 
ATOM     19  C   UNL d   1      60.497   0.682  30.582  0.00  0.00     0.002 A 
ATOM     20  C   UNL d   1      59.717   0.560  30.856  0.00  0.00     0.018 A 
ENDBRANCH   2  15
BRANCH   3  21
ATOM     21  C   UNL d   1      56.782  -0.044  32.567  0.00  0.00     0.066 A 
ATOM     22  C   UNL d   1      56.182   0.510  32.444  0.00  0.00     0.018 A 
ATOM     23  C   UNL d   1      55.415   0.337  32.615  0.00  0.00     0.002 A 
ATOM     24  C   UNL d   1      55.200  -0.411  32.924  0.00  0.00     0.000 A 
ATOM     25  C   UNL d   1      55.804  -0.968  33.047  0.00  0.00     0.002 A 
ATOM     26  C   UNL d   1      56.588  -0.788  32.871  0.00  0.00     0.018 A 
ENDBRANCH   3  21
TORSDOF 4
ENDMDL
