MODEL 1
REMARK VINA RESULT:       9.9      0.000      0.000
REMARK  5 active torsions:
REMARK  status: ('A' for Active; 'I' for Inactive)
REMARK    1  A    between atoms: N_4  and  C_1 
REMARK    2  A    between atoms: C_8  and  C_3 
REMARK       I    between atoms: C_7  and  N_4 
REMARK    3  A    between atoms: C_11  and  C_7 
REMARK    4  A    between atoms: C_12  and  C_11 
REMARK    5  A    between atoms: O_18  and  C_13 
ROOT
ATOM      1  N   UNL d   1      45.535 -17.033  44.804  0.00  0.00    -0.183 NA
ATOM      2  C   UNL d   1      45.752 -16.265  44.596  0.00  0.00     0.281 C 
ATOM      3  O   UNL d   1      46.345 -16.147  44.026  0.00  0.00    -0.265 OA
ENDROOT
BRANCH   1   4
ATOM      4  C   UNL d   1      45.908 -17.679  44.445  0.00  0.00     0.197 A 
ATOM      5  N   UNL d   1      45.857 -17.886  43.659  0.00  0.00    -0.221 NA
ATOM      6  C   UNL d   1      46.313 -18.562  43.538  0.00  0.00     0.090 A 
ATOM      7  C   UNL d   1      46.646 -18.768  44.265  0.00  0.00     0.058 A 
ATOM      8  S   UNL d   1      46.388 -18.210  44.826  0.00  0.00    -0.046 SA
BRANCH   6   9
ATOM      9  C   UNL d   1      46.415 -18.953  42.837  0.00  0.00     0.021 A 
ATOM     10  C   UNL d   1      46.435 -19.780  42.833  0.00  0.00     0.022 A 
ATOM     11  C   UNL d   1      46.541 -20.181  42.116  0.00  0.00     0.099 A 
ATOM     12  N   UNL d   1      46.624 -19.751  41.414  0.00  0.00    -0.242 NA
ATOM     13  C   UNL d   1      46.604 -18.935  41.418  0.00  0.00     0.099 A 
ATOM     14  C   UNL d   1      46.499 -18.525  42.135  0.00  0.00     0.022 A 
ENDBRANCH   6   9
ENDBRANCH   1   4
BRANCH   2  15
ATOM     15  C   UNL d   1      45.384 -15.619  44.949  0.00  0.00     0.063 C 
BRANCH  15  16
ATOM     16  C   UNL d   1      45.407 -14.886  44.579  0.00  0.00     0.005 A 
ATOM     17  C   UNL d   1      46.039 -14.360  44.730  0.00  0.00     0.002 A 
ATOM     18  C   UNL d   1      46.054 -13.630  44.356  0.00  0.00     0.024 A 
ATOM     19  C   UNL d   1      45.462 -13.409  43.838  0.00  0.00     0.094 A 
ATOM     20  C   UNL d   1      44.830 -13.935  43.686  0.00  0.00     0.024 A 
ATOM     21  C   UNL d   1      44.807 -14.668  44.057  0.00  0.00     0.002 A 
BRANCH  19  22
ATOM     22  O   UNL d   1      45.476 -12.676  43.461  0.00  0.00    -0.328 OA
ATOM     23  C   UNL d   1      44.872 -12.447  42.960  0.00  0.00     0.181 C 
ENDBRANCH  19  22
ENDBRANCH  15  16
ENDBRANCH   2  15
TORSDOF 5
ENDMDL
MODEL 2
REMARK VINA RESULT:      10.4      1.698      5.209
REMARK  5 active torsions:
REMARK  status: ('A' for Active; 'I' for Inactive)
REMARK    1  A    between atoms: N_4  and  C_1 
REMARK    2  A    between atoms: C_8  and  C_3 
REMARK       I    between atoms: C_7  and  N_4 
REMARK    3  A    between atoms: C_11  and  C_7 
REMARK    4  A    between atoms: C_12  and  C_11 
REMARK    5  A    between atoms: O_18  and  C_13 
ROOT
ATOM      1  N   UNL d   1      46.258 -16.380  44.946  0.00  0.00    -0.183 NA
ATOM      2  C   UNL d   1      45.955 -17.093  44.663  0.00  0.00     0.281 C 
ATOM      3  O   UNL d   1      45.229 -17.099  44.259  0.00  0.00    -0.265 OA
ENDROOT
BRANCH   1   4
ATOM      4  C   UNL d   1      45.837 -15.677  44.825  0.00  0.00     0.197 A 
ATOM      5  N   UNL d   1      46.147 -14.972  44.560  0.00  0.00    -0.221 NA
ATOM      6  C   UNL d   1      45.539 -14.419  44.520  0.00  0.00     0.090 A 
ATOM      7  C   UNL d   1      44.846 -14.795  44.765  0.00  0.00     0.058 A 
ATOM      8  S   UNL d   1      45.042 -15.582  44.954  0.00  0.00    -0.046 SA
BRANCH   6   9
ATOM      9  C   UNL d   1      45.605 -13.647  44.284  0.00  0.00     0.021 A 
ATOM     10  C   UNL d   1      45.176 -13.386  43.626  0.00  0.00     0.022 A 
ATOM     11  C   UNL d   1      45.244 -12.597  43.384  0.00  0.00     0.099 A 
ATOM     12  N   UNL d   1      45.738 -12.081  43.801  0.00  0.00    -0.242 NA
ATOM     13  C   UNL d   1      46.161 -12.339  44.449  0.00  0.00     0.099 A 
ATOM     14  C   UNL d   1      46.098 -13.130  44.699  0.00  0.00     0.022 A 
ENDBRANCH   6   9
ENDBRANCH   1   4
BRANCH   2  15
ATOM     15  C   UNL d   1      46.368 -17.796  44.779  0.00  0.00     0.063 C 
BRANCH  15  16
ATOM     16  C   UNL d   1      46.437 -18.333  44.162  0.00  0.00     0.005 A 
ATOM     17  C   UNL d   1      46.569 -19.143  44.325  0.00  0.00     0.002 A 
ATOM     18  C   UNL d   1      46.637 -19.673  43.703  0.00  0.00     0.024 A 
ATOM     19  C   UNL d   1      46.579 -19.423  42.927  0.00  0.00     0.094 A 
ATOM     20  C   UNL d   1      46.447 -18.613  42.764  0.00  0.00     0.024 A 
ATOM     21  C   UNL d   1      46.378 -18.076  43.381  0.00  0.00     0.002 A 
BRANCH  19  22
ATOM     22  O   UNL d   1      46.647 -19.954  42.301  0.00  0.00    -0.328 OA
ATOM     23  C   UNL d   1      46.611 -19.700  41.525  0.00  0.00     0.181 C 
ENDBRANCH  19  22
ENDBRANCH  15  16
ENDBRANCH   2  15
TORSDOF 5
ENDMDL
