MODEL 1
REMARK VINA RESULT:      67.2      0.000      0.000
REMARK  4 active torsions:
REMARK  status: ('A' for Active; 'I' for Inactive)
REMARK    1  A    between atoms: C_8  and  N_1 
REMARK    2  A    between atoms: C_11  and  C_13 
REMARK       I    between atoms: N_14  and  C_11 
REMARK    3  A    between atoms: C_18  and  N_14 
REMARK    4  A    between atoms: C_20  and  C_18 
ROOT
ATOM      1  C   UNL d   1     -55.106-101.113 -43.937  0.00  0.00     0.066 A 
ATOM      2  C   UNL d   1     -55.569-100.438 -44.040  0.00  0.00     0.022 A 
ATOM      3  C   UNL d   1     -55.649-100.111 -44.798  0.00  0.00     0.059 A 
ATOM      4  C   UNL d   1     -54.720-101.464 -44.583  0.00  0.00     0.017 A 
ATOM      5  C   UNL d   1     -55.264-100.463 -45.443  0.00  0.00     0.005 A 
ATOM      6  C   UNL d   1     -54.803-101.135 -45.331  0.00  0.00     0.002 A 
ENDROOT
BRANCH   1   7
ATOM      7  N   UNL d   1     -55.023-101.441 -43.189  0.00  0.00    -0.261 N 
ATOM      8  C   UNL d   1     -55.063-100.879 -42.590  0.00  0.00     0.174 A 
ATOM      9  O   UNL d   1     -55.014-100.905 -41.762  0.00  0.00    -0.316 OA
ATOM     10  C   UNL d   1     -54.901-102.119 -42.539  0.00  0.00     0.079 A 
ATOM     11  C   UNL d   1     -55.172-100.075 -42.713  0.00  0.00     0.055 C 
ATOM     12  C   UNL d   1     -54.908-101.496 -41.200  0.00  0.00     0.094 A 
ATOM     13  C   UNL d   1     -54.917-101.113 -40.463  0.00  0.00     0.024 A 
ATOM     14  C   UNL d   1     -54.805-102.315 -41.227  0.00  0.00     0.022 A 
ATOM     15  C   UNL d   1     -54.824-101.547 -39.769  0.00  0.00     0.002 A 
ATOM     16  C   UNL d   1     -54.722-102.366 -39.805  0.00  0.00    -0.000 A 
ATOM     17  C   UNL d   1     -54.712-102.750 -40.534  0.00  0.00    -0.001 A 
ATOM     18  C   UNL d   1     -54.766-102.877 -41.826  0.00  0.00     0.137 A 
ATOM     19  N   UNL d   1     -54.813-102.859 -42.659  0.00  0.00    -0.216 NA
ATOM     20  C   UNL d   1     -54.919-102.268 -43.221  0.00  0.00     0.348 A 
ATOM     21  O   UNL d   1     -54.924-102.556 -43.987  0.00  0.00    -0.245 OA
ENDBRANCH   1   7
BRANCH   3  22
ATOM     22  C   UNL d   1     -56.113 -99.437 -44.901  0.00  0.00     0.279 C 
ATOM     23  N   UNL d   1     -56.894 -99.433 -44.647  0.00  0.00    -0.206 NA
ATOM     24  O   UNL d   1     -55.787 -98.768 -45.261  0.00  0.00    -0.265 OA
BRANCH  23  25
ATOM     25  C   UNL d   1     -57.358 -98.755 -44.751  0.00  0.00     0.102 C 
BRANCH  25  26
ATOM     26  C   UNL d   1     -58.154 -98.769 -44.540  0.00  0.00     0.019 A 
ATOM     27  C   UNL d   1     -58.741 -98.778 -45.121  0.00  0.00     0.002 A 
ATOM     28  C   UNL d   1     -59.534 -98.791 -44.900  0.00  0.00     0.000 A 
ATOM     29  C   UNL d   1     -59.752 -98.797 -44.106  0.00  0.00     0.000 A 
ATOM     30  C   UNL d   1     -59.159 -98.788 -43.525  0.00  0.00     0.000 A 
ATOM     31  C   UNL d   1     -58.366 -98.774 -43.739  0.00  0.00     0.002 A 
ENDBRANCH  25  26
ENDBRANCH  23  25
ENDBRANCH   3  22
TORSDOF 4
ENDMDL
