MODEL 1
REMARK VINA RESULT:      -6.6      0.000      0.000
REMARK  3 active torsions:
REMARK  status: ('A' for Active; 'I' for Inactive)
REMARK    1  A    between atoms: C_8  and  C_2 
REMARK    2  A    between atoms: C_9  and  C_3 
REMARK    3  A    between atoms: N_6  and  C_8 
ROOT
ATOM      1  N   UNL d   1     -41.280-121.427 -52.606  0.00  0.00    -0.121 NA
ATOM      2  C   UNL d   1     -41.325-122.360 -51.653  0.00  0.00     0.222 A 
ATOM      3  C   UNL d   1     -41.493-122.137 -52.963  0.00  0.00     0.204 A 
ATOM      4  O   UNL d   1     -41.521-122.715 -52.367  0.00  0.00    -0.267 OA
ATOM      5  N   UNL d   1     -41.175-121.559 -51.797  0.00  0.00    -0.119 NA
ENDROOT
BRANCH   2   6
ATOM      6  C   UNL d   1     -41.284-122.731 -50.913  0.00  0.00     0.127 C 
BRANCH   6   7
ATOM      7  N   UNL d   1     -41.920-122.688 -50.391  0.00  0.00    -0.301 N 
ATOM      8  C   UNL d   1     -41.862-123.048 -49.657  0.00  0.00     0.064 A 
ATOM      9  C   UNL d   1     -42.493-123.012 -49.126  0.00  0.00     0.016 A 
ATOM     10  C   UNL d   1     -41.182-123.449 -49.440  0.00  0.00     0.018 A 
ATOM     11  C   UNL d   1     -42.443-123.369 -48.394  0.00  0.00     0.001 A 
ATOM     12  C   UNL d   1     -43.181-122.607 -49.345  0.00  0.00     0.003 A 
ATOM     13  C   UNL d   1     -41.762-123.768 -48.180  0.00  0.00     0.000 A 
ATOM     14  C   UNL d   1     -41.125-123.810 -48.706  0.00  0.00     0.002 A 
ATOM     15  C   UNL d   1     -43.236-122.245 -50.082  0.00  0.00     0.019 A 
ATOM     16  C   UNL d   1     -42.599-122.285 -50.612  0.00  0.00     0.080 A 
ENDBRANCH   6   7
ENDBRANCH   2   6
BRANCH   3  17
ATOM     17  C   UNL d   1     -41.651-122.253 -53.766  0.00  0.00     0.043 A 
ATOM     18  C   UNL d   1     -41.249-122.847 -54.176  0.00  0.00     0.004 A 
ATOM     19  C   UNL d   1     -41.403-122.966 -54.978  0.00  0.00     0.000 A 
ATOM     20  C   UNL d   1     -41.960-122.491 -55.365  0.00  0.00     0.000 A 
ATOM     21  C   UNL d   1     -42.360-121.899 -54.947  0.00  0.00     0.000 A 
ATOM     22  C   UNL d   1     -42.202-121.783 -54.147  0.00  0.00     0.004 A 
ENDBRANCH   3  17
TORSDOF 3
ENDMDL
MODEL 2
REMARK VINA RESULT:      -6.4      0.724      4.799
REMARK  3 active torsions:
REMARK  status: ('A' for Active; 'I' for Inactive)
REMARK    1  A    between atoms: C_8  and  C_2 
REMARK    2  A    between atoms: C_9  and  C_3 
REMARK    3  A    between atoms: N_6  and  C_8 
ROOT
ATOM      1  N   UNL d   1     -41.160-122.014 -50.818  0.00  0.00    -0.121 NA
ATOM      2  C   UNL d   1     -41.859-122.152 -51.946  0.00  0.00     0.222 A 
ATOM      3  C   UNL d   1     -41.812-122.488 -50.651  0.00  0.00     0.204 A 
ATOM      4  O   UNL d   1     -42.244-122.572 -51.354  0.00  0.00    -0.267 OA
ATOM      5  N   UNL d   1     -41.185-121.803 -51.616  0.00  0.00    -0.119 NA
ENDROOT
BRANCH   2   6
ATOM      6  C   UNL d   1     -42.098-122.084 -52.737  0.00  0.00     0.127 C 
BRANCH   6   7
ATOM      7  N   UNL d   1     -41.797-122.599 -53.306  0.00  0.00    -0.301 N 
ATOM      8  C   UNL d   1     -41.878-122.411 -54.100  0.00  0.00     0.064 A 
ATOM      9  C   UNL d   1     -41.582-122.918 -54.679  0.00  0.00     0.016 A 
ATOM     10  C   UNL d   1     -42.253-121.720 -54.331  0.00  0.00     0.018 A 
ATOM     11  C   UNL d   1     -41.659-122.738 -55.471  0.00  0.00     0.001 A 
ATOM     12  C   UNL d   1     -41.203-123.617 -54.447  0.00  0.00     0.003 A 
ATOM     13  C   UNL d   1     -42.033-122.047 -55.698  0.00  0.00     0.000 A 
ATOM     14  C   UNL d   1     -42.334-121.532 -55.124  0.00  0.00     0.002 A 
ATOM     15  C   UNL d   1     -41.123-123.804 -53.650  0.00  0.00     0.019 A 
ATOM     16  C   UNL d   1     -41.423-123.289 -53.071  0.00  0.00     0.080 A 
ENDBRANCH   6   7
ENDBRANCH   2   6
BRANCH   3  17
ATOM     17  C   UNL d   1     -42.000-122.820 -49.917  0.00  0.00     0.043 A 
ATOM     18  C   UNL d   1     -41.467-123.341 -49.559  0.00  0.00     0.004 A 
ATOM     19  C   UNL d   1     -41.651-123.674 -48.827  0.00  0.00     0.000 A 
ATOM     20  C   UNL d   1     -42.367-123.485 -48.457  0.00  0.00     0.000 A 
ATOM     21  C   UNL d   1     -42.896-122.963 -48.822  0.00  0.00     0.000 A 
ATOM     22  C   UNL d   1     -42.708-122.632 -49.552  0.00  0.00     0.004 A 
ENDBRANCH   3  17
TORSDOF 3
ENDMDL
MODEL 3
REMARK VINA RESULT:      -4.6      0.980      1.292
REMARK  3 active torsions:
REMARK  status: ('A' for Active; 'I' for Inactive)
REMARK    1  A    between atoms: C_8  and  C_2 
REMARK    2  A    between atoms: C_9  and  C_3 
REMARK    3  A    between atoms: N_6  and  C_8 
ROOT
ATOM      1  N   UNL d   1     -42.014-123.469 -53.650  0.00  0.00    -0.121 NA
ATOM      2  C   UNL d   1     -41.473-122.854 -52.597  0.00  0.00     0.222 A 
ATOM      3  C   UNL d   1     -41.763-122.725 -53.898  0.00  0.00     0.204 A 
ATOM      4  O   UNL d   1     -41.428-122.345 -53.240  0.00  0.00    -0.267 OA
ATOM      5  N   UNL d   1     -41.838-123.554 -52.848  0.00  0.00    -0.119 NA
ENDROOT
BRANCH   2   6
ATOM      6  C   UNL d   1     -41.205-122.702 -51.828  0.00  0.00     0.127 C 
BRANCH   6   7
ATOM      7  N   UNL d   1     -41.737-122.479 -51.239  0.00  0.00    -0.301 N 
ATOM      8  C   UNL d   1     -41.709-122.853 -50.510  0.00  0.00     0.064 A 
ATOM      9  C   UNL d   1     -42.236-122.639 -49.913  0.00  0.00     0.016 A 
ATOM     10  C   UNL d   1     -41.160-123.443 -50.363  0.00  0.00     0.018 A 
ATOM     11  C   UNL d   1     -42.215-123.007 -49.185  0.00  0.00     0.001 A 
ATOM     12  C   UNL d   1     -42.792-122.043 -50.061  0.00  0.00     0.003 A 
ATOM     13  C   UNL d   1     -41.666-123.596 -49.041  0.00  0.00     0.000 A 
ATOM     14  C   UNL d   1     -41.133-123.817 -49.635  0.00  0.00     0.002 A 
ATOM     15  C   UNL d   1     -42.818-121.668 -50.793  0.00  0.00     0.019 A 
ATOM     16  C   UNL d   1     -42.284-121.888 -51.390  0.00  0.00     0.080 A 
ENDBRANCH   6   7
ENDBRANCH   2   6
BRANCH   3  17
ATOM     17  C   UNL d   1     -41.833-122.413 -54.660  0.00  0.00     0.043 A 
ATOM     18  C   UNL d   1     -42.575-122.172 -54.933  0.00  0.00     0.004 A 
ATOM     19  C   UNL d   1     -42.649-121.860 -55.693  0.00  0.00     0.000 A 
ATOM     20  C   UNL d   1     -41.981-121.792 -56.177  0.00  0.00     0.000 A 
ATOM     21  C   UNL d   1     -41.241-122.036 -55.897  0.00  0.00     0.000 A 
ATOM     22  C   UNL d   1     -41.172-122.347 -55.137  0.00  0.00     0.004 A 
ENDBRANCH   3  17
TORSDOF 3
ENDMDL
