MODEL 1
REMARK VINA RESULT:      93.3      0.000      0.000
REMARK  5 active torsions:
REMARK  status: ('A' for Active; 'I' for Inactive)
REMARK    1  A    between atoms: N_2  and  S_1 
REMARK    2  A    between atoms: C_5  and  S_1 
REMARK    3  A    between atoms: C_4  and  C_3 
REMARK       I    between atoms: N_6  and  C_4 
REMARK    4  A    between atoms: C_12  and  N_6 
REMARK    5  A    between atoms: O_23  and  C_15 
ROOT
ATOM      1  N   UNL d   1     -55.677 -99.996 -45.002  0.00  0.00    -0.226 N 
ATOM      2  C   UNL d   1     -56.396 -99.639 -45.204  0.00  0.00     0.133 A 
ATOM      3  C   UNL d   1     -55.137 -99.849 -45.604  0.00  0.00     0.092 A 
ATOM      4  C   UNL d   1     -56.289 -99.272 -45.939  0.00  0.00     0.025 A 
ATOM      5  C   UNL d   1     -55.512 -99.404 -46.181  0.00  0.00     0.021 A 
ENDROOT
BRANCH   2   6
ATOM      6  C   UNL d   1     -57.085 -99.651 -44.756  0.00  0.00     0.296 C 
ATOM      7  N   UNL d   1     -57.141 -99.160 -44.090  0.00  0.00    -0.207 NA
ATOM      8  O   UNL d   1     -57.711-100.143 -44.963  0.00  0.00    -0.264 OA
BRANCH   7   9
ATOM      9  C   UNL d   1     -57.836 -99.170 -43.637  0.00  0.00     0.085 A 
ATOM     10  C   UNL d   1     -57.862 -98.766 -42.914  0.00  0.00     0.021 A 
ATOM     11  C   UNL d   1     -58.558 -98.779 -42.465  0.00  0.00     0.026 A 
ATOM     12  C   UNL d   1     -59.216 -99.192 -42.737  0.00  0.00     0.094 A 
ATOM     13  C   UNL d   1     -59.185 -99.596 -43.461  0.00  0.00     0.026 A 
ATOM     14  C   UNL d   1     -58.494 -99.584 -43.909  0.00  0.00     0.021 A 
BRANCH  12  15
ATOM     15  O   UNL d   1     -59.912 -99.207 -42.291  0.00  0.00    -0.328 OA
ATOM     16  C   UNL d   1     -59.948 -99.684 -41.614  0.00  0.00     0.181 C 
ENDBRANCH  12  15
ENDBRANCH   7   9
ENDBRANCH   2   6
BRANCH   1  17
ATOM     17  S   UNL d   1     -55.585-100.416 -44.295  0.00  0.00     0.271 S 
ATOM     18  O   UNL d   1     -55.387 -99.700 -43.958  0.00  0.00    -0.200 OA
ATOM     19  O   UNL d   1     -55.790-101.142 -44.651  0.00  0.00    -0.200 OA
BRANCH  17  20
ATOM     20  C   UNL d   1     -55.484-100.798 -43.576  0.00  0.00     0.104 A 
ATOM     21  C   UNL d   1     -55.213-100.379 -42.918  0.00  0.00     0.013 A 
ATOM     22  C   UNL d   1     -55.114-100.770 -42.198  0.00  0.00     0.001 A 
ATOM     23  C   UNL d   1     -55.285-101.578 -42.135  0.00  0.00     0.000 A 
ATOM     24  C   UNL d   1     -55.557-101.999 -42.799  0.00  0.00     0.001 A 
ATOM     25  C   UNL d   1     -55.187-101.973 -41.418  0.00  0.00     0.000 C 
ATOM     26  C   UNL d   1     -55.655-101.604 -43.517  0.00  0.00     0.013 A 
ENDBRANCH  17  20
ENDBRANCH   1  17
TORSDOF 5
ENDMDL
