MODEL 1
REMARK VINA RESULT:      -6.7      0.000      0.000
REMARK  1 active torsions:
REMARK  status: ('A' for Active; 'I' for Inactive)
REMARK    1  A    between atoms: C_4  and  C_1 
ROOT
ATOM      1  C   UNL d   1     -47.101  12.695  22.970  0.00  0.00     0.164 A 
ATOM      2  O   UNL d   1     -47.316  13.004  22.236  0.00  0.00    -0.301 OA
ATOM      3  C   UNL d   1     -47.745  12.281  23.272  0.00  0.00     0.033 A 
ATOM      4  C   UNL d   1     -48.095  12.780  22.084  0.00  0.00     0.100 A 
ATOM      5  C   UNL d   1     -48.362  12.331  22.728  0.00  0.00     0.025 A 
ATOM      6  C   UNL d   1     -48.598  12.923  21.449  0.00  0.00     0.025 A 
ATOM      7  C   UNL d   1     -49.130  12.027  22.733  0.00  0.00     0.002 A 
ATOM      8  C   UNL d   1     -49.639  12.172  22.089  0.00  0.00     0.000 A 
ATOM      9  C   UNL d   1     -49.374  12.619  21.448  0.00  0.00     0.002 A 
ENDROOT
BRANCH   1  10
ATOM     10  C   UNL d   1     -46.369  12.790  23.328  0.00  0.00     0.235 C 
ATOM     11  O   UNL d   1     -46.189  13.515  23.698  0.00  0.00    -0.642 OA
ATOM     12  O   UNL d   1     -45.815  12.179  23.324  0.00  0.00    -0.642 OA
ENDBRANCH   1  10
TORSDOF 1
ENDMDL
MODEL 2
REMARK VINA RESULT:      -6.6      1.373      1.700
REMARK  1 active torsions:
REMARK  status: ('A' for Active; 'I' for Inactive)
REMARK    1  A    between atoms: C_4  and  C_1 
ROOT
ATOM      1  C   UNL d   1     -46.743  13.441  22.735  0.00  0.00     0.164 A 
ATOM      2  O   UNL d   1     -47.369  13.073  22.343  0.00  0.00    -0.301 OA
ATOM      3  C   UNL d   1     -46.973  14.209  22.921  0.00  0.00     0.033 A 
ATOM      4  C   UNL d   1     -47.987  13.616  22.286  0.00  0.00     0.100 A 
ATOM      5  C   UNL d   1     -47.741  14.322  22.645  0.00  0.00     0.025 A 
ATOM      6  C   UNL d   1     -48.740  13.565  21.957  0.00  0.00     0.025 A 
ATOM      7  C   UNL d   1     -48.249  14.972  22.673  0.00  0.00     0.002 A 
ATOM      8  C   UNL d   1     -49.012  14.920  22.340  0.00  0.00     0.000 A 
ATOM      9  C   UNL d   1     -49.256  14.218  21.982  0.00  0.00     0.002 A 
ENDROOT
BRANCH   1  10
ATOM     10  C   UNL d   1     -46.020  13.092  22.906  0.00  0.00     0.235 C 
ATOM     11  O   UNL d   1     -45.953  12.606  23.580  0.00  0.00    -0.642 OA
ATOM     12  O   UNL d   1     -45.366  13.217  22.419  0.00  0.00    -0.642 OA
ENDBRANCH   1  10
TORSDOF 1
ENDMDL
MODEL 3
REMARK VINA RESULT:      -6.4      2.174      3.186
REMARK  1 active torsions:
REMARK  status: ('A' for Active; 'I' for Inactive)
REMARK    1  A    between atoms: C_4  and  C_1 
ROOT
ATOM      1  C   UNL d   1     -48.728  14.786  22.876  0.00  0.00     0.164 A 
ATOM      2  O   UNL d   1     -48.729  13.980  23.055  0.00  0.00    -0.301 OA
ATOM      3  C   UNL d   1     -47.954  15.011  22.711  0.00  0.00     0.033 A 
ATOM      4  C   UNL d   1     -47.952  13.708  23.000  0.00  0.00     0.100 A 
ATOM      5  C   UNL d   1     -47.471  14.348  22.787  0.00  0.00     0.025 A 
ATOM      6  C   UNL d   1     -47.617  12.965  23.115  0.00  0.00     0.025 A 
ATOM      7  C   UNL d   1     -46.657  14.242  22.690  0.00  0.00     0.002 A 
ATOM      8  C   UNL d   1     -46.319  13.489  22.807  0.00  0.00     0.000 A 
ATOM      9  C   UNL d   1     -46.798  12.852  23.019  0.00  0.00     0.002 A 
ENDROOT
BRANCH   1  10
ATOM     10  C   UNL d   1     -49.391  15.269  22.867  0.00  0.00     0.235 C 
ATOM     11  O   UNL d   1     -49.647  15.621  23.577  0.00  0.00    -0.642 OA
ATOM     12  O   UNL d   1     -49.802  15.408  22.165  0.00  0.00    -0.642 OA
ENDBRANCH   1  10
TORSDOF 1
ENDMDL
MODEL 4
REMARK VINA RESULT:      -6.3      1.554      2.723
REMARK  1 active torsions:
REMARK  status: ('A' for Active; 'I' for Inactive)
REMARK    1  A    between atoms: C_4  and  C_1 
ROOT
ATOM      1  C   UNL d   1     -48.690  12.222  23.227  0.00  0.00     0.164 A 
ATOM      2  O   UNL d   1     -48.662  13.017  23.009  0.00  0.00    -0.301 OA
ATOM      3  C   UNL d   1     -47.920  11.962  23.352  0.00  0.00     0.033 A 
ATOM      4  C   UNL d   1     -47.870  13.249  22.999  0.00  0.00     0.100 A 
ATOM      5  C   UNL d   1     -47.409  12.594  23.212  0.00  0.00     0.025 A 
ATOM      6  C   UNL d   1     -47.506  13.966  22.826  0.00  0.00     0.025 A 
ATOM      7  C   UNL d   1     -46.587  12.659  23.251  0.00  0.00     0.002 A 
ATOM      8  C   UNL d   1     -46.218  13.386  23.075  0.00  0.00     0.000 A 
ATOM      9  C   UNL d   1     -46.677  14.038  22.863  0.00  0.00     0.002 A 
ENDROOT
BRANCH   1  10
ATOM     10  C   UNL d   1     -49.375  11.776  23.303  0.00  0.00     0.235 C 
ATOM     11  O   UNL d   1     -49.341  11.043  23.698  0.00  0.00    -0.642 OA
ATOM     12  O   UNL d   1     -50.091  12.047  22.995  0.00  0.00    -0.642 OA
ENDBRANCH   1  10
TORSDOF 1
ENDMDL
MODEL 5
REMARK VINA RESULT:      -5.9      1.368      1.866
REMARK  1 active torsions:
REMARK  status: ('A' for Active; 'I' for Inactive)
REMARK    1  A    between atoms: C_4  and  C_1 
ROOT
ATOM      1  C   UNL d   1     -46.040  12.873  22.903  0.00  0.00     0.164 A 
ATOM      2  O   UNL d   1     -45.998  13.684  22.758  0.00  0.00    -0.301 OA
ATOM      3  C   UNL d   1     -46.833  12.664  22.968  0.00  0.00     0.033 A 
ATOM      4  C   UNL d   1     -46.770  13.977  22.733  0.00  0.00     0.100 A 
ATOM      5  C   UNL d   1     -47.288  13.343  22.864  0.00  0.00     0.025 A 
ATOM      6  C   UNL d   1     -47.070  14.733  22.610  0.00  0.00     0.025 A 
ATOM      7  C   UNL d   1     -48.104  13.469  22.870  0.00  0.00     0.002 A 
ATOM      8  C   UNL d   1     -48.408  14.236  22.745  0.00  0.00     0.000 A 
ATOM      9  C   UNL d   1     -47.892  14.866  22.615  0.00  0.00     0.002 A 
ENDROOT
BRANCH   1  10
ATOM     10  C   UNL d   1     -45.394  12.370  22.970  0.00  0.00     0.235 C 
ATOM     11  O   UNL d   1     -44.744  12.475  22.459  0.00  0.00    -0.642 OA
ATOM     12  O   UNL d   1     -45.385  11.768  23.534  0.00  0.00    -0.642 OA
ENDBRANCH   1  10
TORSDOF 1
ENDMDL
MODEL 6
REMARK VINA RESULT:      -5.7      2.062      2.629
REMARK  1 active torsions:
REMARK  status: ('A' for Active; 'I' for Inactive)
REMARK    1  A    between atoms: C_4  and  C_1 
ROOT
ATOM      1  C   UNL d   1     -49.178  12.537  23.227  0.00  0.00     0.164 A 
ATOM      2  O   UNL d   1     -48.518  12.880  22.870  0.00  0.00    -0.301 OA
ATOM      3  C   UNL d   1     -49.717  13.135  23.399  0.00  0.00     0.033 A 
ATOM      4  C   UNL d   1     -48.651  13.694  22.822  0.00  0.00     0.100 A 
ATOM      5  C   UNL d   1     -49.395  13.851  23.150  0.00  0.00     0.025 A 
ATOM      6  C   UNL d   1     -48.196  14.311  22.524  0.00  0.00     0.025 A 
ATOM      7  C   UNL d   1     -49.681  14.626  23.178  0.00  0.00     0.002 A 
ATOM      8  C   UNL d   1     -49.219  15.251  22.876  0.00  0.00     0.000 A 
ATOM      9  C   UNL d   1     -48.478  15.094  22.550  0.00  0.00     0.002 A 
ENDROOT
BRANCH   1  10
ATOM     10  C   UNL d   1     -49.271  11.736  23.380  0.00  0.00     0.235 C 
ATOM     11  O   UNL d   1     -50.002  11.372  23.212  0.00  0.00    -0.642 OA
ATOM     12  O   UNL d   1     -48.651  11.292  23.695  0.00  0.00    -0.642 OA
ENDBRANCH   1  10
TORSDOF 1
ENDMDL
MODEL 7
REMARK VINA RESULT:      -5.7      1.161      1.467
REMARK  1 active torsions:
REMARK  status: ('A' for Active; 'I' for Inactive)
REMARK    1  A    between atoms: C_4  and  C_1 
ROOT
ATOM      1  C   UNL d   1     -47.898  13.119  22.958  0.00  0.00     0.164 A 
ATOM      2  O   UNL d   1     -48.654  13.417  22.815  0.00  0.00    -0.301 OA
ATOM      3  C   UNL d   1     -47.975  12.379  23.310  0.00  0.00     0.033 A 
ATOM      4  C   UNL d   1     -49.200  12.858  23.079  0.00  0.00     0.100 A 
ATOM      5  C   UNL d   1     -48.779  12.214  23.387  0.00  0.00     0.025 A 
ATOM      6  C   UNL d   1     -50.023  12.848  23.082  0.00  0.00     0.025 A 
ATOM      7  C   UNL d   1     -49.183  11.563  23.695  0.00  0.00     0.002 A 
ATOM      8  C   UNL d   1     -50.017  11.553  23.698  0.00  0.00     0.000 A 
ATOM      9  C   UNL d   1     -50.436  12.195  23.392  0.00  0.00     0.002 A 
ENDROOT
BRANCH   1  10
ATOM     10  C   UNL d   1     -47.195  13.503  22.777  0.00  0.00     0.235 C 
ATOM     11  O   UNL d   1     -47.118  14.314  22.954  0.00  0.00    -0.642 OA
ATOM     12  O   UNL d   1     -46.570  13.096  22.424  0.00  0.00    -0.642 OA
ENDBRANCH   1  10
TORSDOF 1
ENDMDL
MODEL 8
REMARK VINA RESULT:      -5.2      9.311     10.254
REMARK  1 active torsions:
REMARK  status: ('A' for Active; 'I' for Inactive)
REMARK    1  A    between atoms: C_4  and  C_1 
ROOT
ATOM      1  C   UNL d   1     -40.271  14.824  17.212  0.00  0.00     0.164 A 
ATOM      2  O   UNL d   1     -39.706  14.798  16.611  0.00  0.00    -0.301 OA
ATOM      3  C   UNL d   1     -40.086  14.245  17.766  0.00  0.00     0.033 A 
ATOM      4  C   UNL d   1     -39.169  14.199  16.796  0.00  0.00     0.100 A 
ATOM      5  C   UNL d   1     -39.405  13.855  17.513  0.00  0.00     0.025 A 
ATOM      6  C   UNL d   1     -38.498  13.919  16.410  0.00  0.00     0.025 A 
ATOM      7  C   UNL d   1     -38.968  13.235  17.839  0.00  0.00     0.002 A 
ATOM      8  C   UNL d   1     -38.289  12.952  17.447  0.00  0.00     0.000 A 
ATOM      9  C   UNL d   1     -38.054  13.294  16.734  0.00  0.00     0.002 A 
ENDROOT
BRANCH   1  10
ATOM     10  C   UNL d   1     -40.906  15.344  17.242  0.00  0.00     0.235 C 
ATOM     11  O   UNL d   1     -40.931  15.921  17.842  0.00  0.00    -0.642 OA
ATOM     12  O   UNL d   1     -41.514  15.299  16.685  0.00  0.00    -0.642 OA
ENDBRANCH   1  10
TORSDOF 1
ENDMDL
MODEL 9
REMARK VINA RESULT:      -5.1      8.098      8.760
REMARK  1 active torsions:
REMARK  status: ('A' for Active; 'I' for Inactive)
REMARK    1  A    between atoms: C_4  and  C_1 
ROOT
ATOM      1  C   UNL d   1     -40.632  15.080  18.110  0.00  0.00     0.164 A 
ATOM      2  O   UNL d   1     -40.726  15.751  18.582  0.00  0.00    -0.301 OA
ATOM      3  C   UNL d   1     -40.571  14.425  18.603  0.00  0.00     0.033 A 
ATOM      4  C   UNL d   1     -40.723  15.507  19.370  0.00  0.00     0.100 A 
ATOM      5  C   UNL d   1     -40.626  14.684  19.384  0.00  0.00     0.025 A 
ATOM      6  C   UNL d   1     -40.794  15.922  20.077  0.00  0.00     0.025 A 
ATOM      7  C   UNL d   1     -40.602  14.280  20.104  0.00  0.00     0.002 A 
ATOM      8  C   UNL d   1     -40.674  14.701  20.820  0.00  0.00     0.000 A 
ATOM      9  C   UNL d   1     -40.770  15.520  20.806  0.00  0.00     0.002 A 
ENDROOT
BRANCH   1  10
ATOM     10  C   UNL d   1     -40.606  15.079  17.289  0.00  0.00     0.235 C 
ATOM     11  O   UNL d   1     -39.867  15.116  16.906  0.00  0.00    -0.642 OA
ATOM     12  O   UNL d   1     -41.300  15.043  16.845  0.00  0.00    -0.642 OA
ENDBRANCH   1  10
TORSDOF 1
ENDMDL
