MODEL 1
REMARK VINA RESULT:       9.5      0.000      0.000
REMARK  4 active torsions:
REMARK  status: ('A' for Active; 'I' for Inactive)
REMARK    1  A    between atoms: C_2  and  N_1 
REMARK       I    between atoms: C_3  and  N_1 
REMARK    2  A    between atoms: N_5  and  C_2 
REMARK    3  A    between atoms: C_4  and  C_3 
REMARK    4  A    between atoms: C_7  and  N_5 
ROOT
ATOM      1  C   UNL d   1      46.153 -17.284  44.191  0.00  0.00     0.224 C 
ATOM      2  S   UNL d   1      45.781 -17.666  44.822  0.00  0.00    -0.037 SA
ENDROOT
BRANCH   1   3
ATOM      3  N   UNL d   1      46.217 -16.462  44.184  0.00  0.00    -0.177 NA
ATOM      4  C   UNL d   1      45.652 -15.996  44.565  0.00  0.00     0.304 C 
ATOM      5  O   UNL d   1      45.021 -16.359  44.955  0.00  0.00    -0.263 OA
BRANCH   4   6
ATOM      6  C   UNL d   1      45.716 -15.173  44.558  0.00  0.00     0.158 A 
ATOM      7  O   UNL d   1      46.415 -14.747  44.417  0.00  0.00    -0.300 OA
ATOM      8  C   UNL d   1      46.218 -13.941  44.464  0.00  0.00     0.123 A 
ATOM      9  C   UNL d   1      45.413 -13.878  44.631  0.00  0.00     0.029 A 
ATOM     10  C   UNL d   1      45.103 -14.641  44.689  0.00  0.00     0.032 A 
ENDBRANCH   4   6
ENDBRANCH   1   3
BRANCH   1  11
ATOM     11  N   UNL d   1      46.461 -17.735  43.565  0.00  0.00    -0.215 NA
BRANCH  11  12
ATOM     12  C   UNL d   1      46.512 -18.556  43.627  0.00  0.00     0.112 A 
ATOM     13  C   UNL d   1      46.480 -19.029  42.940  0.00  0.00     0.156 A 
ATOM     14  N   UNL d   1      46.531 -19.850  43.001  0.00  0.00    -0.231 NA
ATOM     15 CL   UNL d   1      46.396 -18.669  42.194  0.00  0.00    -0.060 Cl
ATOM     16  C   UNL d   1      46.615 -20.203  43.742  0.00  0.00     0.100 A 
ATOM     17  C   UNL d   1      46.647 -19.734  44.423  0.00  0.00     0.022 A 
ATOM     18  C   UNL d   1      46.596 -18.908  44.368  0.00  0.00     0.023 A 
ENDBRANCH  11  12
ENDBRANCH   1  11
TORSDOF 4
ENDMDL
