MODEL 1
REMARK VINA RESULT:      -7.9      0.000      0.000
REMARK  4 active torsions:
REMARK  status: ('A' for Active; 'I' for Inactive)
REMARK    1  A    between atoms: C_2  and  C_1 
REMARK    2  A    between atoms: C_13  and  N_5 
REMARK    3  A    between atoms: C_16  and  C_13 
REMARK    4  A    between atoms: C_17  and  C_16 
ROOT
ATOM      1  C   UNL d   1      52.864  32.099  53.354  0.00  0.00     0.112 A 
ATOM      2  C   UNL d   1      52.759  31.290  53.247  0.00  0.00     0.176 A 
ATOM      3  N   UNL d   1      53.412  30.898  53.579  0.00  0.00    -0.285 N 
ATOM      4  C   UNL d   1      53.582  32.207  53.752  0.00  0.00     0.219 A 
ATOM      5  C   UNL d   1      53.914  31.470  53.887  0.00  0.00     0.124 A 
ATOM      6  O   UNL d   1      53.911  32.939  53.977  0.00  0.00    -0.285 OA
ATOM      7  N   UNL d   1      52.109  30.932  52.870  0.00  0.00    -0.128 N 
ENDROOT
BRANCH   1   8
ATOM      8  C   UNL d   1      52.330  32.676  53.098  0.00  0.00     0.169 A 
ATOM      9  N   UNL d   1      52.320  33.105  52.392  0.00  0.00    -0.225 NA
ATOM     10  C   UNL d   1      51.673  33.609  52.409  0.00  0.00     0.101 A 
ATOM     11  C   UNL d   1      51.390  34.159  51.864  0.00  0.00     0.021 A 
ATOM     12  C   UNL d   1      51.279  33.496  53.126  0.00  0.00     0.101 A 
ATOM     13  C   UNL d   1      50.708  34.601  52.034  0.00  0.00     0.002 A 
ATOM     14  C   UNL d   1      50.313  34.488  52.752  0.00  0.00     0.002 A 
ATOM     15  C   UNL d   1      50.602  33.933  53.298  0.00  0.00     0.021 A 
ATOM     16  N   UNL d   1      51.685  32.922  53.547  0.00  0.00    -0.225 NA
ENDBRANCH   1   8
BRANCH   3  17
ATOM     17  C   UNL d   1      53.531  30.077  53.593  0.00  0.00     0.082 C 
BRANCH  17  18
ATOM     18  C   UNL d   1      53.538  29.687  54.306  0.00  0.00     0.019 C 
BRANCH  18  19
ATOM     19  C   UNL d   1      53.602  28.864  54.324  0.00  0.00     0.002 C 
ATOM     20  C   UNL d   1      53.458  28.461  55.022  0.00  0.00     0.000 C 
ENDBRANCH  18  19
ENDBRANCH  17  18
ENDBRANCH   3  17
TORSDOF 4
ENDMDL
MODEL 2
REMARK VINA RESULT:      -7.9      2.340      4.458
REMARK  4 active torsions:
REMARK  status: ('A' for Active; 'I' for Inactive)
REMARK    1  A    between atoms: C_2  and  C_1 
REMARK    2  A    between atoms: C_13  and  N_5 
REMARK    3  A    between atoms: C_16  and  C_13 
REMARK    4  A    between atoms: C_17  and  C_16 
ROOT
ATOM      1  C   UNL d   1      51.874  33.511  53.361  0.00  0.00     0.112 A 
ATOM      2  C   UNL d   1      51.510  34.206  53.114  0.00  0.00     0.176 A 
ATOM      3  N   UNL d   1      50.751  34.016  52.837  0.00  0.00    -0.285 N 
ATOM      4  C   UNL d   1      51.338  32.891  53.238  0.00  0.00     0.219 A 
ATOM      5  C   UNL d   1      50.653  33.205  52.917  0.00  0.00     0.124 A 
ATOM      6  O   UNL d   1      51.473  32.087  53.410  0.00  0.00    -0.285 OA
ATOM      7  N   UNL d   1      51.851  34.965  53.139  0.00  0.00    -0.128 N 
ENDROOT
BRANCH   1   8
ATOM      8  C   UNL d   1      52.638  33.470  53.673  0.00  0.00     0.169 A 
ATOM      9  N   UNL d   1      53.344  33.245  53.306  0.00  0.00    -0.225 NA
ATOM     10  C   UNL d   1      53.948  33.300  53.857  0.00  0.00     0.101 A 
ATOM     11  C   UNL d   1      54.756  33.148  53.805  0.00  0.00     0.021 A 
ATOM     12  C   UNL d   1      53.621  33.559  54.570  0.00  0.00     0.101 A 
ATOM     13  C   UNL d   1      55.244  33.254  54.469  0.00  0.00     0.002 A 
ATOM     14  C   UNL d   1      54.917  33.513  55.182  0.00  0.00     0.002 A 
ATOM     15  C   UNL d   1      54.102  33.665  55.231  0.00  0.00     0.021 A 
ATOM     16  N   UNL d   1      52.817  33.662  54.454  0.00  0.00    -0.225 NA
ENDBRANCH   1   8
BRANCH   3  17
ATOM     17  C   UNL d   1      50.195  34.553  52.536  0.00  0.00     0.082 C 
BRANCH  17  18
ATOM     18  C   UNL d   1      49.653  34.300  51.984  0.00  0.00     0.019 C 
BRANCH  18  19
ATOM     19  C   UNL d   1      49.041  34.801  51.750  0.00  0.00     0.002 C 
ATOM     20  C   UNL d   1      48.669  34.678  51.031  0.00  0.00     0.000 C 
ENDBRANCH  18  19
ENDBRANCH  17  18
ENDBRANCH   3  17
TORSDOF 4
ENDMDL
MODEL 3
REMARK VINA RESULT:      -7.7      1.965      4.522
REMARK  4 active torsions:
REMARK  status: ('A' for Active; 'I' for Inactive)
REMARK    1  A    between atoms: C_2  and  C_1 
REMARK    2  A    between atoms: C_13  and  N_5 
REMARK    3  A    between atoms: C_16  and  C_13 
REMARK    4  A    between atoms: C_17  and  C_16 
ROOT
ATOM      1  C   UNL d   1      51.842  33.997  52.937  0.00  0.00     0.112 A 
ATOM      2  C   UNL d   1      51.037  33.879  53.063  0.00  0.00     0.176 A 
ATOM      3  N   UNL d   1      50.624  34.204  52.421  0.00  0.00    -0.285 N 
ATOM      4  C   UNL d   1      51.925  34.395  52.215  0.00  0.00     0.219 A 
ATOM      5  C   UNL d   1      51.177  34.520  51.903  0.00  0.00     0.124 A 
ATOM      6  O   UNL d   1      52.644  34.629  51.866  0.00  0.00    -0.285 OA
ATOM      7  N   UNL d   1      50.703  33.498  53.724  0.00  0.00    -0.128 N 
ENDROOT
BRANCH   1   8
ATOM      8  C   UNL d   1      52.437  33.750  53.455  0.00  0.00     0.169 A 
ATOM      9  N   UNL d   1      52.786  33.005  53.536  0.00  0.00    -0.225 NA
ATOM     10  C   UNL d   1      53.349  33.051  54.131  0.00  0.00     0.101 A 
ATOM     11  C   UNL d   1      53.862  32.489  54.447  0.00  0.00     0.021 A 
ATOM     12  C   UNL d   1      53.353  33.824  54.421  0.00  0.00     0.101 A 
ATOM     13  C   UNL d   1      54.383  32.698  55.059  0.00  0.00     0.002 A 
ATOM     14  C   UNL d   1      54.387  33.471  55.349  0.00  0.00     0.002 A 
ATOM     15  C   UNL d   1      53.869  34.035  55.027  0.00  0.00     0.021 A 
ATOM     16  N   UNL d   1      52.792  34.251  54.003  0.00  0.00    -0.225 NA
ENDBRANCH   1   8
BRANCH   3  17
ATOM     17  C   UNL d   1      49.800  34.206  52.325  0.00  0.00     0.082 C 
BRANCH  17  18
ATOM     18  C   UNL d   1      49.478  34.515  51.644  0.00  0.00     0.019 C 
BRANCH  18  19
ATOM     19  C   UNL d   1      48.658  34.572  51.566  0.00  0.00     0.002 C 
ATOM     20  C   UNL d   1      48.332  34.756  50.838  0.00  0.00     0.000 C 
ENDBRANCH  18  19
ENDBRANCH  17  18
ENDBRANCH   3  17
TORSDOF 4
ENDMDL
MODEL 4
REMARK VINA RESULT:      -7.6      1.639      1.884
REMARK  4 active torsions:
REMARK  status: ('A' for Active; 'I' for Inactive)
REMARK    1  A    between atoms: C_2  and  C_1 
REMARK    2  A    between atoms: C_13  and  N_5 
REMARK    3  A    between atoms: C_16  and  C_13 
REMARK    4  A    between atoms: C_17  and  C_16 
ROOT
ATOM      1  C   UNL d   1      53.029  32.209  53.440  0.00  0.00     0.112 A 
ATOM      2  C   UNL d   1      53.528  31.650  53.779  0.00  0.00     0.176 A 
ATOM      3  N   UNL d   1      53.325  30.904  53.476  0.00  0.00    -0.285 N 
ATOM      4  C   UNL d   1      52.518  31.808  52.926  0.00  0.00     0.219 A 
ATOM      5  C   UNL d   1      52.703  31.010  52.952  0.00  0.00     0.124 A 
ATOM      6  O   UNL d   1      51.918  32.155  52.463  0.00  0.00    -0.285 OA
ATOM      7  N   UNL d   1      54.130  31.811  54.331  0.00  0.00    -0.128 N 
ENDROOT
BRANCH   1   8
ATOM      8  C   UNL d   1      53.057  33.019  53.602  0.00  0.00     0.169 A 
ATOM      9  N   UNL d   1      53.292  33.644  53.114  0.00  0.00    -0.225 NA
ATOM     10  C   UNL d   1      53.217  34.341  53.539  0.00  0.00     0.101 A 
ATOM     11  C   UNL d   1      53.368  35.126  53.339  0.00  0.00     0.021 A 
ATOM     12  C   UNL d   1      52.936  34.153  54.293  0.00  0.00     0.101 A 
ATOM     13  C   UNL d   1      53.239  35.731  53.894  0.00  0.00     0.002 A 
ATOM     14  C   UNL d   1      52.957  35.543  54.647  0.00  0.00     0.002 A 
ATOM     15  C   UNL d   1      52.806  34.750  54.846  0.00  0.00     0.021 A 
ATOM     16  N   UNL d   1      52.839  33.341  54.328  0.00  0.00    -0.225 NA
ENDBRANCH   1   8
BRANCH   3  17
ATOM     17  C   UNL d   1      53.689  30.184  53.671  0.00  0.00     0.082 C 
BRANCH  17  18
ATOM     18  C   UNL d   1      53.247  29.591  54.009  0.00  0.00     0.019 C 
BRANCH  18  19
ATOM     19  C   UNL d   1      53.613  28.892  54.249  0.00  0.00     0.002 C 
ATOM     20  C   UNL d   1      53.348  28.506  54.921  0.00  0.00     0.000 C 
ENDBRANCH  18  19
ENDBRANCH  17  18
ENDBRANCH   3  17
TORSDOF 4
ENDMDL
MODEL 5
REMARK VINA RESULT:      -7.1      2.177      2.807
REMARK  4 active torsions:
REMARK  status: ('A' for Active; 'I' for Inactive)
REMARK    1  A    between atoms: C_2  and  C_1 
REMARK    2  A    between atoms: C_13  and  N_5 
REMARK    3  A    between atoms: C_16  and  C_13 
REMARK    4  A    between atoms: C_17  and  C_16 
ROOT
ATOM      1  C   UNL d   1      51.912  33.623  53.056  0.00  0.00     0.112 A 
ATOM      2  C   UNL d   1      52.531  34.096  53.320  0.00  0.00     0.176 A 
ATOM      3  N   UNL d   1      53.125  33.601  53.622  0.00  0.00    -0.285 N 
ATOM      4  C   UNL d   1      52.125  32.835  53.195  0.00  0.00     0.219 A 
ATOM      5  C   UNL d   1      52.867  32.826  53.541  0.00  0.00     0.124 A 
ATOM      6  O   UNL d   1      51.663  32.164  53.014  0.00  0.00    -0.285 OA
ATOM      7  N   UNL d   1      52.551  34.928  53.288  0.00  0.00    -0.128 N 
ENDROOT
BRANCH   1   8
ATOM      8  C   UNL d   1      51.215  33.912  52.718  0.00  0.00     0.169 A 
ATOM      9  N   UNL d   1      50.995  33.948  51.922  0.00  0.00    -0.225 NA
ATOM     10  C   UNL d   1      50.248  34.283  51.879  0.00  0.00     0.101 A 
ATOM     11  C   UNL d   1      49.758  34.455  51.239  0.00  0.00     0.021 A 
ATOM     12  C   UNL d   1      50.000  34.457  52.648  0.00  0.00     0.101 A 
ATOM     13  C   UNL d   1      49.013  34.802  51.366  0.00  0.00     0.002 A 
ATOM     14  C   UNL d   1      48.766  34.975  52.134  0.00  0.00     0.002 A 
ATOM     15  C   UNL d   1      49.263  34.801  52.777  0.00  0.00     0.021 A 
ATOM     16  N   UNL d   1      50.597  34.227  53.160  0.00  0.00    -0.225 NA
ENDBRANCH   1   8
BRANCH   3  17
ATOM     17  C   UNL d   1      53.848  33.850  53.945  0.00  0.00     0.082 C 
BRANCH  17  18
ATOM     18  C   UNL d   1      54.190  33.415  54.542  0.00  0.00     0.019 C 
BRANCH  18  19
ATOM     19  C   UNL d   1      54.964  33.577  54.776  0.00  0.00     0.002 C 
ATOM     20  C   UNL d   1      55.130  33.700  55.568  0.00  0.00     0.000 C 
ENDBRANCH  18  19
ENDBRANCH  17  18
ENDBRANCH   3  17
TORSDOF 4
ENDMDL
MODEL 6
REMARK VINA RESULT:      -7.1      1.644      4.179
REMARK  4 active torsions:
REMARK  status: ('A' for Active; 'I' for Inactive)
REMARK    1  A    between atoms: C_2  and  C_1 
REMARK    2  A    between atoms: C_13  and  N_5 
REMARK    3  A    between atoms: C_16  and  C_13 
REMARK    4  A    between atoms: C_17  and  C_16 
ROOT
ATOM      1  C   UNL d   1      53.461  32.628  53.555  0.00  0.00     0.112 A 
ATOM      2  C   UNL d   1      52.873  33.192  53.671  0.00  0.00     0.176 A 
ATOM      3  N   UNL d   1      53.235  33.939  53.702  0.00  0.00    -0.285 N 
ATOM      4  C   UNL d   1      54.185  33.027  53.516  0.00  0.00     0.219 A 
ATOM      5  C   UNL d   1      54.042  33.829  53.606  0.00  0.00     0.124 A 
ATOM      6  O   UNL d   1      54.932  32.674  53.403  0.00  0.00    -0.285 OA
ATOM      7  N   UNL d   1      52.059  33.034  53.742  0.00  0.00    -0.128 N 
ENDROOT
BRANCH   1   8
ATOM      8  C   UNL d   1      53.322  31.816  53.494  0.00  0.00     0.169 A 
ATOM      9  N   UNL d   1      53.002  31.385  52.865  0.00  0.00    -0.225 NA
ATOM     10  C   UNL d   1      52.981  30.594  53.082  0.00  0.00     0.101 A 
ATOM     11  C   UNL d   1      52.722  29.921  52.684  0.00  0.00     0.021 A 
ATOM     12  C   UNL d   1      53.287  30.530  53.847  0.00  0.00     0.101 A 
ATOM     13  C   UNL d   1      52.768  29.176  53.049  0.00  0.00     0.002 A 
ATOM     14  C   UNL d   1      53.075  29.112  53.814  0.00  0.00     0.002 A 
ATOM     15  C   UNL d   1      53.335  29.793  54.212  0.00  0.00     0.021 A 
ATOM     16  N   UNL d   1      53.495  31.282  54.096  0.00  0.00    -0.225 NA
ENDBRANCH   1   8
BRANCH   3  17
ATOM     17  C   UNL d   1      52.845  34.664  53.812  0.00  0.00     0.082 C 
BRANCH  17  18
ATOM     18  C   UNL d   1      53.196  35.242  54.263  0.00  0.00     0.019 C 
BRANCH  18  19
ATOM     19  C   UNL d   1      52.761  35.904  54.495  0.00  0.00     0.002 C 
ATOM     20  C   UNL d   1      53.123  36.496  54.929  0.00  0.00     0.000 C 
ENDBRANCH  18  19
ENDBRANCH  17  18
ENDBRANCH   3  17
TORSDOF 4
ENDMDL
