MODEL 1
REMARK VINA RESULT:      88.0      0.000      0.000
REMARK  7 active torsions:
REMARK  status: ('A' for Active; 'I' for Inactive)
REMARK    1  A    between atoms: C_11  and  C_3 
REMARK    2  A    between atoms: N_12  and  C_7 
REMARK       I    between atoms: C_9  and  N_15 
REMARK    3  A    between atoms: C_14  and  C_9 
REMARK    4  A    between atoms: C_16  and  C_11 
REMARK    5  A    between atoms: C_17  and  N_12 
REMARK    6  A    between atoms: N_15  and  C_16 
REMARK    7  A    between atoms: C_19  and  C_17 
ROOT
ATOM      1  N   UNL d   1      61.154  47.874  50.460  0.00  0.00    -0.190 N 
ATOM      2  C   UNL d   1      61.861  48.280  50.315  0.00  0.00     0.187 A 
ATOM      3  C   UNL d   1      61.296  47.056  50.369  0.00  0.00     0.188 A 
ATOM      4  N   UNL d   1      60.470  48.308  50.657  0.00  0.00    -0.143 NA
ATOM      5  N   UNL d   1      62.440  47.707  50.134  0.00  0.00    -0.127 NA
ATOM      6  N   UNL d   1      62.082  46.966  50.170  0.00  0.00    -0.127 NA
ATOM      7  C   UNL d   1      60.498  49.131  50.707  0.00  0.00     0.182 A 
ATOM      8  C   UNL d   1      61.890  49.103  50.365  0.00  0.00     0.044 A 
ATOM      9  C   UNL d   1      61.212  49.528  50.560  0.00  0.00     0.044 A 
ENDROOT
BRANCH   3  10
ATOM     10  C   UNL d   1      60.744  46.448  50.462  0.00  0.00     0.061 C 
BRANCH  10  11
ATOM     11  C   UNL d   1      60.996  45.666  50.504  0.00  0.00     0.105 C 
BRANCH  11  12
ATOM     12  N   UNL d   1      60.743  45.193  51.132  0.00  0.00    -0.206 NA
ATOM     13  C   UNL d   1      60.907  44.380  51.122  0.00  0.00     0.279 C 
ATOM     14  O   UNL d   1      60.652  43.908  51.755  0.00  0.00    -0.265 OA
BRANCH  13  15
ATOM     15  C   UNL d   1      61.317  44.053  50.491  0.00  0.00     0.058 A 
ATOM     16  C   UNL d   1      61.102  44.231  49.707  0.00  0.00     0.005 A 
ATOM     17  C   UNL d   1      61.517  43.900  49.089  0.00  0.00     0.000 A 
ATOM     18  C   UNL d   1      62.143  43.394  49.238  0.00  0.00     0.000 A 
ATOM     19  C   UNL d   1      62.364  43.211  49.998  0.00  0.00     0.000 A 
ATOM     20  C   UNL d   1      61.951  43.541  50.636  0.00  0.00     0.005 A 
ENDBRANCH  13  15
ENDBRANCH  11  12
ENDBRANCH  10  11
ENDBRANCH   3  10
BRANCH   7  21
ATOM     21  N   UNL d   1      59.821  49.569  50.903  0.00  0.00    -0.224 NA
BRANCH  21  22
ATOM     22  C   UNL d   1      59.251  49.699  50.318  0.00  0.00     0.101 C 
BRANCH  22  23
ATOM     23  C   UNL d   1      58.447  49.680  50.503  0.00  0.00     0.019 A 
ATOM     24  C   UNL d   1      57.881  49.638  49.895  0.00  0.00     0.002 A 
ATOM     25  C   UNL d   1      57.080  49.619  50.093  0.00  0.00     0.011 A 
ATOM     26  C   UNL d   1      56.837  49.641  50.879  0.00  0.00     0.058 A 
ATOM     27  C   UNL d   1      57.404  49.683  51.487  0.00  0.00     0.011 A 
ATOM     28 CL   UNL d   1      56.036  49.622  51.077  0.00  0.00    -0.082 Cl
ATOM     29  C   UNL d   1      58.206  49.702  51.294  0.00  0.00     0.002 A 
ENDBRANCH  22  23
ENDBRANCH  21  22
ENDBRANCH   7  21
TORSDOF 7
ENDMDL
