MODEL 1
REMARK VINA RESULT:      20.8      0.000      0.000
REMARK  4 active torsions:
REMARK  status: ('A' for Active; 'I' for Inactive)
REMARK    1  A    between atoms: C_10  and  C_3 
REMARK    2  A    between atoms: C_11  and  N_5 
REMARK    3  A    between atoms: O_17  and  C_10 
REMARK    4  A    between atoms: C_21  and  O_17 
ROOT
ATOM      1  C   UNL d   1      46.383 -19.046  43.809  0.00  0.00     0.086 A 
ATOM      2  C   UNL d   1      46.488 -19.126  42.998  0.00  0.00     0.038 A 
ATOM      3  C   UNL d   1      46.426 -18.467  42.506  0.00  0.00     0.165 A 
ATOM      4  C   UNL d   1      46.215 -18.303  44.134  0.00  0.00     0.282 A 
ATOM      5  N   UNL d   1      46.152 -17.646  43.646  0.00  0.00    -0.194 N 
ATOM      6  N   UNL d   1      46.257 -17.724  42.831  0.00  0.00    -0.157 NA
ATOM      7  C   UNL d   1      46.478 -19.794  44.148  0.00  0.00     0.137 A 
ATOM      8  C   UNL d   1      46.647 -19.921  42.841  0.00  0.00     0.039 A 
ATOM      9  S   UNL d   1      46.640 -20.328  43.547  0.00  0.00    -0.066 SA
ATOM     10  O   UNL d   1      46.108 -18.220  44.955  0.00  0.00    -0.265 OA
ATOM     11  N   UNL d   1      46.423 -19.992  44.955  0.00  0.00    -0.141 N 
ENDROOT
BRANCH   5  12
ATOM     12  C   UNL d   1      45.985 -16.907  43.969  0.00  0.00     0.086 A 
ATOM     13  C   UNL d   1      46.458 -16.258  43.780  0.00  0.00     0.019 A 
ATOM     14  C   UNL d   1      46.289 -15.513  44.106  0.00  0.00     0.002 A 
ATOM     15  C   UNL d   1      45.649 -15.423  44.618  0.00  0.00     0.000 A 
ATOM     16  C   UNL d   1      45.179 -16.070  44.805  0.00  0.00     0.002 A 
ATOM     17  C   UNL d   1      45.481 -14.685  44.941  0.00  0.00     0.000 C 
ATOM     18  C   UNL d   1      45.348 -16.816  44.479  0.00  0.00     0.019 A 
ENDBRANCH   5  12
BRANCH   3  19
ATOM     19  C   UNL d   1      46.532 -18.550  41.685  0.00  0.00     0.320 C 
ATOM     20  O   UNL d   1      46.606 -17.882  41.214  0.00  0.00    -0.257 OA
BRANCH  19  21
ATOM     21  O   UNL d   1      46.564 -19.304  41.344  0.00  0.00    -0.270 OA
BRANCH  21  22
ATOM     22  C   UNL d   1      46.578 -19.385  40.527  0.00  0.00     0.126 C 
ATOM     23  C   UNL d   1      46.647 -20.140  40.184  0.00  0.00     0.029 C 
ENDBRANCH  21  22
ENDBRANCH  19  21
ENDBRANCH   3  19
TORSDOF 4
ENDMDL
