MODEL 1
REMARK VINA RESULT:      74.6      0.000      0.000
REMARK  5 active torsions:
REMARK  status: ('A' for Active; 'I' for Inactive)
REMARK    1  A    between atoms: N_2  and  C_1 
REMARK       I    between atoms: C_7  and  N_2 
REMARK    2  A    between atoms: C_21  and  N_3 
REMARK    3  A    between atoms: C_8  and  C_7 
REMARK       I    between atoms: C_12  and  N_13 
REMARK    4  A    between atoms: N_13  and  C_14 
REMARK    5  A    between atoms: C_20  and  C_21 
ROOT
ATOM      1  C   UNL d   1      58.027  49.665  52.663  0.00  0.00     0.182 A 
ATOM      2  N   UNL d   1      57.840  49.667  51.865  0.00  0.00    -0.285 N 
ATOM      3  S   UNL d   1      58.847  49.669  52.732  0.00  0.00    -0.048 SA
ATOM      4  C   UNL d   1      59.169  49.674  51.970  0.00  0.00     0.050 A 
ATOM      5  C   UNL d   1      58.544  49.672  51.432  0.00  0.00     0.072 A 
ATOM      6  C   UNL d   1      59.946  49.679  51.699  0.00  0.00     0.027 A 
ATOM      7  C   UNL d   1      58.696  49.676  50.622  0.00  0.00     0.020 A 
ATOM      8  C   UNL d   1      60.099  49.683  50.891  0.00  0.00     0.085 A 
ATOM      9  C   UNL d   1      59.474  49.681  50.352  0.00  0.00     0.021 A 
ENDROOT
BRANCH   1  10
ATOM     10  N   UNL d   1      57.482  49.660  53.282  0.00  0.00    -0.183 NA
ATOM     11  C   UNL d   1      57.637  49.212  53.955  0.00  0.00     0.287 C 
ATOM     12  O   UNL d   1      58.333  48.774  54.004  0.00  0.00    -0.265 OA
BRANCH  11  13
ATOM     13  C   UNL d   1      57.097  49.202  54.579  0.00  0.00     0.087 A 
ATOM     14  S   UNL d   1      56.415  48.736  54.632  0.00  0.00    -0.082 SA
ATOM     15  C   UNL d   1      56.035  48.899  55.347  0.00  0.00     0.036 A 
ATOM     16  C   UNL d   1      56.484  49.469  55.739  0.00  0.00     0.008 A 
ATOM     17  C   UNL d   1      57.139  49.659  55.273  0.00  0.00     0.012 A 
ENDBRANCH  11  13
ENDBRANCH   1  10
BRANCH   2  18
ATOM     18  C   UNL d   1      57.080  49.664  51.539  0.00  0.00     0.082 C 
BRANCH  18  19
ATOM     19  C   UNL d   1      56.656  48.962  51.477  0.00  0.00     0.019 C 
ATOM     20  C   UNL d   1      56.308  48.750  50.764  0.00  0.00     0.002 C 
ENDBRANCH  18  19
ENDBRANCH   2  18
BRANCH   8  21
ATOM     21  N   UNL d   1      60.887  49.688  50.613  0.00  0.00    -0.208 NA
ATOM     22  C   UNL d   1      61.276  48.983  50.484  0.00  0.00     0.279 C 
ATOM     23  O   UNL d   1      62.053  48.990  50.210  0.00  0.00    -0.265 OA
ATOM     24  C   UNL d   1      60.903  48.260  50.623  0.00  0.00     0.068 C 
ENDBRANCH   8  21
TORSDOF 5
ENDMDL
MODEL 2
REMARK VINA RESULT:      77.0      2.628      3.609
REMARK  5 active torsions:
REMARK  status: ('A' for Active; 'I' for Inactive)
REMARK    1  A    between atoms: N_2  and  C_1 
REMARK       I    between atoms: C_7  and  N_2 
REMARK    2  A    between atoms: C_21  and  N_3 
REMARK    3  A    between atoms: C_8  and  C_7 
REMARK       I    between atoms: C_12  and  N_13 
REMARK    4  A    between atoms: N_13  and  C_14 
REMARK    5  A    between atoms: C_20  and  C_21 
ROOT
ATOM      1  C   UNL d   1      59.475  48.858  50.585  0.00  0.00     0.182 A 
ATOM      2  N   UNL d   1      60.141  49.060  51.019  0.00  0.00    -0.285 N 
ATOM      3  S   UNL d   1      59.691  48.276  50.044  0.00  0.00    -0.048 SA
ATOM      4  C   UNL d   1      60.497  48.118  50.146  0.00  0.00     0.050 A 
ATOM      5  C   UNL d   1      60.776  48.605  50.751  0.00  0.00     0.072 A 
ATOM      6  C   UNL d   1      61.009  47.597  49.767  0.00  0.00     0.027 A 
ATOM      7  C   UNL d   1      61.567  48.569  50.978  0.00  0.00     0.020 A 
ATOM      8  C   UNL d   1      61.799  47.561  49.993  0.00  0.00     0.085 A 
ATOM      9  C   UNL d   1      62.078  48.047  50.598  0.00  0.00     0.021 A 
ENDROOT
BRANCH   1  10
ATOM     10  N   UNL d   1      58.724  49.185  50.679  0.00  0.00    -0.183 NA
ATOM     11  C   UNL d   1      58.087  48.867  50.266  0.00  0.00     0.287 C 
ATOM     12  O   UNL d   1      58.206  48.225  49.763  0.00  0.00    -0.265 OA
BRANCH  11  13
ATOM     13  C   UNL d   1      57.333  49.189  50.355  0.00  0.00     0.087 A 
ATOM     14  S   UNL d   1      56.808  49.388  49.747  0.00  0.00    -0.082 SA
ATOM     15  C   UNL d   1      56.117  49.692  50.080  0.00  0.00     0.036 A 
ATOM     16  C   UNL d   1      56.213  49.681  50.899  0.00  0.00     0.008 A 
ATOM     17  C   UNL d   1      56.959  49.373  51.075  0.00  0.00     0.012 A 
ENDBRANCH  11  13
ENDBRANCH   1  10
BRANCH   2  18
ATOM     18  C   UNL d   1      60.179  49.622  51.624  0.00  0.00     0.082 C 
BRANCH  18  19
ATOM     19  C   UNL d   1      60.638  49.485  52.293  0.00  0.00     0.019 C 
ATOM     20  C   UNL d   1      60.343  49.654  53.040  0.00  0.00     0.002 C 
ENDBRANCH  18  19
ENDBRANCH   2  18
BRANCH   8  21
ATOM     21  N   UNL d   1      62.321  47.032  49.610  0.00  0.00    -0.208 NA
ATOM     22  C   UNL d   1      62.036  46.333  49.302  0.00  0.00     0.279 C 
ATOM     23  O   UNL d   1      62.553  45.814  48.925  0.00  0.00    -0.265 OA
ATOM     24  C   UNL d   1      61.237  46.138  49.361  0.00  0.00     0.068 C 
ENDBRANCH   8  21
TORSDOF 5
ENDMDL
