MODEL 1
REMARK VINA RESULT:      32.9      0.000      0.000
REMARK  4 active torsions:
REMARK  status: ('A' for Active; 'I' for Inactive)
REMARK    1  A    between atoms: C_2  and  S_1 
REMARK    2  A    between atoms: N_3  and  S_1 
REMARK    3  A    between atoms: C_18  and  N_8 
REMARK    4  A    between atoms: C_21  and  C_18 
ROOT
ATOM      1  S   UNL d   1      58.870  49.664  50.666  0.00  0.00     0.271 S 
ATOM      2  O   UNL d   1      58.454  49.627  51.377  0.00  0.00    -0.200 OA
ATOM      3  O   UNL d   1      59.284  49.700  49.953  0.00  0.00    -0.200 OA
ENDROOT
BRANCH   1   4
ATOM      4  C   UNL d   1      58.163  49.665  50.242  0.00  0.00     0.104 A 
ATOM      5  C   UNL d   1      58.182  49.683  49.409  0.00  0.00     0.012 A 
ATOM      6  C   UNL d   1      57.478  49.684  48.978  0.00  0.00     0.001 A 
ATOM      7  C   UNL d   1      58.908  49.698  49.014  0.00  0.00     0.001 C 
ATOM      8  C   UNL d   1      56.758  49.669  49.377  0.00  0.00     0.000 A 
ATOM      9  C   UNL d   1      56.738  49.651  50.205  0.00  0.00     0.001 A 
ATOM     10  C   UNL d   1      56.052  49.670  48.949  0.00  0.00     0.000 C 
ATOM     11  C   UNL d   1      57.444  49.650  50.633  0.00  0.00     0.012 A 
ATOM     12  C   UNL d   1      57.420  49.633  51.458  0.00  0.00     0.001 C 
ENDBRANCH   1   4
BRANCH   1  13
ATOM     13  N   UNL d   1      59.585  49.663  51.079  0.00  0.00    -0.226 N 
ATOM     14  C   UNL d   1      60.299  49.617  50.662  0.00  0.00     0.111 A 
ATOM     15  C   UNL d   1      61.013  49.616  51.075  0.00  0.00     0.100 A 
ATOM     16  N   UNL d   1      61.018  49.661  51.897  0.00  0.00    -0.297 N 
ATOM     17  C   UNL d   1      60.301  49.706  52.311  0.00  0.00     0.100 A 
ATOM     18  C   UNL d   1      59.582  49.708  51.906  0.00  0.00     0.111 A 
BRANCH  16  19
ATOM     19  C   UNL d   1      61.735  49.659  52.305  0.00  0.00     0.126 C 
BRANCH  19  20
ATOM     20  C   UNL d   1      61.743  49.700  53.128  0.00  0.00     0.253 C 
ATOM     21  O   UNL d   1      62.344  49.329  53.555  0.00  0.00    -0.281 OA
ENDBRANCH  19  20
ENDBRANCH  16  19
ENDBRANCH   1  13
TORSDOF 4
ENDMDL
