MODEL 1
REMARK VINA RESULT:      -3.2      0.000      0.000
REMARK  7 active torsions:
REMARK  status: ('A' for Active; 'I' for Inactive)
REMARK    1  A    between atoms: N_4  and  C_1 
REMARK    2  A    between atoms: N_8  and  C_1 
REMARK    3  A    between atoms: C_2  and  C_3 
REMARK    4  A    between atoms: C_5  and  C_2 
REMARK    5  A    between atoms: N_6  and  C_2 
REMARK    6  A    between atoms: C_3  and  N_4 
REMARK    7  A    between atoms: C_14  and  N_8 
ROOT
ATOM      1  C   UNL d   1      58.518  -0.050  30.007  0.00  0.00     0.100 C 
ATOM      2  C   UNL d   1      58.109   0.434  29.487  0.00  0.00     0.022 C 
ENDROOT
BRANCH   1   3
ATOM      3  C   UNL d   1      59.196  -0.445  29.754  0.00  0.00     0.088 C 
BRANCH   3   4
ATOM      4  C   UNL d   1      59.927  -0.062  29.767  0.00  0.00     0.047 A 
ATOM      5  S   UNL d   1      60.254   0.401  29.162  0.00  0.00    -0.085 SA
ATOM      6  C   UNL d   1      60.990   0.673  29.414  0.00  0.00     0.035 A 
ATOM      7  C   UNL d   1      61.133   0.384  30.176  0.00  0.00     0.007 A 
ATOM      8  C   UNL d   1      60.473  -0.075  30.401  0.00  0.00     0.009 A 
ENDBRANCH   3   4
BRANCH   3   9
ATOM      9  N   UNL d   1      59.149  -1.229  29.484  0.00  0.00    -0.299 N 
ATOM     10  C   UNL d   1      59.383  -1.845  29.969  0.00  0.00     0.107 A 
ATOM     11  C   UNL d   1      59.340  -2.626  29.711  0.00  0.00     0.142 A 
ATOM     12  O   UNL d   1      59.055  -2.800  28.947  0.00  0.00    -0.300 OA
ATOM     13  C   UNL d   1      58.817  -2.171  28.455  0.00  0.00     0.142 A 
ATOM     14  C   UNL d   1      58.864  -1.390  28.723  0.00  0.00     0.107 A 
ENDBRANCH   3   9
ENDBRANCH   1   3
BRANCH   1  15
ATOM     15  N   UNL d   1      58.258  -0.147  30.782  0.00  0.00    -0.216 NA
BRANCH  15  16
ATOM     16  C   UNL d   1      57.641   0.326  31.074  0.00  0.00     0.221 C 
ATOM     17  S   UNL d   1      57.116   0.681  30.546  0.00  0.00    -0.037 SA
BRANCH  16  18
ATOM     18  N   UNL d   1      57.557   0.437  31.886  0.00  0.00    -0.217 NA
BRANCH  18  19
ATOM     19  C   UNL d   1      56.905   0.124  32.288  0.00  0.00     0.084 A 
ATOM     20  C   UNL d   1      56.424   0.626  32.745  0.00  0.00     0.021 A 
ATOM     21  C   UNL d   1      55.786   0.313  33.137  0.00  0.00     0.031 A 
ATOM     22  C   UNL d   1      55.609  -0.495  33.087  0.00  0.00     0.140 A 
ATOM     23  C   UNL d   1      56.089  -0.989  32.632  0.00  0.00     0.031 A 
ATOM     24  F   UNL d   1      54.953  -0.804  33.492  0.00  0.00    -0.204 F 
ATOM     25  C   UNL d   1      56.735  -0.678  32.234  0.00  0.00     0.021 A 
ENDBRANCH  18  19
ENDBRANCH  16  18
ENDBRANCH  15  16
ENDBRANCH   1  15
TORSDOF 7
ENDMDL
MODEL 2
REMARK VINA RESULT:      -2.5      1.230      2.108
REMARK  7 active torsions:
REMARK  status: ('A' for Active; 'I' for Inactive)
REMARK    1  A    between atoms: N_4  and  C_1 
REMARK    2  A    between atoms: N_8  and  C_1 
REMARK    3  A    between atoms: C_2  and  C_3 
REMARK    4  A    between atoms: C_5  and  C_2 
REMARK    5  A    between atoms: N_6  and  C_2 
REMARK    6  A    between atoms: C_3  and  N_4 
REMARK    7  A    between atoms: C_14  and  N_8 
ROOT
ATOM      1  C   UNL d   1      58.455  -0.785  29.640  0.00  0.00     0.100 C 
ATOM      2  C   UNL d   1      57.840  -0.802  29.097  0.00  0.00     0.022 C 
ENDROOT
BRANCH   1   3
ATOM      3  C   UNL d   1      59.209  -1.031  29.414  0.00  0.00     0.088 C 
BRANCH   3   4
ATOM      4  C   UNL d   1      59.339  -1.814  29.187  0.00  0.00     0.047 A 
ATOM      5  S   UNL d   1      59.147  -2.156  28.457  0.00  0.00    -0.085 SA
ATOM      6  C   UNL d   1      59.375  -2.947  28.474  0.00  0.00     0.035 A 
ATOM      7  C   UNL d   1      59.711  -3.111  29.212  0.00  0.00     0.007 A 
ATOM      8  C   UNL d   1      59.691  -2.407  29.661  0.00  0.00     0.009 A 
ENDBRANCH   3   4
BRANCH   3   9
ATOM      9  N   UNL d   1      59.843  -0.493  29.413  0.00  0.00    -0.299 N 
ATOM     10  C   UNL d   1      60.355  -0.462  30.050  0.00  0.00     0.107 A 
ATOM     11  C   UNL d   1      60.986   0.067  30.058  0.00  0.00     0.142 A 
ATOM     12  O   UNL d   1      61.111   0.582  29.414  0.00  0.00    -0.300 OA
ATOM     13  C   UNL d   1      60.587   0.548  28.767  0.00  0.00     0.142 A 
ATOM     14  C   UNL d   1      59.957   0.013  28.768  0.00  0.00     0.107 A 
ENDBRANCH   3   9
ENDBRANCH   1   3
BRANCH   1  15
ATOM     15  N   UNL d   1      58.327  -0.524  30.410  0.00  0.00    -0.216 NA
BRANCH  15  16
ATOM     16  C   UNL d   1      57.559  -0.330  30.659  0.00  0.00     0.221 C 
ATOM     17  S   UNL d   1      57.233   0.395  30.443  0.00  0.00    -0.037 SA
BRANCH  16  18
ATOM     18  N   UNL d   1      57.130  -0.863  31.119  0.00  0.00    -0.217 NA
BRANCH  18  19
ATOM     19  C   UNL d   1      56.777  -0.619  31.826  0.00  0.00     0.084 A 
ATOM     20  C   UNL d   1      56.441  -1.184  32.335  0.00  0.00     0.021 A 
ATOM     21  C   UNL d   1      56.096  -0.938  33.027  0.00  0.00     0.031 A 
ATOM     22  C   UNL d   1      56.075  -0.135  33.231  0.00  0.00     0.140 A 
ATOM     23  C   UNL d   1      56.409   0.422  32.723  0.00  0.00     0.031 A 
ATOM     24  F   UNL d   1      55.719   0.105  33.942  0.00  0.00    -0.204 F 
ATOM     25  C   UNL d   1      56.758   0.179  32.022  0.00  0.00     0.021 A 
ENDBRANCH  18  19
ENDBRANCH  16  18
ENDBRANCH  15  16
ENDBRANCH   1  15
TORSDOF 7
ENDMDL
