MODEL 1
REMARK VINA RESULT:      60.2      0.000      0.000
REMARK  4 active torsions:
REMARK  status: ('A' for Active; 'I' for Inactive)
REMARK    1  A    between atoms: N_7  and  C_1 
REMARK    2  A    between atoms: C_11  and  C_2 
REMARK       I    between atoms: C_8  and  N_7 
REMARK    3  A    between atoms: C_13  and  C_8 
REMARK    4  A    between atoms: N_9  and  C_13 
ROOT
ATOM      1  C   UNL d   1      13.782  12.992  -2.260  0.00  0.00     0.142 A 
ATOM      2  C   UNL d   1      13.721  13.380  -2.978  0.00  0.00     0.024 A 
ATOM      3  C   UNL d   1      13.578  12.194  -2.212  0.00  0.00     0.297 A 
ATOM      4  C   UNL d   1      13.461  12.989  -3.652  0.00  0.00     0.020 A 
ATOM      5  N   UNL d   1      13.314  11.784  -2.881  0.00  0.00    -0.207 NA
ATOM      6  C   UNL d   1      13.258  12.191  -3.603  0.00  0.00     0.085 A 
ATOM      7  C   UNL d   1      13.402  13.377  -4.366  0.00  0.00     0.008 A 
ATOM      8  O   UNL d   1      13.635  11.786  -1.486  0.00  0.00    -0.264 OA
ATOM      9  C   UNL d   1      12.994  11.781  -4.268  0.00  0.00     0.020 A 
ATOM     10  C   UNL d   1      13.142  12.987  -5.036  0.00  0.00     0.035 A 
ATOM     11  C   UNL d   1      12.939  12.189  -4.987  0.00  0.00     0.008 A 
ATOM     12 BR   UNL d   1      13.076  13.374  -5.778  0.00  0.00    -0.049 Br
ENDROOT
BRANCH   1  13
ATOM     13  N   UNL d   1      14.046  13.382  -1.570  0.00  0.00    -0.202 NA
ATOM     14  C   UNL d   1      14.129  12.937  -0.859  0.00  0.00     0.297 C 
ATOM     15  O   UNL d   1      13.982  12.297  -0.879  0.00  0.00    -0.264 OA
BRANCH  14  16
ATOM     16  C   UNL d   1      14.388  13.320  -0.182  0.00  0.00     0.144 C 
BRANCH  16  17
ATOM     17  N   UNL d   1      15.194  13.536  -0.126  0.00  0.00    -0.295 N 
ATOM     18  C   UNL d   1      15.769  12.954  -0.083  0.00  0.00     0.107 A 
ATOM     19  C   UNL d   1      16.581  13.172  -0.026  0.00  0.00     0.142 A 
ATOM     20  O   UNL d   1      16.794  13.967  -0.015  0.00  0.00    -0.300 OA
ATOM     21  C   UNL d   1      16.187  14.562  -0.061  0.00  0.00     0.142 A 
ATOM     22  C   UNL d   1      15.399  14.336  -0.115  0.00  0.00     0.107 A 
ENDBRANCH  16  17
ENDBRANCH  14  16
ENDBRANCH   1  13
BRANCH   2  23
ATOM     23  C   UNL d   1      13.930  14.195  -3.028  0.00  0.00     0.002 A 
ATOM     24  C   UNL d   1      14.718  14.412  -3.099  0.00  0.00     0.000 A 
ATOM     25  C   UNL d   1      14.921  15.206  -3.148  0.00  0.00     0.000 A 
ATOM     26  C   UNL d   1      14.341  15.805  -3.126  0.00  0.00     0.000 A 
ATOM     27  C   UNL d   1      13.542  15.564  -3.052  0.00  0.00     0.000 A 
ATOM     28  C   UNL d   1      13.339  14.770  -3.004  0.00  0.00     0.000 A 
ENDBRANCH   2  23
TORSDOF 4
ENDMDL
MODEL 2
REMARK VINA RESULT:      61.5      1.702      3.938
REMARK  4 active torsions:
REMARK  status: ('A' for Active; 'I' for Inactive)
REMARK    1  A    between atoms: N_7  and  C_1 
REMARK    2  A    between atoms: C_11  and  C_2 
REMARK       I    between atoms: C_8  and  N_7 
REMARK    3  A    between atoms: C_13  and  C_8 
REMARK    4  A    between atoms: N_9  and  C_13 
ROOT
ATOM      1  C   UNL d   1      13.879  13.092  -1.970  0.00  0.00     0.142 A 
ATOM      2  C   UNL d   1      14.232  13.829  -1.930  0.00  0.00     0.024 A 
ATOM      3  C   UNL d   1      14.037  12.535  -1.383  0.00  0.00     0.297 A 
ATOM      4  C   UNL d   1      14.740  14.025  -1.315  0.00  0.00     0.020 A 
ATOM      5  N   UNL d   1      14.546  12.714  -0.755  0.00  0.00    -0.207 NA
ATOM      6  C   UNL d   1      14.897  13.467  -0.728  0.00  0.00     0.085 A 
ATOM      7  C   UNL d   1      15.090  14.759  -1.276  0.00  0.00     0.008 A 
ATOM      8  O   UNL d   1      13.684  11.779  -1.412  0.00  0.00    -0.264 OA
ATOM      9  C   UNL d   1      15.404  13.644  -0.102  0.00  0.00     0.020 A 
ATOM     10  C   UNL d   1      15.595  14.952  -0.663  0.00  0.00     0.035 A 
ATOM     11  C   UNL d   1      15.753  14.394  -0.076  0.00  0.00     0.008 A 
ATOM     12 BR   UNL d   1      15.963  15.705  -0.611  0.00  0.00    -0.049 Br
ENDROOT
BRANCH   1  13
ATOM     13  N   UNL d   1      13.361  12.886  -2.593  0.00  0.00    -0.202 NA
ATOM     14  C   UNL d   1      13.501  12.170  -3.016  0.00  0.00     0.297 C 
ATOM     15  O   UNL d   1      14.015  11.803  -2.838  0.00  0.00    -0.264 OA
BRANCH  14  16
ATOM     16  C   UNL d   1      12.993  11.968  -3.627  0.00  0.00     0.144 C 
BRANCH  16  17
ATOM     17  N   UNL d   1      13.300  11.905  -4.401  0.00  0.00    -0.295 N 
ATOM     18  C   UNL d   1      12.788  11.892  -5.041  0.00  0.00     0.107 A 
ATOM     19  C   UNL d   1      13.099  11.829  -5.823  0.00  0.00     0.142 A 
ATOM     20  O   UNL d   1      13.911  11.779  -5.941  0.00  0.00    -0.300 OA
ATOM     21  C   UNL d   1      14.432  11.793  -5.267  0.00  0.00     0.142 A 
ATOM     22  C   UNL d   1      14.117  11.856  -4.511  0.00  0.00     0.107 A 
ENDBRANCH  16  17
ENDBRANCH  14  16
ENDBRANCH   1  13
BRANCH   2  23
ATOM     23  C   UNL d   1      14.071  14.399  -2.530  0.00  0.00     0.002 A 
ATOM     24  C   UNL d   1      13.295  14.559  -2.744  0.00  0.00     0.000 A 
ATOM     25  C   UNL d   1      13.138  15.114  -3.329  0.00  0.00     0.000 A 
ATOM     26  C   UNL d   1      13.753  15.525  -3.715  0.00  0.00     0.000 A 
ATOM     27  C   UNL d   1      14.538  15.348  -3.482  0.00  0.00     0.000 A 
ATOM     28  C   UNL d   1      14.695  14.793  -2.897  0.00  0.00     0.000 A 
ENDBRANCH   2  23
TORSDOF 4
ENDMDL
