MODEL 1
REMARK VINA RESULT:     -10.8      0.000      0.000
REMARK  3 active torsions:
REMARK  status: ('A' for Active; 'I' for Inactive)
REMARK    1  A    between atoms: C_8  and  N_2 
REMARK    2  A    between atoms: C_14  and  C_8 
REMARK    3  A    between atoms: N_13  and  C_14 
ROOT
ATOM      1  C   UNL d   1      52.803  32.389  53.634  0.00  0.00     0.166 A 
ATOM      2  N   UNL d   1      52.610  33.212  53.724  0.00  0.00    -0.288 N 
ATOM      3  C   UNL d   1      53.542  32.197  54.010  0.00  0.00     0.117 A 
ATOM      4  C   UNL d   1      53.800  32.912  54.331  0.00  0.00     0.037 A 
ATOM      5  C   UNL d   1      53.216  33.536  54.149  0.00  0.00     0.067 A 
ATOM      6  N   UNL d   1      52.407  31.799  53.264  0.00  0.00    -0.225 NA
ATOM      7  N   UNL d   1      53.875  31.421  54.012  0.00  0.00    -0.241 NA
ATOM      8  C   UNL d   1      52.750  31.011  53.269  0.00  0.00     0.101 A 
ATOM      9  C   UNL d   1      53.483  30.821  53.642  0.00  0.00     0.099 A 
ATOM     10  C   UNL d   1      53.338  34.317  54.408  0.00  0.00     0.018 A 
ATOM     11  C   UNL d   1      54.486  33.067  54.761  0.00  0.00     0.003 A 
ATOM     12  C   UNL d   1      54.597  33.849  55.014  0.00  0.00     0.000 A 
ATOM     13  C   UNL d   1      54.025  34.473  54.839  0.00  0.00     0.002 A 
ATOM     14  C   UNL d   1      52.355  30.408  52.896  0.00  0.00     0.021 A 
ATOM     15  C   UNL d   1      53.814  30.041  53.641  0.00  0.00     0.021 A 
ATOM     16  C   UNL d   1      55.275  34.032  55.446  0.00  0.00     0.000 C 
ATOM     17  C   UNL d   1      52.689  29.631  52.899  0.00  0.00     0.002 A 
ATOM     18  C   UNL d   1      53.427  29.447  53.276  0.00  0.00     0.002 A 
ENDROOT
BRANCH   2  19
ATOM     19  C   UNL d   1      51.973  33.630  53.461  0.00  0.00     0.101 C 
BRANCH  19  20
ATOM     20  C   UNL d   1      52.020  34.029  52.759  0.00  0.00     0.100 C 
BRANCH  20  21
ATOM     21  N   UNL d   1      51.264  34.193  52.567  0.00  0.00    -0.298 N 
ATOM     22  C   UNL d   1      50.766  34.470  53.115  0.00  0.00     0.107 A 
ATOM     23  C   UNL d   1      50.008  34.635  52.927  0.00  0.00     0.142 A 
ATOM     24  O   UNL d   1      49.752  34.517  52.170  0.00  0.00    -0.300 OA
ATOM     25  C   UNL d   1      50.254  34.238  51.618  0.00  0.00     0.142 A 
ATOM     26  C   UNL d   1      51.007  34.076  51.814  0.00  0.00     0.107 A 
ENDBRANCH  20  21
ENDBRANCH  19  20
ENDBRANCH   2  19
TORSDOF 3
ENDMDL
MODEL 2
REMARK VINA RESULT:      -9.6      0.556      2.955
REMARK  3 active torsions:
REMARK  status: ('A' for Active; 'I' for Inactive)
REMARK    1  A    between atoms: C_8  and  N_2 
REMARK    2  A    between atoms: C_14  and  C_8 
REMARK    3  A    between atoms: N_13  and  C_14 
ROOT
ATOM      1  C   UNL d   1      53.028  33.051  53.838  0.00  0.00     0.166 A 
ATOM      2  N   UNL d   1      52.380  32.765  53.369  0.00  0.00    -0.288 N 
ATOM      3  C   UNL d   1      53.587  32.433  54.012  0.00  0.00     0.117 A 
ATOM      4  C   UNL d   1      53.273  31.764  53.645  0.00  0.00     0.037 A 
ATOM      5  C   UNL d   1      52.525  31.979  53.248  0.00  0.00     0.067 A 
ATOM      6  N   UNL d   1      53.180  33.784  54.124  0.00  0.00    -0.225 NA
ATOM      7  N   UNL d   1      54.287  32.554  54.468  0.00  0.00    -0.241 NA
ATOM      8  C   UNL d   1      53.893  33.902  54.587  0.00  0.00     0.101 A 
ATOM      9  C   UNL d   1      54.447  33.289  54.761  0.00  0.00     0.099 A 
ATOM     10  C   UNL d   1      52.088  31.405  52.831  0.00  0.00     0.018 A 
ATOM     11  C   UNL d   1      53.575  30.997  53.624  0.00  0.00     0.003 A 
ATOM     12  C   UNL d   1      53.131  30.434  53.206  0.00  0.00     0.000 A 
ATOM     13  C   UNL d   1      52.390  30.638  52.811  0.00  0.00     0.002 A 
ATOM     14  C   UNL d   1      54.054  34.642  54.881  0.00  0.00     0.021 A 
ATOM     15  C   UNL d   1      55.148  33.415  55.219  0.00  0.00     0.021 A 
ATOM     16  C   UNL d   1      53.410  29.659  53.170  0.00  0.00     0.000 C 
ATOM     17  C   UNL d   1      54.755  34.762  55.338  0.00  0.00     0.002 A 
ATOM     18  C   UNL d   1      55.308  34.141  55.508  0.00  0.00     0.002 A 
ENDROOT
BRANCH   2  19
ATOM     19  C   UNL d   1      51.734  33.151  53.080  0.00  0.00     0.101 C 
BRANCH  19  20
ATOM     20  C   UNL d   1      51.835  33.830  52.653  0.00  0.00     0.100 C 
BRANCH  20  21
ATOM     21  N   UNL d   1      51.096  34.057  52.456  0.00  0.00    -0.298 N 
ATOM     22  C   UNL d   1      50.593  34.302  53.015  0.00  0.00     0.107 A 
ATOM     23  C   UNL d   1      49.853  34.530  52.822  0.00  0.00     0.142 A 
ATOM     24  O   UNL d   1      49.620  34.510  52.048  0.00  0.00    -0.300 OA
ATOM     25  C   UNL d   1      50.127  34.263  51.486  0.00  0.00     0.142 A 
ATOM     26  C   UNL d   1      50.862  34.038  51.686  0.00  0.00     0.107 A 
ENDBRANCH  20  21
ENDBRANCH  19  20
ENDBRANCH   2  19
TORSDOF 3
ENDMDL
MODEL 3
REMARK VINA RESULT:      -9.4      1.485      3.709
REMARK  3 active torsions:
REMARK  status: ('A' for Active; 'I' for Inactive)
REMARK    1  A    between atoms: C_8  and  N_2 
REMARK    2  A    between atoms: C_14  and  C_8 
REMARK    3  A    between atoms: N_13  and  C_14 
ROOT
ATOM      1  C   UNL d   1      52.538  32.902  53.754  0.00  0.00     0.166 A 
ATOM      2  N   UNL d   1      53.115  32.358  54.060  0.00  0.00    -0.288 N 
ATOM      3  C   UNL d   1      52.760  33.710  53.903  0.00  0.00     0.117 A 
ATOM      4  C   UNL d   1      53.479  33.655  54.304  0.00  0.00     0.037 A 
ATOM      5  C   UNL d   1      53.692  32.812  54.397  0.00  0.00     0.067 A 
ATOM      6  N   UNL d   1      51.851  32.768  53.365  0.00  0.00    -0.225 NA
ATOM      7  N   UNL d   1      52.293  34.372  53.663  0.00  0.00    -0.241 NA
ATOM      8  C   UNL d   1      51.380  33.444  53.123  0.00  0.00     0.101 A 
ATOM      9  C   UNL d   1      51.600  34.246  53.271  0.00  0.00     0.099 A 
ATOM     10  C   UNL d   1      54.396  32.595  54.784  0.00  0.00     0.018 A 
ATOM     11  C   UNL d   1      53.958  34.262  54.591  0.00  0.00     0.003 A 
ATOM     12  C   UNL d   1      54.657  34.033  54.975  0.00  0.00     0.000 A 
ATOM     13  C   UNL d   1      54.875  33.202  55.072  0.00  0.00     0.002 A 
ATOM     14  C   UNL d   1      50.682  33.317  52.728  0.00  0.00     0.021 A 
ATOM     15  C   UNL d   1      51.129  34.907  53.028  0.00  0.00     0.021 A 
ATOM     16  C   UNL d   1      55.154  34.619  55.272  0.00  0.00     0.000 C 
ATOM     17  C   UNL d   1      50.216  33.980  52.488  0.00  0.00     0.002 A 
ATOM     18  C   UNL d   1      50.443  34.784  52.640  0.00  0.00     0.002 A 
ENDROOT
BRANCH   2  19
ATOM     19  C   UNL d   1      53.132  31.552  54.044  0.00  0.00     0.101 C 
BRANCH  19  20
ATOM     20  C   UNL d   1      53.447  31.173  53.404  0.00  0.00     0.100 C 
BRANCH  20  21
ATOM     21  N   UNL d   1      53.238  30.409  53.497  0.00  0.00    -0.298 N 
ATOM     22  C   UNL d   1      53.541  29.983  54.091  0.00  0.00     0.107 A 
ATOM     23  C   UNL d   1      53.335  29.218  54.187  0.00  0.00     0.142 A 
ATOM     24  O   UNL d   1      52.812  28.880  53.671  0.00  0.00    -0.300 OA
ATOM     25  C   UNL d   1      52.508  29.309  53.074  0.00  0.00     0.142 A 
ATOM     26  C   UNL d   1      52.718  30.070  52.984  0.00  0.00     0.107 A 
ENDBRANCH  20  21
ENDBRANCH  19  20
ENDBRANCH   2  19
TORSDOF 3
ENDMDL
MODEL 4
REMARK VINA RESULT:      -8.5      1.523      4.134
REMARK  3 active torsions:
REMARK  status: ('A' for Active; 'I' for Inactive)
REMARK    1  A    between atoms: C_8  and  N_2 
REMARK    2  A    between atoms: C_14  and  C_8 
REMARK    3  A    between atoms: N_13  and  C_14 
ROOT
ATOM      1  C   UNL d   1      53.014  32.906  53.958  0.00  0.00     0.166 A 
ATOM      2  N   UNL d   1      52.456  32.381  53.589  0.00  0.00    -0.288 N 
ATOM      3  C   UNL d   1      52.771  33.719  53.891  0.00  0.00     0.117 A 
ATOM      4  C   UNL d   1      52.058  33.687  53.476  0.00  0.00     0.037 A 
ATOM      5  C   UNL d   1      51.871  32.853  53.293  0.00  0.00     0.067 A 
ATOM      6  N   UNL d   1      53.700  32.751  54.341  0.00  0.00    -0.225 NA
ATOM      7  N   UNL d   1      53.215  34.365  54.206  0.00  0.00    -0.241 NA
ATOM      8  C   UNL d   1      54.149  33.411  54.659  0.00  0.00     0.101 A 
ATOM      9  C   UNL d   1      53.908  34.217  54.593  0.00  0.00     0.099 A 
ATOM     10  C   UNL d   1      51.178  32.658  52.875  0.00  0.00     0.018 A 
ATOM     11  C   UNL d   1      51.566  34.307  53.248  0.00  0.00     0.003 A 
ATOM     12  C   UNL d   1      50.878  34.101  52.832  0.00  0.00     0.000 A 
ATOM     13  C   UNL d   1      50.684  33.279  52.646  0.00  0.00     0.002 A 
ATOM     14  C   UNL d   1      54.845  33.262  55.049  0.00  0.00     0.021 A 
ATOM     15  C   UNL d   1      54.357  34.862  54.910  0.00  0.00     0.021 A 
ATOM     16  C   UNL d   1      50.367  34.702  52.591  0.00  0.00     0.000 C 
ATOM     17  C   UNL d   1      55.290  33.908  55.364  0.00  0.00     0.002 A 
ATOM     18  C   UNL d   1      55.042  34.717  55.293  0.00  0.00     0.002 A 
ENDROOT
BRANCH   2  19
ATOM     19  C   UNL d   1      52.463  31.578  53.520  0.00  0.00     0.101 C 
BRANCH  19  20
ATOM     20  C   UNL d   1      53.053  31.219  53.100  0.00  0.00     0.100 C 
BRANCH  20  21
ATOM     21  N   UNL d   1      52.972  30.442  53.259  0.00  0.00    -0.298 N 
ATOM     22  C   UNL d   1      52.506  29.990  52.807  0.00  0.00     0.107 A 
ATOM     23  C   UNL d   1      52.422  29.212  52.963  0.00  0.00     0.142 A 
ATOM     24  O   UNL d   1      52.818  28.888  53.589  0.00  0.00    -0.300 OA
ATOM     25  C   UNL d   1      53.287  29.343  54.044  0.00  0.00     0.142 A 
ATOM     26  C   UNL d   1      53.365  30.117  53.882  0.00  0.00     0.107 A 
ENDBRANCH  20  21
ENDBRANCH  19  20
ENDBRANCH   2  19
TORSDOF 3
ENDMDL
MODEL 5
REMARK VINA RESULT:      -8.2      1.585      4.245
REMARK  3 active torsions:
REMARK  status: ('A' for Active; 'I' for Inactive)
REMARK    1  A    between atoms: C_8  and  N_2 
REMARK    2  A    between atoms: C_14  and  C_8 
REMARK    3  A    between atoms: N_13  and  C_14 
ROOT
ATOM      1  C   UNL d   1      52.699  32.800  53.433  0.00  0.00     0.166 A 
ATOM      2  N   UNL d   1      53.421  32.425  53.678  0.00  0.00    -0.288 N 
ATOM      3  C   UNL d   1      52.147  32.238  53.109  0.00  0.00     0.117 A 
ATOM      4  C   UNL d   1      52.540  31.513  53.159  0.00  0.00     0.037 A 
ATOM      5  C   UNL d   1      53.329  31.639  53.512  0.00  0.00     0.067 A 
ATOM      6  N   UNL d   1      52.476  33.568  53.462  0.00  0.00    -0.225 NA
ATOM      7  N   UNL d   1      51.383  32.450  52.820  0.00  0.00    -0.241 NA
ATOM      8  C   UNL d   1      51.697  33.780  53.167  0.00  0.00     0.101 A 
ATOM      9  C   UNL d   1      51.150  33.222  52.846  0.00  0.00     0.099 A 
ATOM     10  C   UNL d   1      53.847  30.997  53.628  0.00  0.00     0.018 A 
ATOM     11  C   UNL d   1      52.277  30.767  52.928  0.00  0.00     0.003 A 
ATOM     12  C   UNL d   1      52.801  30.135  53.047  0.00  0.00     0.000 A 
ATOM     13  C   UNL d   1      53.584  30.250  53.397  0.00  0.00     0.002 A 
ATOM     14  C   UNL d   1      51.463  34.557  53.193  0.00  0.00     0.021 A 
ATOM     15  C   UNL d   1      50.384  33.439  52.557  0.00  0.00     0.021 A 
ATOM     16  C   UNL d   1      52.564  29.378  52.825  0.00  0.00     0.000 C 
ATOM     17  C   UNL d   1      50.697  34.769  52.903  0.00  0.00     0.002 A 
ATOM     18  C   UNL d   1      50.153  34.203  52.582  0.00  0.00     0.002 A 
ENDROOT
BRANCH   2  19
ATOM     19  C   UNL d   1      54.085  32.738  54.009  0.00  0.00     0.101 C 
BRANCH  19  20
ATOM     20  C   UNL d   1      54.205  32.666  54.805  0.00  0.00     0.100 C 
BRANCH  20  21
ATOM     21  N   UNL d   1      54.732  33.237  54.984  0.00  0.00    -0.298 N 
ATOM     22  C   UNL d   1      55.322  33.404  54.485  0.00  0.00     0.107 A 
ATOM     23  C   UNL d   1      55.852  33.975  54.660  0.00  0.00     0.142 A 
ATOM     24  O   UNL d   1      55.780  34.383  55.354  0.00  0.00    -0.300 OA
ATOM     25  C   UNL d   1      55.186  34.215  55.856  0.00  0.00     0.142 A 
ATOM     26  C   UNL d   1      54.663  33.645  55.674  0.00  0.00     0.107 A 
ENDBRANCH  20  21
ENDBRANCH  19  20
ENDBRANCH   2  19
TORSDOF 3
ENDMDL
MODEL 6
REMARK VINA RESULT:      -7.8      1.563      3.445
REMARK  3 active torsions:
REMARK  status: ('A' for Active; 'I' for Inactive)
REMARK    1  A    between atoms: C_8  and  N_2 
REMARK    2  A    between atoms: C_14  and  C_8 
REMARK    3  A    between atoms: N_13  and  C_14 
ROOT
ATOM      1  C   UNL d   1      52.987  32.397  53.482  0.00  0.00     0.166 A 
ATOM      2  N   UNL d   1      53.088  33.233  53.598  0.00  0.00    -0.288 N 
ATOM      3  C   UNL d   1      52.261  32.222  53.073  0.00  0.00     0.117 A 
ATOM      4  C   UNL d   1      51.918  32.961  52.939  0.00  0.00     0.037 A 
ATOM      5  C   UNL d   1      52.438  33.582  53.268  0.00  0.00     0.067 A 
ATOM      6  N   UNL d   1      53.455  31.782  53.693  0.00  0.00    -0.225 NA
ATOM      7  N   UNL d   1      52.012  31.438  52.881  0.00  0.00    -0.241 NA
ATOM      8  C   UNL d   1      53.197  30.986  53.495  0.00  0.00     0.101 A 
ATOM      9  C   UNL d   1      52.477  30.813  53.090  0.00  0.00     0.099 A 
ATOM     10  C   UNL d   1      52.225  34.385  53.210  0.00  0.00     0.018 A 
ATOM     11  C   UNL d   1      51.206  33.140  52.564  0.00  0.00     0.003 A 
ATOM     12  C   UNL d   1      51.005  33.943  52.512  0.00  0.00     0.000 A 
ATOM     13  C   UNL d   1      51.513  34.564  52.834  0.00  0.00     0.002 A 
ATOM     14  C   UNL d   1      53.666  30.357  53.705  0.00  0.00     0.021 A 
ATOM     15  C   UNL d   1      52.232  30.025  52.899  0.00  0.00     0.021 A 
ATOM     16  C   UNL d   1      50.298  34.150  52.141  0.00  0.00     0.000 C 
ATOM     17  C   UNL d   1      53.416  29.573  53.512  0.00  0.00     0.002 A 
ATOM     18  C   UNL d   1      52.691  29.406  53.105  0.00  0.00     0.002 A 
ENDROOT
BRANCH   2  19
ATOM     19  C   UNL d   1      53.685  33.642  53.953  0.00  0.00     0.101 C 
BRANCH  19  20
ATOM     20  C   UNL d   1      53.604  33.875  54.722  0.00  0.00     0.100 C 
BRANCH  20  21
ATOM     21  N   UNL d   1      54.351  33.947  54.992  0.00  0.00    -0.298 N 
ATOM     22  C   UNL d   1      54.895  34.326  54.561  0.00  0.00     0.107 A 
ATOM     23  C   UNL d   1      55.644  34.400  54.828  0.00  0.00     0.142 A 
ATOM     24  O   UNL d   1      55.843  34.084  55.544  0.00  0.00    -0.300 OA
ATOM     25  C   UNL d   1      55.296  33.701  55.977  0.00  0.00     0.142 A 
ATOM     26  C   UNL d   1      54.553  33.632  55.705  0.00  0.00     0.107 A 
ENDBRANCH  20  21
ENDBRANCH  19  20
ENDBRANCH   2  19
TORSDOF 3
ENDMDL
MODEL 7
REMARK VINA RESULT:      -7.8      9.537     10.798
REMARK  3 active torsions:
REMARK  status: ('A' for Active; 'I' for Inactive)
REMARK    1  A    between atoms: C_8  and  N_2 
REMARK    2  A    between atoms: C_14  and  C_8 
REMARK    3  A    between atoms: N_13  and  C_14 
ROOT
ATOM      1  C   UNL d   1      44.621  29.844  59.173  0.00  0.00     0.166 A 
ATOM      2  N   UNL d   1      44.665  29.506  58.394  0.00  0.00    -0.288 N 
ATOM      3  C   UNL d   1      44.548  30.691  59.144  0.00  0.00     0.117 A 
ATOM      4  C   UNL d   1      44.547  30.870  58.338  0.00  0.00     0.037 A 
ATOM      5  C   UNL d   1      44.620  30.129  57.880  0.00  0.00     0.067 A 
ATOM      6  N   UNL d   1      44.637  29.494  59.893  0.00  0.00    -0.225 NA
ATOM      7  N   UNL d   1      44.492  31.177  59.832  0.00  0.00    -0.241 NA
ATOM      8  C   UNL d   1      44.581  29.992  60.591  0.00  0.00     0.101 A 
ATOM      9  C   UNL d   1      44.509  30.833  60.562  0.00  0.00     0.099 A 
ATOM     10  C   UNL d   1      44.634  30.146  57.048  0.00  0.00     0.018 A 
ATOM     11  C   UNL d   1      44.490  31.606  57.972  0.00  0.00     0.003 A 
ATOM     12  C   UNL d   1      44.506  31.612  57.143  0.00  0.00     0.000 A 
ATOM     13  C   UNL d   1      44.577  30.883  56.682  0.00  0.00     0.002 A 
ATOM     14  C   UNL d   1      44.597  29.646  61.325  0.00  0.00     0.021 A 
ATOM     15  C   UNL d   1      44.454  31.317  61.255  0.00  0.00     0.021 A 
ATOM     16  C   UNL d   1      44.450  32.335  56.751  0.00  0.00     0.000 C 
ATOM     17  C   UNL d   1      44.542  30.133  62.014  0.00  0.00     0.002 A 
ATOM     18  C   UNL d   1      44.469  30.978  61.977  0.00  0.00     0.002 A 
ENDROOT
BRANCH   2  19
ATOM     19  C   UNL d   1      44.736  28.738  58.162  0.00  0.00     0.101 C 
BRANCH  19  20
ATOM     20  C   UNL d   1      45.453  28.370  58.218  0.00  0.00     0.100 C 
BRANCH  20  21
ATOM     21  N   UNL d   1      45.317  27.621  57.980  0.00  0.00    -0.298 N 
ATOM     22  C   UNL d   1      45.402  27.425  57.218  0.00  0.00     0.107 A 
ATOM     23  C   UNL d   1      45.266  26.676  56.976  0.00  0.00     0.142 A 
ATOM     24  O   UNL d   1      45.041  26.119  57.515  0.00  0.00    -0.300 OA
ATOM     25  C   UNL d   1      44.955  26.317  58.281  0.00  0.00     0.142 A 
ATOM     26  C   UNL d   1      45.092  27.064  58.515  0.00  0.00     0.107 A 
ENDBRANCH  20  21
ENDBRANCH  19  20
ENDBRANCH   2  19
TORSDOF 3
ENDMDL
