MODEL 1
REMARK VINA RESULT:      -9.4      0.000      0.000
REMARK  3 active torsions:
REMARK  status: ('A' for Active; 'I' for Inactive)
REMARK    1  A    between atoms: N_2  and  S_1 
REMARK    2  A    between atoms: C_3  and  S_1 
REMARK    3  A    between atoms: O_16  and  C_9 
ROOT
ATOM      1  S   UNL d   1     -48.044  13.713  22.882  0.00  0.00     0.274 S 
ATOM      2  O   UNL d   1     -48.248  13.572  23.669  0.00  0.00    -0.199 OA
ATOM      3  O   UNL d   1     -47.833  13.852  22.092  0.00  0.00    -0.199 OA
ENDROOT
BRANCH   1   4
ATOM      4  N   UNL d   1     -47.313  13.340  23.003  0.00  0.00    -0.214 N 
ATOM      5  C   UNL d   1     -46.570  13.686  22.908  0.00  0.00     0.157 A 
ATOM      6  N   UNL d   1     -46.001  13.117  23.087  0.00  0.00    -0.226 NA
ATOM      7  C   UNL d   1     -46.417  14.462  22.674  0.00  0.00     0.041 C 
ATOM      8  C   UNL d   1     -46.392  12.418  23.293  0.00  0.00     0.100 A 
ATOM      9  C   UNL d   1     -47.197  12.557  23.242  0.00  0.00     0.094 A 
ATOM     10  C   UNL d   1     -46.109  11.678  23.521  0.00  0.00     0.021 A 
ATOM     11  C   UNL d   1     -47.732  11.951  23.419  0.00  0.00     0.020 A 
ATOM     12  C   UNL d   1     -47.461  11.209  23.646  0.00  0.00     0.002 A 
ATOM     13  C   UNL d   1     -46.645  11.072  23.698  0.00  0.00     0.002 A 
ENDBRANCH   1   4
BRANCH   1  14
ATOM     14  C   UNL d   1     -48.772  14.085  22.760  0.00  0.00     0.126 A 
ATOM     15  C   UNL d   1     -48.998  14.718  23.236  0.00  0.00     0.015 A 
ATOM     16  C   UNL d   1     -49.726  15.090  23.115  0.00  0.00     0.001 A 
ATOM     17  C   UNL d   1     -49.944  15.714  23.587  0.00  0.00     0.000 C 
ATOM     18  C   UNL d   1     -50.228  14.822  22.512  0.00  0.00     0.002 A 
ATOM     19  C   UNL d   1     -50.002  14.189  22.036  0.00  0.00     0.025 A 
ATOM     20  C   UNL d   1     -50.945  15.190  22.394  0.00  0.00     0.000 C 
ATOM     21  C   UNL d   1     -49.274  13.820  22.160  0.00  0.00     0.106 A 
BRANCH  21  22
ATOM     22  O   UNL d   1     -49.048  13.190  21.688  0.00  0.00    -0.327 OA
ATOM     23  C   UNL d   1     -49.569  12.885  21.141  0.00  0.00     0.181 C 
ENDBRANCH  21  22
ENDBRANCH   1  14
TORSDOF 3
ENDMDL
MODEL 2
REMARK VINA RESULT:      -9.0      1.144      3.837
REMARK  3 active torsions:
REMARK  status: ('A' for Active; 'I' for Inactive)
REMARK    1  A    between atoms: N_2  and  S_1 
REMARK    2  A    between atoms: C_3  and  S_1 
REMARK    3  A    between atoms: O_16  and  C_9 
ROOT
ATOM      1  S   UNL d   1     -48.756  13.514  22.613  0.00  0.00     0.274 S 
ATOM      2  O   UNL d   1     -49.014  13.337  23.377  0.00  0.00    -0.199 OA
ATOM      3  O   UNL d   1     -48.506  13.696  21.844  0.00  0.00    -0.199 OA
ENDROOT
BRANCH   1   4
ATOM      4  N   UNL d   1     -49.499  13.844  22.439  0.00  0.00    -0.214 N 
ATOM      5  C   UNL d   1     -50.024  13.578  21.861  0.00  0.00     0.157 A 
ATOM      6  N   UNL d   1     -50.689  14.065  21.881  0.00  0.00    -0.226 NA
ATOM      7  C   UNL d   1     -49.909  12.940  21.351  0.00  0.00     0.041 C 
ATOM      8  C   UNL d   1     -50.575  14.632  22.472  0.00  0.00     0.100 A 
ATOM      9  C   UNL d   1     -49.844  14.495  22.813  0.00  0.00     0.094 A 
ATOM     10  C   UNL d   1     -51.050  15.253  22.735  0.00  0.00     0.021 A 
ATOM     11  C   UNL d   1     -49.578  14.982  23.428  0.00  0.00     0.020 A 
ATOM     12  C   UNL d   1     -50.043  15.603  23.698  0.00  0.00     0.002 A 
ATOM     13  C   UNL d   1     -50.783  15.740  23.350  0.00  0.00     0.002 A 
ENDBRANCH   1   4
BRANCH   1  14
ATOM     14  C   UNL d   1     -48.018  13.187  22.785  0.00  0.00     0.126 A 
ATOM     15  C   UNL d   1     -47.329  13.591  22.584  0.00  0.00     0.015 A 
ATOM     16  C   UNL d   1     -46.590  13.263  22.756  0.00  0.00     0.001 A 
ATOM     17  C   UNL d   1     -45.914  13.665  22.556  0.00  0.00     0.000 C 
ATOM     18  C   UNL d   1     -46.546  12.526  23.133  0.00  0.00     0.002 A 
ATOM     19  C   UNL d   1     -47.235  12.122  23.334  0.00  0.00     0.025 A 
ATOM     20  C   UNL d   1     -45.817  12.205  23.302  0.00  0.00     0.000 C 
ATOM     21  C   UNL d   1     -47.971  12.453  23.160  0.00  0.00     0.106 A 
BRANCH  21  22
ATOM     22  O   UNL d   1     -48.658  12.052  23.360  0.00  0.00    -0.327 OA
ATOM     23  C   UNL d   1     -48.613  11.312  23.698  0.00  0.00     0.181 C 
ENDBRANCH  21  22
ENDBRANCH   1  14
TORSDOF 3
ENDMDL
MODEL 3
REMARK VINA RESULT:      -8.1      0.586      1.438
REMARK  3 active torsions:
REMARK  status: ('A' for Active; 'I' for Inactive)
REMARK    1  A    between atoms: N_2  and  S_1 
REMARK    2  A    between atoms: C_3  and  S_1 
REMARK    3  A    between atoms: O_16  and  C_9 
ROOT
ATOM      1  S   UNL d   1     -48.054  13.389  22.541  0.00  0.00     0.274 S 
ATOM      2  O   UNL d   1     -48.350  13.253  23.300  0.00  0.00    -0.199 OA
ATOM      3  O   UNL d   1     -47.748  13.523  21.783  0.00  0.00    -0.199 OA
ENDROOT
BRANCH   1   4
ATOM      4  N   UNL d   1     -47.295  13.173  22.800  0.00  0.00    -0.214 N 
ATOM      5  C   UNL d   1     -46.630  13.662  22.812  0.00  0.00     0.157 A 
ATOM      6  N   UNL d   1     -45.999  13.222  23.109  0.00  0.00    -0.226 NA
ATOM      7  C   UNL d   1     -46.597  14.450  22.572  0.00  0.00     0.041 C 
ATOM      8  C   UNL d   1     -46.273  12.461  23.280  0.00  0.00     0.100 A 
ATOM      9  C   UNL d   1     -47.068  12.433  23.089  0.00  0.00     0.094 A 
ATOM     10  C   UNL d   1     -45.893  11.796  23.584  0.00  0.00     0.021 A 
ATOM     11  C   UNL d   1     -47.496  11.733  23.203  0.00  0.00     0.020 A 
ATOM     12  C   UNL d   1     -47.126  11.064  23.506  0.00  0.00     0.002 A 
ATOM     13  C   UNL d   1     -46.320  11.095  23.698  0.00  0.00     0.002 A 
ENDBRANCH   1   4
BRANCH   1  14
ATOM     14  C   UNL d   1     -48.809  13.604  22.285  0.00  0.00     0.126 A 
ATOM     15  C   UNL d   1     -49.183  13.171  21.692  0.00  0.00     0.015 A 
ATOM     16  C   UNL d   1     -49.939  13.385  21.435  0.00  0.00     0.001 A 
ATOM     17  C   UNL d   1     -50.303  12.955  20.850  0.00  0.00     0.000 C 
ATOM     18  C   UNL d   1     -50.318  14.038  21.777  0.00  0.00     0.002 A 
ATOM     19  C   UNL d   1     -49.944  14.471  22.369  0.00  0.00     0.025 A 
ATOM     20  C   UNL d   1     -51.063  14.248  21.522  0.00  0.00     0.000 C 
ATOM     21  C   UNL d   1     -49.190  14.254  22.623  0.00  0.00     0.106 A 
BRANCH  21  22
ATOM     22  O   UNL d   1     -48.816  14.683  23.213  0.00  0.00    -0.327 OA
ATOM     23  C   UNL d   1     -49.149  15.375  23.485  0.00  0.00     0.181 C 
ENDBRANCH  21  22
ENDBRANCH   1  14
TORSDOF 3
ENDMDL
MODEL 4
REMARK VINA RESULT:      -8.1      1.087      3.707
REMARK  3 active torsions:
REMARK  status: ('A' for Active; 'I' for Inactive)
REMARK    1  A    between atoms: N_2  and  S_1 
REMARK    2  A    between atoms: C_3  and  S_1 
REMARK    3  A    between atoms: O_16  and  C_9 
ROOT
ATOM      1  S   UNL d   1     -48.309  13.626  22.579  0.00  0.00     0.274 S 
ATOM      2  O   UNL d   1     -48.174  13.637  21.764  0.00  0.00    -0.199 OA
ATOM      3  O   UNL d   1     -48.451  13.619  23.395  0.00  0.00    -0.199 OA
ENDROOT
BRANCH   1   4
ATOM      4  N   UNL d   1     -49.037  14.008  22.463  0.00  0.00    -0.214 N 
ATOM      5  C   UNL d   1     -49.263  14.729  22.794  0.00  0.00     0.157 A 
ATOM      6  N   UNL d   1     -50.027  14.898  22.532  0.00  0.00    -0.226 NA
ATOM      7  C   UNL d   1     -48.811  15.201  23.297  0.00  0.00     0.041 C 
ATOM      8  C   UNL d   1     -50.272  14.281  22.040  0.00  0.00     0.100 A 
ATOM      9  C   UNL d   1     -49.664  13.736  21.999  0.00  0.00     0.094 A 
ATOM     10  C   UNL d   1     -50.975  14.155  21.627  0.00  0.00     0.021 A 
ATOM     11  C   UNL d   1     -49.753  13.052  21.540  0.00  0.00     0.020 A 
ATOM     12  C   UNL d   1     -50.449  12.917  21.126  0.00  0.00     0.002 A 
ATOM     13  C   UNL d   1     -51.064  13.471  21.169  0.00  0.00     0.002 A 
ENDBRANCH   1   4
BRANCH   1  14
ATOM     14  C   UNL d   1     -47.584  13.245  22.693  0.00  0.00     0.126 A 
ATOM     15  C   UNL d   1     -46.892  13.576  22.395  0.00  0.00     0.015 A 
ATOM     16  C   UNL d   1     -46.167  13.195  22.509  0.00  0.00     0.001 A 
ATOM     17  C   UNL d   1     -45.487  13.526  22.213  0.00  0.00     0.000 C 
ATOM     18  C   UNL d   1     -46.141  12.480  22.926  0.00  0.00     0.002 A 
ATOM     19  C   UNL d   1     -46.833  12.149  23.225  0.00  0.00     0.025 A 
ATOM     20  C   UNL d   1     -45.426  12.107  23.038  0.00  0.00     0.000 C 
ATOM     21  C   UNL d   1     -47.555  12.532  23.108  0.00  0.00     0.106 A 
BRANCH  21  22
ATOM     22  O   UNL d   1     -48.246  12.204  23.405  0.00  0.00    -0.327 OA
ATOM     23  C   UNL d   1     -48.241  11.444  23.698  0.00  0.00     0.181 C 
ENDBRANCH  21  22
ENDBRANCH   1  14
TORSDOF 3
ENDMDL
MODEL 5
REMARK VINA RESULT:      -7.0      1.490      3.694
REMARK  3 active torsions:
REMARK  status: ('A' for Active; 'I' for Inactive)
REMARK    1  A    between atoms: N_2  and  S_1 
REMARK    2  A    between atoms: C_3  and  S_1 
REMARK    3  A    between atoms: O_16  and  C_9 
ROOT
ATOM      1  S   UNL d   1     -48.200  12.882  22.610  0.00  0.00     0.274 S 
ATOM      2  O   UNL d   1     -48.123  12.590  21.842  0.00  0.00    -0.199 OA
ATOM      3  O   UNL d   1     -48.285  13.172  23.381  0.00  0.00    -0.199 OA
ENDROOT
BRANCH   1   4
ATOM      4  N   UNL d   1     -48.975  12.587  22.644  0.00  0.00    -0.214 N 
ATOM      5  C   UNL d   1     -49.243  11.985  23.141  0.00  0.00     0.157 A 
ATOM      6  N   UNL d   1     -50.045  11.871  22.990  0.00  0.00    -0.226 NA
ATOM      7  C   UNL d   1     -48.793  11.569  23.693  0.00  0.00     0.041 C 
ATOM      8  C   UNL d   1     -50.274  12.402  22.400  0.00  0.00     0.100 A 
ATOM      9  C   UNL d   1     -49.616  12.840  22.188  0.00  0.00     0.094 A 
ATOM     10  C   UNL d   1     -51.000  12.536  22.033  0.00  0.00     0.021 A 
ATOM     11  C   UNL d   1     -49.678  13.422  21.602  0.00  0.00     0.020 A 
ATOM     12  C   UNL d   1     -50.398  13.563  21.231  0.00  0.00     0.002 A 
ATOM     13  C   UNL d   1     -51.063  13.118  21.447  0.00  0.00     0.002 A 
ENDBRANCH   1   4
BRANCH   1  14
ATOM     14  C   UNL d   1     -47.428  13.176  22.576  0.00  0.00     0.126 A 
ATOM     15  C   UNL d   1     -46.798  12.668  22.426  0.00  0.00     0.015 A 
ATOM     16  C   UNL d   1     -46.027  12.962  22.392  0.00  0.00     0.001 A 
ATOM     17  C   UNL d   1     -45.408  12.456  22.244  0.00  0.00     0.000 C 
ATOM     18  C   UNL d   1     -45.891  13.771  22.509  0.00  0.00     0.002 A 
ATOM     19  C   UNL d   1     -46.521  14.279  22.658  0.00  0.00     0.025 A 
ATOM     20  C   UNL d   1     -45.129  14.058  22.475  0.00  0.00     0.000 C 
ATOM     21  C   UNL d   1     -47.290  13.982  22.692  0.00  0.00     0.106 A 
BRANCH  21  22
ATOM     22  O   UNL d   1     -47.919  14.487  22.841  0.00  0.00    -0.327 OA
ATOM     23  C   UNL d   1     -47.791  15.289  22.893  0.00  0.00     0.181 C 
ENDBRANCH  21  22
ENDBRANCH   1  14
TORSDOF 3
ENDMDL
