MODEL 1
REMARK VINA RESULT:      -7.4      0.000      0.000
REMARK  4 active torsions:
REMARK  status: ('A' for Active; 'I' for Inactive)
REMARK    1  A    between atoms: C_5  and  C_3 
REMARK    2  A    between atoms: S_8  and  C_4 
REMARK    3  A    between atoms: C_12  and  S_8 
REMARK    4  A    between atoms: C_10  and  C_12 
ROOT
ATOM      1  N   UNL d   1     -45.770  12.425  23.188  0.00  0.00    -0.146 NA
ATOM      2  N   UNL d   1     -46.416  12.937  23.161  0.00  0.00    -0.141 NA
ATOM      3  C   UNL d   1     -45.877  11.632  23.406  0.00  0.00     0.121 A 
ATOM      4  C   UNL d   1     -47.168  12.670  23.349  0.00  0.00     0.133 A 
ATOM      5  C   UNL d   1     -46.635  11.360  23.596  0.00  0.00     0.025 A 
ATOM      6  C   UNL d   1     -47.277  11.874  23.568  0.00  0.00     0.029 A 
ENDROOT
BRANCH   4   7
ATOM      7  S   UNL d   1     -47.814  13.183  23.322  0.00  0.00    -0.064 SA
BRANCH   7   8
ATOM      8  C   UNL d   1     -47.991  13.591  22.633  0.00  0.00     0.056 C 
BRANCH   8   9
ATOM      9  C   UNL d   1     -48.659  14.079  22.608  0.00  0.00     0.088 A 
ATOM     10  N   UNL d   1     -49.354  13.810  22.256  0.00  0.00    -0.243 NA
ATOM     11  C   UNL d   1     -50.014  14.303  22.236  0.00  0.00     0.099 A 
ATOM     12  C   UNL d   1     -49.978  15.054  22.564  0.00  0.00     0.021 A 
ATOM     13  C   UNL d   1     -49.293  15.321  22.912  0.00  0.00     0.003 A 
ATOM     14  C   UNL d   1     -48.629  14.835  22.936  0.00  0.00     0.020 A 
ENDBRANCH   8   9
ENDBRANCH   7   8
ENDBRANCH   4   7
BRANCH   3  15
ATOM     15  C   UNL d   1     -45.231  11.120  23.433  0.00  0.00     0.101 A 
ATOM     16  N   UNL d   1     -44.493  11.391  23.223  0.00  0.00    -0.242 NA
ATOM     17  C   UNL d   1     -43.849  10.886  23.248  0.00  0.00     0.099 A 
ATOM     18  C   UNL d   1     -43.952  10.096  23.488  0.00  0.00     0.021 A 
ATOM     19  C   UNL d   1     -44.696   9.828  23.698  0.00  0.00     0.003 A 
ATOM     20  C   UNL d   1     -45.349  10.334  23.674  0.00  0.00     0.021 A 
ENDBRANCH   3  15
TORSDOF 4
ENDMDL
MODEL 2
REMARK VINA RESULT:      -6.8      0.861      5.164
REMARK  4 active torsions:
REMARK  status: ('A' for Active; 'I' for Inactive)
REMARK    1  A    between atoms: C_5  and  C_3 
REMARK    2  A    between atoms: S_8  and  C_4 
REMARK    3  A    between atoms: C_12  and  S_8 
REMARK    4  A    between atoms: C_10  and  C_12 
ROOT
ATOM      1  N   UNL d   1     -48.110  13.106  23.184  0.00  0.00    -0.146 NA
ATOM      2  N   UNL d   1     -47.412  12.672  23.253  0.00  0.00    -0.141 NA
ATOM      3  C   UNL d   1     -48.095  13.868  22.858  0.00  0.00     0.121 A 
ATOM      4  C   UNL d   1     -46.699  12.987  23.002  0.00  0.00     0.133 A 
ATOM      5  C   UNL d   1     -47.377  14.189  22.604  0.00  0.00     0.025 A 
ATOM      6  C   UNL d   1     -46.682  13.754  22.674  0.00  0.00     0.029 A 
ENDROOT
BRANCH   4   7
ATOM      7  S   UNL d   1     -46.000  12.553  23.071  0.00  0.00    -0.064 SA
BRANCH   7   8
ATOM      8  C   UNL d   1     -46.019  11.773  23.325  0.00  0.00     0.056 C 
BRANCH   8   9
ATOM      9  C   UNL d   1     -45.321  11.330  23.335  0.00  0.00     0.088 A 
ATOM     10  N   UNL d   1     -44.635  11.633  22.992  0.00  0.00    -0.243 NA
ATOM     11  C   UNL d   1     -43.944  11.185  23.006  0.00  0.00     0.099 A 
ATOM     12  C   UNL d   1     -43.940  10.444  23.359  0.00  0.00     0.021 A 
ATOM     13  C   UNL d   1     -44.615  10.143  23.697  0.00  0.00     0.003 A 
ATOM     14  C   UNL d   1     -45.310  10.584  23.687  0.00  0.00     0.020 A 
ENDBRANCH   8   9
ENDBRANCH   7   8
ENDBRANCH   4   7
BRANCH   3  15
ATOM     15  C   UNL d   1     -48.793  14.302  22.790  0.00  0.00     0.101 A 
ATOM     16  N   UNL d   1     -48.889  14.984  23.223  0.00  0.00    -0.242 NA
ATOM     17  C   UNL d   1     -49.580  15.417  23.158  0.00  0.00     0.099 A 
ATOM     18  C   UNL d   1     -50.184  15.158  22.647  0.00  0.00     0.021 A 
ATOM     19  C   UNL d   1     -50.083  14.472  22.214  0.00  0.00     0.003 A 
ATOM     20  C   UNL d   1     -49.388  14.031  22.276  0.00  0.00     0.021 A 
ENDBRANCH   3  15
TORSDOF 4
ENDMDL
MODEL 3
REMARK VINA RESULT:      -6.5      1.400      1.898
REMARK  4 active torsions:
REMARK  status: ('A' for Active; 'I' for Inactive)
REMARK    1  A    between atoms: C_5  and  C_3 
REMARK    2  A    between atoms: S_8  and  C_4 
REMARK    3  A    between atoms: C_12  and  S_8 
REMARK    4  A    between atoms: C_10  and  C_12 
ROOT
ATOM      1  N   UNL d   1     -46.328  13.721  23.200  0.00  0.00    -0.146 NA
ATOM      2  N   UNL d   1     -47.087  13.996  23.370  0.00  0.00    -0.141 NA
ATOM      3  C   UNL d   1     -46.211  13.185  22.577  0.00  0.00     0.121 A 
ATOM      4  C   UNL d   1     -47.730  13.746  22.930  0.00  0.00     0.133 A 
ATOM      5  C   UNL d   1     -46.859  12.931  22.131  0.00  0.00     0.025 A 
ATOM      6  C   UNL d   1     -47.614  13.208  22.304  0.00  0.00     0.029 A 
ENDROOT
BRANCH   4   7
ATOM      7  S   UNL d   1     -48.489  14.022  23.100  0.00  0.00    -0.064 SA
BRANCH   7   8
ATOM      8  C   UNL d   1     -48.766  14.714  22.757  0.00  0.00     0.056 C 
BRANCH   8   9
ATOM      9  C   UNL d   1     -49.514  15.000  22.963  0.00  0.00     0.088 A 
ATOM     10  N   UNL d   1     -50.191  14.656  22.641  0.00  0.00    -0.243 NA
ATOM     11  C   UNL d   1     -50.932  14.947  22.851  0.00  0.00     0.099 A 
ATOM     12  C   UNL d   1     -50.995  15.574  23.377  0.00  0.00     0.021 A 
ATOM     13  C   UNL d   1     -50.329  15.915  23.695  0.00  0.00     0.003 A 
ATOM     14  C   UNL d   1     -49.584  15.630  23.491  0.00  0.00     0.020 A 
ENDBRANCH   8   9
ENDBRANCH   7   8
ENDBRANCH   4   7
BRANCH   3  15
ATOM     15  C   UNL d   1     -45.452  12.910  22.407  0.00  0.00     0.101 A 
ATOM     16  N   UNL d   1     -45.150  12.277  22.821  0.00  0.00    -0.242 NA
ATOM     17  C   UNL d   1     -44.398  12.000  22.655  0.00  0.00     0.099 A 
ATOM     18  C   UNL d   1     -43.944  12.368  22.062  0.00  0.00     0.021 A 
ATOM     19  C   UNL d   1     -44.252  13.003  21.649  0.00  0.00     0.003 A 
ATOM     20  C   UNL d   1     -45.010  13.286  21.813  0.00  0.00     0.021 A 
ENDBRANCH   3  15
TORSDOF 4
ENDMDL
MODEL 4
REMARK VINA RESULT:      -6.2      1.388      5.270
REMARK  4 active torsions:
REMARK  status: ('A' for Active; 'I' for Inactive)
REMARK    1  A    between atoms: C_5  and  C_3 
REMARK    2  A    between atoms: S_8  and  C_4 
REMARK    3  A    between atoms: C_12  and  S_8 
REMARK    4  A    between atoms: C_10  and  C_12 
ROOT
ATOM      1  N   UNL d   1     -48.557  13.738  23.240  0.00  0.00    -0.146 NA
ATOM      2  N   UNL d   1     -47.780  13.464  23.206  0.00  0.00    -0.141 NA
ATOM      3  C   UNL d   1     -48.745  14.491  22.948  0.00  0.00     0.121 A 
ATOM      4  C   UNL d   1     -47.187  13.929  22.885  0.00  0.00     0.133 A 
ATOM      5  C   UNL d   1     -48.148  14.963  22.623  0.00  0.00     0.025 A 
ATOM      6  C   UNL d   1     -47.374  14.686  22.590  0.00  0.00     0.029 A 
ENDROOT
BRANCH   4   7
ATOM      7  S   UNL d   1     -46.410  13.654  22.851  0.00  0.00    -0.064 SA
BRANCH   7   8
ATOM      8  C   UNL d   1     -46.230  12.965  22.442  0.00  0.00     0.056 C 
BRANCH   8   9
ATOM      9  C   UNL d   1     -45.442  12.725  22.374  0.00  0.00     0.088 A 
ATOM     10  N   UNL d   1     -45.162  12.092  22.823  0.00  0.00    -0.243 NA
ATOM     11  C   UNL d   1     -44.376  11.859  22.748  0.00  0.00     0.099 A 
ATOM     12  C   UNL d   1     -43.876  12.255  22.231  0.00  0.00     0.021 A 
ATOM     13  C   UNL d   1     -44.149  12.879  21.788  0.00  0.00     0.003 A 
ATOM     14  C   UNL d   1     -44.934  13.118  21.856  0.00  0.00     0.020 A 
ENDBRANCH   8   9
ENDBRANCH   7   8
ENDBRANCH   4   7
BRANCH   3  15
ATOM     15  C   UNL d   1     -49.522  14.766  22.982  0.00  0.00     0.101 A 
ATOM     16  N   UNL d   1     -50.062  14.516  22.427  0.00  0.00    -0.242 NA
ATOM     17  C   UNL d   1     -50.834  14.786  22.457  0.00  0.00     0.099 A 
ATOM     18  C   UNL d   1     -51.064  15.316  23.056  0.00  0.00     0.021 A 
ATOM     19  C   UNL d   1     -50.517  15.564  23.611  0.00  0.00     0.003 A 
ATOM     20  C   UNL d   1     -49.737  15.294  23.585  0.00  0.00     0.021 A 
ENDBRANCH   3  15
TORSDOF 4
ENDMDL
MODEL 5
REMARK VINA RESULT:      -5.4      7.916      8.483
REMARK  4 active torsions:
REMARK  status: ('A' for Active; 'I' for Inactive)
REMARK    1  A    between atoms: C_5  and  C_3 
REMARK    2  A    between atoms: S_8  and  C_4 
REMARK    3  A    between atoms: C_12  and  S_8 
REMARK    4  A    between atoms: C_10  and  C_12 
ROOT
ATOM      1  N   UNL d   1     -38.750  14.847  20.958  0.00  0.00    -0.146 NA
ATOM      2  N   UNL d   1     -39.052  15.113  20.238  0.00  0.00    -0.141 NA
ATOM      3  C   UNL d   1     -39.264  14.573  21.549  0.00  0.00     0.121 A 
ATOM      4  C   UNL d   1     -39.859  15.110  20.098  0.00  0.00     0.133 A 
ATOM      5  C   UNL d   1     -40.079  14.569  21.410  0.00  0.00     0.025 A 
ATOM      6  C   UNL d   1     -40.377  14.835  20.691  0.00  0.00     0.029 A 
ENDROOT
BRANCH   4   7
ATOM      7  S   UNL d   1     -40.161  15.376  19.378  0.00  0.00    -0.064 SA
BRANCH   7   8
ATOM      8  C   UNL d   1     -40.390  14.839  18.800  0.00  0.00     0.056 C 
BRANCH   8   9
ATOM      9  C   UNL d   1     -40.561  15.109  18.037  0.00  0.00     0.088 A 
ATOM     10  N   UNL d   1     -41.165  15.658  17.920  0.00  0.00    -0.243 NA
ATOM     11  C   UNL d   1     -41.329  15.922  17.157  0.00  0.00     0.099 A 
ATOM     12  C   UNL d   1     -40.894  15.640  16.521  0.00  0.00     0.021 A 
ATOM     13  C   UNL d   1     -40.298  15.099  16.634  0.00  0.00     0.003 A 
ATOM     14  C   UNL d   1     -40.127  14.830  17.393  0.00  0.00     0.020 A 
ENDBRANCH   8   9
ENDBRANCH   7   8
ENDBRANCH   4   7
BRANCH   3  15
ATOM     15  C   UNL d   1     -38.961  14.307  22.269  0.00  0.00     0.101 A 
ATOM     16  N   UNL d   1     -38.773  14.845  22.850  0.00  0.00    -0.242 NA
ATOM     17  C   UNL d   1     -38.473  14.586  23.566  0.00  0.00     0.099 A 
ATOM     18  C   UNL d   1     -38.361  13.772  23.697  0.00  0.00     0.021 A 
ATOM     19  C   UNL d   1     -38.552  13.235  23.110  0.00  0.00     0.003 A 
ATOM     20  C   UNL d   1     -38.855  13.492  22.386  0.00  0.00     0.021 A 
ENDBRANCH   3  15
TORSDOF 4
ENDMDL
MODEL 6
REMARK VINA RESULT:      -5.3      8.079      9.281
REMARK  4 active torsions:
REMARK  status: ('A' for Active; 'I' for Inactive)
REMARK    1  A    between atoms: C_5  and  C_3 
REMARK    2  A    between atoms: S_8  and  C_4 
REMARK    3  A    between atoms: C_12  and  S_8 
REMARK    4  A    between atoms: C_10  and  C_12 
ROOT
ATOM      1  N   UNL d   1     -40.404  14.529  18.859  0.00  0.00    -0.146 NA
ATOM      2  N   UNL d   1     -40.219  14.338  19.639  0.00  0.00    -0.141 NA
ATOM      3  C   UNL d   1     -40.457  15.323  18.626  0.00  0.00     0.121 A 
ATOM      4  C   UNL d   1     -40.084  14.927  20.192  0.00  0.00     0.133 A 
ATOM      5  C   UNL d   1     -40.321  15.920  19.182  0.00  0.00     0.025 A 
ATOM      6  C   UNL d   1     -40.136  15.726  19.960  0.00  0.00     0.029 A 
ENDROOT
BRANCH   4   7
ATOM      7  S   UNL d   1     -39.899  14.736  20.973  0.00  0.00    -0.064 SA
BRANCH   7   8
ATOM      8  C   UNL d   1     -39.154  14.451  21.165  0.00  0.00     0.056 C 
BRANCH   8   9
ATOM      9  C   UNL d   1     -38.974  14.275  21.953  0.00  0.00     0.088 A 
ATOM     10  N   UNL d   1     -38.885  14.884  22.502  0.00  0.00    -0.243 NA
ATOM     11  C   UNL d   1     -38.707  14.700  23.284  0.00  0.00     0.099 A 
ATOM     12  C   UNL d   1     -38.619  13.917  23.514  0.00  0.00     0.021 A 
ATOM     13  C   UNL d   1     -38.707  13.315  22.975  0.00  0.00     0.003 A 
ATOM     14  C   UNL d   1     -38.885  13.491  22.190  0.00  0.00     0.020 A 
ENDBRANCH   8   9
ENDBRANCH   7   8
ENDBRANCH   4   7
BRANCH   3  15
ATOM     15  C   UNL d   1     -40.642  15.514  17.845  0.00  0.00     0.101 A 
ATOM     16  N   UNL d   1     -41.402  15.732  17.653  0.00  0.00    -0.242 NA
ATOM     17  C   UNL d   1     -41.591  15.922  16.880  0.00  0.00     0.099 A 
ATOM     18  C   UNL d   1     -41.003  15.891  16.292  0.00  0.00     0.021 A 
ATOM     19  C   UNL d   1     -40.241  15.671  16.489  0.00  0.00     0.003 A 
ATOM     20  C   UNL d   1     -40.046  15.479  17.268  0.00  0.00     0.021 A 
ENDBRANCH   3  15
TORSDOF 4
ENDMDL
MODEL 7
REMARK VINA RESULT:      -4.5      8.567     10.304
REMARK  4 active torsions:
REMARK  status: ('A' for Active; 'I' for Inactive)
REMARK    1  A    between atoms: C_5  and  C_3 
REMARK    2  A    between atoms: S_8  and  C_4 
REMARK    3  A    between atoms: C_12  and  S_8 
REMARK    4  A    between atoms: C_10  and  C_12 
ROOT
ATOM      1  N   UNL d   1     -39.311  15.631  18.961  0.00  0.00    -0.146 NA
ATOM      2  N   UNL d   1     -38.997  15.604  18.199  0.00  0.00    -0.141 NA
ATOM      3  C   UNL d   1     -39.956  15.150  19.162  0.00  0.00     0.121 A 
ATOM      4  C   UNL d   1     -39.317  15.105  17.633  0.00  0.00     0.133 A 
ATOM      5  C   UNL d   1     -40.281  14.646  18.593  0.00  0.00     0.025 A 
ATOM      6  C   UNL d   1     -39.966  14.621  17.833  0.00  0.00     0.029 A 
ENDROOT
BRANCH   4   7
ATOM      7  S   UNL d   1     -39.003  15.078  16.871  0.00  0.00    -0.064 SA
BRANCH   7   8
ATOM      8  C   UNL d   1     -38.577  14.423  16.620  0.00  0.00     0.056 C 
BRANCH   8   9
ATOM      9  C   UNL d   1     -38.363  14.356  15.824  0.00  0.00     0.088 A 
ATOM     10  N   UNL d   1     -38.273  15.033  15.362  0.00  0.00    -0.243 NA
ATOM     11  C   UNL d   1     -38.060  14.956  14.570  0.00  0.00     0.099 A 
ATOM     12  C   UNL d   1     -37.940  14.212  14.245  0.00  0.00     0.021 A 
ATOM     13  C   UNL d   1     -38.028  13.544  14.699  0.00  0.00     0.003 A 
ATOM     14  C   UNL d   1     -38.241  13.611  15.491  0.00  0.00     0.020 A 
ENDBRANCH   8   9
ENDBRANCH   7   8
ENDBRANCH   4   7
BRANCH   3  15
ATOM     15  C   UNL d   1     -40.270  15.177  19.924  0.00  0.00     0.101 A 
ATOM     16  N   UNL d   1     -39.892  14.787  20.530  0.00  0.00    -0.242 NA
ATOM     17  C   UNL d   1     -40.199  14.811  21.288  0.00  0.00     0.099 A 
ATOM     18  C   UNL d   1     -40.900  15.235  21.437  0.00  0.00     0.021 A 
ATOM     19  C   UNL d   1     -41.276  15.626  20.824  0.00  0.00     0.003 A 
ATOM     20  C   UNL d   1     -40.970  15.604  20.058  0.00  0.00     0.021 A 
ENDBRANCH   3  15
TORSDOF 4
ENDMDL
