MODEL 1
REMARK VINA RESULT:      -7.2      0.000      0.000
REMARK  2 active torsions:
REMARK  status: ('A' for Active; 'I' for Inactive)
REMARK    1  A    between atoms: C_4  and  S_1 
REMARK    2  A    between atoms: C_6  and  C_4 
ROOT
ATOM      1  C   UNL d   1      54.140  32.358  53.887  0.00  0.00     0.013 A 
ATOM      2  C   UNL d   1      54.692  32.950  53.717  0.00  0.00     0.001 A 
ATOM      3  C   UNL d   1      53.829  32.284  54.639  0.00  0.00     0.001 A 
ATOM      4  C   UNL d   1      54.063  32.799  55.232  0.00  0.00     0.000 A 
ATOM      5  C   UNL d   1      54.929  33.468  54.311  0.00  0.00     0.000 A 
ATOM      6  C   UNL d   1      54.617  33.397  55.072  0.00  0.00     0.000 A 
ENDROOT
BRANCH   1   7
ATOM      7  C   UNL d   1      53.905  31.840  53.289  0.00  0.00     0.119 C 
BRANCH   7   8
ATOM      8  S   UNL d   1      53.102  31.726  53.132  0.00  0.00     0.303 S 
ATOM      9  O   UNL d   1      53.136  30.959  53.578  0.00  0.00    -0.197 OA
ATOM     10  O   UNL d   1      53.002  32.498  52.664  0.00  0.00    -0.197 OA
ATOM     11  N   UNL d   1      52.337  31.600  52.991  0.00  0.00    -0.043 N 
ENDBRANCH   7   8
ENDBRANCH   1   7
TORSDOF 2
ENDMDL
MODEL 2
REMARK VINA RESULT:      -7.1      0.856      1.267
REMARK  2 active torsions:
REMARK  status: ('A' for Active; 'I' for Inactive)
REMARK    1  A    between atoms: C_4  and  S_1 
REMARK    2  A    between atoms: C_6  and  C_4 
ROOT
ATOM      1  C   UNL d   1      53.790  32.665  54.096  0.00  0.00     0.013 A 
ATOM      2  C   UNL d   1      53.770  32.857  54.900  0.00  0.00     0.001 A 
ATOM      3  C   UNL d   1      54.438  32.861  53.638  0.00  0.00     0.001 A 
ATOM      4  C   UNL d   1      55.076  33.251  53.976  0.00  0.00     0.000 A 
ATOM      5  C   UNL d   1      54.408  33.248  55.241  0.00  0.00     0.000 A 
ATOM      6  C   UNL d   1      55.065  33.449  54.782  0.00  0.00     0.000 A 
ENDROOT
BRANCH   1   7
ATOM      7  C   UNL d   1      53.148  32.272  53.757  0.00  0.00     0.119 C 
BRANCH   7   8
ATOM      8  S   UNL d   1      52.664  32.662  53.213  0.00  0.00     0.303 S 
ATOM      9  O   UNL d   1      53.037  32.190  52.561  0.00  0.00    -0.197 OA
ATOM     10  O   UNL d   1      52.244  33.175  53.834  0.00  0.00    -0.197 OA
ATOM     11  N   UNL d   1      52.211  33.023  52.680  0.00  0.00    -0.043 N 
ENDBRANCH   7   8
ENDBRANCH   1   7
TORSDOF 2
ENDMDL
MODEL 3
REMARK VINA RESULT:      -7.1      0.771      1.109
REMARK  2 active torsions:
REMARK  status: ('A' for Active; 'I' for Inactive)
REMARK    1  A    between atoms: C_4  and  S_1 
REMARK    2  A    between atoms: C_6  and  C_4 
ROOT
ATOM      1  C   UNL d   1      53.818  32.808  53.821  0.00  0.00     0.013 A 
ATOM      2  C   UNL d   1      54.412  32.726  54.390  0.00  0.00     0.001 A 
ATOM      3  C   UNL d   1      53.270  33.412  53.876  0.00  0.00     0.001 A 
ATOM      4  C   UNL d   1      53.307  33.943  54.500  0.00  0.00     0.000 A 
ATOM      5  C   UNL d   1      54.451  33.258  55.018  0.00  0.00     0.000 A 
ATOM      6  C   UNL d   1      53.899  33.869  55.077  0.00  0.00     0.000 A 
ENDROOT
BRANCH   1   7
ATOM      7  C   UNL d   1      53.783  32.273  53.193  0.00  0.00     0.119 C 
BRANCH   7   8
ATOM      8  S   UNL d   1      53.163  31.729  53.147  0.00  0.00     0.303 S 
ATOM      9  O   UNL d   1      52.759  32.256  52.559  0.00  0.00    -0.197 OA
ATOM     10  O   UNL d   1      53.526  31.147  53.744  0.00  0.00    -0.197 OA
ATOM     11  N   UNL d   1      52.565  31.220  53.091  0.00  0.00    -0.043 N 
ENDBRANCH   7   8
ENDBRANCH   1   7
TORSDOF 2
ENDMDL
MODEL 4
REMARK VINA RESULT:      -6.9      1.733      2.572
REMARK  2 active torsions:
REMARK  status: ('A' for Active; 'I' for Inactive)
REMARK    1  A    between atoms: C_4  and  S_1 
REMARK    2  A    between atoms: C_6  and  C_4 
ROOT
ATOM      1  C   UNL d   1      53.752  32.078  53.645  0.00  0.00     0.013 A 
ATOM      2  C   UNL d   1      53.881  31.278  53.810  0.00  0.00     0.001 A 
ATOM      3  C   UNL d   1      53.130  32.309  53.169  0.00  0.00     0.001 A 
ATOM      4  C   UNL d   1      52.627  31.745  52.849  0.00  0.00     0.000 A 
ATOM      5  C   UNL d   1      53.379  30.710  53.491  0.00  0.00     0.000 A 
ATOM      6  C   UNL d   1      52.749  30.939  53.008  0.00  0.00     0.000 A 
ENDROOT
BRANCH   1   7
ATOM      7  C   UNL d   1      54.259  32.645  53.968  0.00  0.00     0.119 C 
BRANCH   7   8
ATOM      8  S   UNL d   1      53.981  33.170  54.542  0.00  0.00     0.303 S 
ATOM      9  O   UNL d   1      53.849  33.776  53.906  0.00  0.00    -0.197 OA
ATOM     10  O   UNL d   1      54.094  32.595  55.236  0.00  0.00    -0.197 OA
ATOM     11  N   UNL d   1      53.714  33.684  55.075  0.00  0.00    -0.043 N 
ENDBRANCH   7   8
ENDBRANCH   1   7
TORSDOF 2
ENDMDL
MODEL 5
REMARK VINA RESULT:      -6.8      1.714      2.035
REMARK  2 active torsions:
REMARK  status: ('A' for Active; 'I' for Inactive)
REMARK    1  A    between atoms: C_4  and  S_1 
REMARK    2  A    between atoms: C_6  and  C_4 
ROOT
ATOM      1  C   UNL d   1      53.278  33.495  54.168  0.00  0.00     0.013 A 
ATOM      2  C   UNL d   1      53.620  33.837  54.839  0.00  0.00     0.001 A 
ATOM      3  C   UNL d   1      53.714  33.000  53.685  0.00  0.00     0.001 A 
ATOM      4  C   UNL d   1      54.497  32.839  53.865  0.00  0.00     0.000 A 
ATOM      5  C   UNL d   1      54.406  33.676  55.021  0.00  0.00     0.000 A 
ATOM      6  C   UNL d   1      54.851  33.177  54.536  0.00  0.00     0.000 A 
ENDROOT
BRANCH   1   7
ATOM      7  C   UNL d   1      52.489  33.658  53.988  0.00  0.00     0.119 C 
BRANCH   7   8
ATOM      8  S   UNL d   1      52.300  34.116  53.327  0.00  0.00     0.303 S 
ATOM      9  O   UNL d   1      52.127  33.371  52.876  0.00  0.00    -0.197 OA
ATOM     10  O   UNL d   1      52.462  34.912  53.733  0.00  0.00    -0.197 OA
ATOM     11  N   UNL d   1      52.117  34.536  52.687  0.00  0.00    -0.043 N 
ENDBRANCH   7   8
ENDBRANCH   1   7
TORSDOF 2
ENDMDL
MODEL 6
REMARK VINA RESULT:      -6.5      2.604      2.929
REMARK  2 active torsions:
REMARK  status: ('A' for Active; 'I' for Inactive)
REMARK    1  A    between atoms: C_4  and  S_1 
REMARK    2  A    between atoms: C_6  and  C_4 
ROOT
ATOM      1  C   UNL d   1      53.039  33.892  54.262  0.00  0.00     0.013 A 
ATOM      2  C   UNL d   1      52.608  33.336  53.827  0.00  0.00     0.001 A 
ATOM      3  C   UNL d   1      53.046  34.678  54.039  0.00  0.00     0.001 A 
ATOM      4  C   UNL d   1      52.624  34.921  53.379  0.00  0.00     0.000 A 
ATOM      5  C   UNL d   1      52.184  33.577  53.165  0.00  0.00     0.000 A 
ATOM      6  C   UNL d   1      52.188  34.370  52.936  0.00  0.00     0.000 A 
ENDROOT
BRANCH   1   7
ATOM      7  C   UNL d   1      53.463  33.646  54.926  0.00  0.00     0.119 C 
BRANCH   7   8
ATOM      8  S   UNL d   1      54.281  33.543  54.880  0.00  0.00     0.303 S 
ATOM      9  O   UNL d   1      54.391  34.370  55.183  0.00  0.00    -0.197 OA
ATOM     10  O   UNL d   1      54.236  32.691  54.567  0.00  0.00    -0.197 OA
ATOM     11  N   UNL d   1      55.064  33.462  54.843  0.00  0.00    -0.043 N 
ENDBRANCH   7   8
ENDBRANCH   1   7
TORSDOF 2
ENDMDL
