MODEL 1
REMARK VINA RESULT:      -8.1      0.000      0.000
REMARK  3 active torsions:
REMARK  status: ('A' for Active; 'I' for Inactive)
REMARK    1  A    between atoms: C_2  and  C_1 
REMARK       I    between atoms: N_8  and  C_2 
REMARK    2  A    between atoms: C_12  and  C_4 
REMARK    3  A    between atoms: C_9  and  N_8 
ROOT
ATOM      1  C   UNL d   1     -47.831  13.552  22.425  0.00  0.00     0.106 A 
ATOM      2  C   UNL d   1     -47.274  14.232  22.288  0.00  0.00     0.093 A 
ATOM      3  C   UNL d   1     -47.662  12.968  22.818  0.00  0.00     0.093 A 
ATOM      4  C   UNL d   1     -46.371  13.477  23.087  0.00  0.00     0.369 A 
ATOM      5  N   UNL d   1     -46.547  14.154  22.640  0.00  0.00    -0.191 NA
ATOM      6  N   UNL d   1     -46.929  12.885  23.176  0.00  0.00    -0.191 NA
ATOM      7  O   UNL d   1     -45.628  13.404  23.443  0.00  0.00    -0.242 OA
ATOM      8  C   UNL d   1     -47.489  14.882  21.840  0.00  0.00     0.021 C 
ENDROOT
BRANCH   1   9
ATOM      9  C   UNL d   1     -48.578  13.592  22.086  0.00  0.00     0.331 C 
ATOM     10  N   UNL d   1     -49.133  14.123  22.364  0.00  0.00    -0.365 NA
ATOM     11  O   UNL d   1     -48.765  13.092  21.461  0.00  0.00    -0.251 OA
BRANCH  10  12
ATOM     12  C   UNL d   1     -49.705  14.698  22.681  0.00  0.00     0.135 A 
ATOM     13  C   UNL d   1     -50.497  14.799  22.309  0.00  0.00     0.030 A 
ATOM     14  C   UNL d   1     -50.707  14.307  21.607  0.00  0.00     0.003 C 
ATOM     15  C   UNL d   1     -51.064  15.368  22.623  0.00  0.00     0.003 A 
ATOM     16  C   UNL d   1     -50.858  15.861  23.325  0.00  0.00     0.000 A 
ATOM     17  C   UNL d   1     -50.072  15.765  23.698  0.00  0.00     0.003 A 
ATOM     18  C   UNL d   1     -49.496  15.187  23.380  0.00  0.00     0.032 A 
ENDBRANCH  10  12
ENDBRANCH   1   9
BRANCH   3  19
ATOM     19  C   UNL d   1     -48.223  12.376  22.905  0.00  0.00     0.018 A 
ATOM     20  C   UNL d   1     -48.365  11.839  22.294  0.00  0.00     0.002 A 
ATOM     21  C   UNL d   1     -48.926  11.253  22.392  0.00  0.00     0.000 A 
ATOM     22  C   UNL d   1     -49.348  11.197  23.093  0.00  0.00     0.000 A 
ATOM     23  C   UNL d   1     -49.208  11.727  23.697  0.00  0.00     0.000 A 
ATOM     24  C   UNL d   1     -48.651  12.316  23.611  0.00  0.00     0.002 A 
ENDBRANCH   3  19
TORSDOF 3
ENDMDL
MODEL 2
REMARK VINA RESULT:      -8.0      1.398      3.235
REMARK  3 active torsions:
REMARK  status: ('A' for Active; 'I' for Inactive)
REMARK    1  A    between atoms: C_2  and  C_1 
REMARK       I    between atoms: N_8  and  C_2 
REMARK    2  A    between atoms: C_12  and  C_4 
REMARK    3  A    between atoms: C_9  and  N_8 
ROOT
ATOM      1  C   UNL d   1     -49.449  14.371  22.439  0.00  0.00     0.106 A 
ATOM      2  C   UNL d   1     -49.272  15.238  22.350  0.00  0.00     0.093 A 
ATOM      3  C   UNL d   1     -49.977  14.110  22.860  0.00  0.00     0.093 A 
ATOM      4  C   UNL d   1     -50.353  15.413  23.258  0.00  0.00     0.369 A 
ATOM      5  N   UNL d   1     -49.753  15.730  22.781  0.00  0.00    -0.191 NA
ATOM      6  N   UNL d   1     -50.465  14.604  23.297  0.00  0.00    -0.191 NA
ATOM      7  O   UNL d   1     -50.840  15.921  23.694  0.00  0.00    -0.242 OA
ATOM      8  C   UNL d   1     -48.669  15.508  21.868  0.00  0.00     0.021 C 
ENDROOT
BRANCH   1   9
ATOM      9  C   UNL d   1     -48.985  13.839  22.020  0.00  0.00     0.331 C 
ATOM     10  N   UNL d   1     -48.203  13.718  22.223  0.00  0.00    -0.365 NA
ATOM     11  O   UNL d   1     -49.314  13.425  21.390  0.00  0.00    -0.251 OA
BRANCH  10  12
ATOM     12  C   UNL d   1     -47.373  13.610  22.462  0.00  0.00     0.135 A 
ATOM     13  C   UNL d   1     -46.833  13.091  21.997  0.00  0.00     0.030 A 
ATOM     14  C   UNL d   1     -47.145  12.680  21.281  0.00  0.00     0.003 C 
ATOM     15  C   UNL d   1     -46.011  12.984  22.234  0.00  0.00     0.003 A 
ATOM     16  C   UNL d   1     -45.696  13.394  22.949  0.00  0.00     0.000 A 
ATOM     17  C   UNL d   1     -46.228  13.909  23.414  0.00  0.00     0.003 A 
ATOM     18  C   UNL d   1     -47.063  14.019  23.175  0.00  0.00     0.032 A 
ENDBRANCH  10  12
ENDBRANCH   1   9
BRANCH   3  19
ATOM     19  C   UNL d   1     -50.087  13.298  22.897  0.00  0.00     0.018 A 
ATOM     20  C   UNL d   1     -49.856  12.874  23.567  0.00  0.00     0.002 A 
ATOM     21  C   UNL d   1     -49.971  12.066  23.593  0.00  0.00     0.000 A 
ATOM     22  C   UNL d   1     -50.312  11.675  22.958  0.00  0.00     0.000 A 
ATOM     23  C   UNL d   1     -50.540  12.094  22.297  0.00  0.00     0.000 A 
ATOM     24  C   UNL d   1     -50.432  12.900  22.258  0.00  0.00     0.002 A 
ENDBRANCH   3  19
TORSDOF 3
ENDMDL
MODEL 3
REMARK VINA RESULT:      -7.1      1.367      3.557
REMARK  3 active torsions:
REMARK  status: ('A' for Active; 'I' for Inactive)
REMARK    1  A    between atoms: C_2  and  C_1 
REMARK       I    between atoms: N_8  and  C_2 
REMARK    2  A    between atoms: C_12  and  C_4 
REMARK    3  A    between atoms: C_9  and  N_8 
ROOT
ATOM      1  C   UNL d   1     -49.715  12.853  22.552  0.00  0.00     0.106 A 
ATOM      2  C   UNL d   1     -49.470  12.002  22.462  0.00  0.00     0.093 A 
ATOM      3  C   UNL d   1     -50.286  13.067  22.943  0.00  0.00     0.093 A 
ATOM      4  C   UNL d   1     -50.590  11.733  23.298  0.00  0.00     0.369 A 
ATOM      5  N   UNL d   1     -49.940  11.469  22.856  0.00  0.00    -0.191 NA
ATOM      6  N   UNL d   1     -50.763  12.532  23.341  0.00  0.00    -0.191 NA
ATOM      7  O   UNL d   1     -51.064  11.184  23.697  0.00  0.00    -0.242 OA
ATOM      8  C   UNL d   1     -48.821  11.785  22.015  0.00  0.00     0.021 C 
ENDROOT
BRANCH   1   9
ATOM      9  C   UNL d   1     -49.267  13.424  22.170  0.00  0.00     0.331 C 
ATOM     10  N   UNL d   1     -48.500  13.579  22.407  0.00  0.00    -0.365 NA
ATOM     11  O   UNL d   1     -49.594  13.843  21.543  0.00  0.00    -0.251 OA
BRANCH  10  12
ATOM     12  C   UNL d   1     -47.686  13.723  22.682  0.00  0.00     0.135 A 
ATOM     13  C   UNL d   1     -47.222  14.407  22.378  0.00  0.00     0.030 A 
ATOM     14  C   UNL d   1     -47.592  14.949  21.788  0.00  0.00     0.003 C 
ATOM     15  C   UNL d   1     -46.416  14.549  22.650  0.00  0.00     0.003 A 
ATOM     16  C   UNL d   1     -46.042  14.010  23.239  0.00  0.00     0.000 A 
ATOM     17  C   UNL d   1     -46.500  13.329  23.544  0.00  0.00     0.003 A 
ATOM     18  C   UNL d   1     -47.318  13.183  23.269  0.00  0.00     0.032 A 
ENDBRANCH  10  12
ENDBRANCH   1   9
BRANCH   3  19
ATOM     19  C   UNL d   1     -50.457  13.868  22.984  0.00  0.00     0.018 A 
ATOM     20  C   UNL d   1     -50.842  14.248  22.360  0.00  0.00     0.002 A 
ATOM     21  C   UNL d   1     -51.006  15.046  22.413  0.00  0.00     0.000 A 
ATOM     22  C   UNL d   1     -50.791  15.471  23.080  0.00  0.00     0.000 A 
ATOM     23  C   UNL d   1     -50.411  15.096  23.696  0.00  0.00     0.000 A 
ATOM     24  C   UNL d   1     -50.241  14.300  23.656  0.00  0.00     0.002 A 
ENDBRANCH   3  19
TORSDOF 3
ENDMDL
MODEL 4
REMARK VINA RESULT:      -6.3      8.493     10.474
REMARK  3 active torsions:
REMARK  status: ('A' for Active; 'I' for Inactive)
REMARK    1  A    between atoms: C_2  and  C_1 
REMARK       I    between atoms: N_8  and  C_2 
REMARK    2  A    between atoms: C_12  and  C_4 
REMARK    3  A    between atoms: C_9  and  N_8 
ROOT
ATOM      1  C   UNL d   1     -38.716  14.025  18.340  0.00  0.00     0.106 A 
ATOM      2  C   UNL d   1     -38.278  13.371  18.756  0.00  0.00     0.093 A 
ATOM      3  C   UNL d   1     -38.952  13.978  17.657  0.00  0.00     0.093 A 
ATOM      4  C   UNL d   1     -38.436  12.669  17.529  0.00  0.00     0.369 A 
ATOM      5  N   UNL d   1     -38.158  12.704  18.310  0.00  0.00    -0.191 NA
ATOM      6  N   UNL d   1     -38.833  13.306  17.203  0.00  0.00    -0.191 NA
ATOM      7  O   UNL d   1     -38.310  11.984  17.080  0.00  0.00    -0.242 OA
ATOM      8  C   UNL d   1     -38.021  13.448  19.529  0.00  0.00     0.021 C 
ENDROOT
BRANCH   1   9
ATOM      9  C   UNL d   1     -38.858  14.718  18.756  0.00  0.00     0.331 C 
ATOM     10  N   UNL d   1     -39.416  14.738  19.353  0.00  0.00    -0.365 NA
ATOM     11  O   UNL d   1     -38.434  15.397  18.569  0.00  0.00    -0.251 OA
BRANCH  10  12
ATOM     12  C   UNL d   1     -40.016  14.730  19.984  0.00  0.00     0.135 A 
ATOM     13  C   UNL d   1     -39.989  15.318  20.640  0.00  0.00     0.030 A 
ATOM     14  C   UNL d   1     -39.344  15.919  20.651  0.00  0.00     0.003 C 
ATOM     15  C   UNL d   1     -40.584  15.310  21.265  0.00  0.00     0.003 A 
ATOM     16  C   UNL d   1     -41.232  14.710  21.256  0.00  0.00     0.000 A 
ATOM     17  C   UNL d   1     -41.262  14.125  20.607  0.00  0.00     0.003 A 
ATOM     18  C   UNL d   1     -40.659  14.131  19.972  0.00  0.00     0.032 A 
ENDBRANCH  10  12
ENDBRANCH   1   9
BRANCH   3  19
ATOM     19  C   UNL d   1     -39.349  14.619  17.334  0.00  0.00     0.018 A 
ATOM     20  C   UNL d   1     -38.935  15.289  17.089  0.00  0.00     0.002 A 
ATOM     21  C   UNL d   1     -39.341  15.921  16.768  0.00  0.00     0.000 A 
ATOM     22  C   UNL d   1     -40.157  15.892  16.688  0.00  0.00     0.000 A 
ATOM     23  C   UNL d   1     -40.566  15.229  16.929  0.00  0.00     0.000 A 
ATOM     24  C   UNL d   1     -40.173  14.593  17.251  0.00  0.00     0.002 A 
ENDBRANCH   3  19
TORSDOF 3
ENDMDL
MODEL 5
REMARK VINA RESULT:      -5.9      1.399      3.402
REMARK  3 active torsions:
REMARK  status: ('A' for Active; 'I' for Inactive)
REMARK    1  A    between atoms: C_2  and  C_1 
REMARK       I    between atoms: N_8  and  C_2 
REMARK    2  A    between atoms: C_12  and  C_4 
REMARK    3  A    between atoms: C_9  and  N_8 
ROOT
ATOM      1  C   UNL d   1     -49.505  14.204  22.833  0.00  0.00     0.106 A 
ATOM      2  C   UNL d   1     -49.472  15.059  23.079  0.00  0.00     0.093 A 
ATOM      3  C   UNL d   1     -49.965  13.947  22.336  0.00  0.00     0.093 A 
ATOM      4  C   UNL d   1     -50.524  15.229  22.136  0.00  0.00     0.369 A 
ATOM      5  N   UNL d   1     -50.005  15.542  22.702  0.00  0.00    -0.191 NA
ATOM      6  N   UNL d   1     -50.504  14.432  21.953  0.00  0.00    -0.191 NA
ATOM      7  O   UNL d   1     -51.064  15.729  21.756  0.00  0.00    -0.242 OA
ATOM      8  C   UNL d   1     -48.943  15.325  23.642  0.00  0.00     0.021 C 
ENDROOT
BRANCH   1   9
ATOM      9  C   UNL d   1     -48.983  13.681  23.190  0.00  0.00     0.331 C 
ATOM     10  N   UNL d   1     -48.181  13.730  23.044  0.00  0.00    -0.365 NA
ATOM     11  O   UNL d   1     -49.273  13.104  23.698  0.00  0.00    -0.251 OA
BRANCH  10  12
ATOM     12  C   UNL d   1     -47.330  13.805  22.870  0.00  0.00     0.135 A 
ATOM     13  C   UNL d   1     -46.751  13.223  23.190  0.00  0.00     0.030 A 
ATOM     14  C   UNL d   1     -47.043  12.558  23.691  0.00  0.00     0.003 C 
ATOM     15  C   UNL d   1     -45.909  13.297  23.017  0.00  0.00     0.003 A 
ATOM     16  C   UNL d   1     -45.614  13.961  22.517  0.00  0.00     0.000 A 
ATOM     17  C   UNL d   1     -46.185  14.541  22.197  0.00  0.00     0.003 A 
ATOM     18  C   UNL d   1     -47.040  14.467  22.371  0.00  0.00     0.032 A 
ENDBRANCH  10  12
ENDBRANCH   1   9
BRANCH   3  19
ATOM     19  C   UNL d   1     -49.943  13.147  22.155  0.00  0.00     0.018 A 
ATOM     20  C   UNL d   1     -50.265  12.591  22.673  0.00  0.00     0.002 A 
ATOM     21  C   UNL d   1     -50.237  11.797  22.482  0.00  0.00     0.000 A 
ATOM     22  C   UNL d   1     -49.891  11.552  21.780  0.00  0.00     0.000 A 
ATOM     23  C   UNL d   1     -49.573  12.101  21.269  0.00  0.00     0.000 A 
ATOM     24  C   UNL d   1     -49.594  12.896  21.447  0.00  0.00     0.002 A 
ENDBRANCH   3  19
TORSDOF 3
ENDMDL
MODEL 6
REMARK VINA RESULT:      -5.7      7.896      9.999
REMARK  3 active torsions:
REMARK  status: ('A' for Active; 'I' for Inactive)
REMARK    1  A    between atoms: C_2  and  C_1 
REMARK       I    between atoms: N_8  and  C_2 
REMARK    2  A    between atoms: C_12  and  C_4 
REMARK    3  A    between atoms: C_9  and  N_8 
ROOT
ATOM      1  C   UNL d   1     -39.401  14.687  19.699  0.00  0.00     0.106 A 
ATOM      2  C   UNL d   1     -38.723  14.420  19.189  0.00  0.00     0.093 A 
ATOM      3  C   UNL d   1     -40.097  14.569  19.537  0.00  0.00     0.093 A 
ATOM      4  C   UNL d   1     -39.742  13.898  18.344  0.00  0.00     0.369 A 
ATOM      5  N   UNL d   1     -38.940  14.025  18.514  0.00  0.00    -0.191 NA
ATOM      6  N   UNL d   1     -40.320  14.170  18.856  0.00  0.00    -0.191 NA
ATOM      7  O   UNL d   1     -39.956  13.495  17.654  0.00  0.00    -0.242 OA
ATOM      8  C   UNL d   1     -37.945  14.566  19.394  0.00  0.00     0.021 C 
ENDROOT
BRANCH   1   9
ATOM      9  C   UNL d   1     -39.225  15.091  20.392  0.00  0.00     0.331 C 
ATOM     10  N   UNL d   1     -38.920  14.694  21.038  0.00  0.00    -0.365 NA
ATOM     11  O   UNL d   1     -39.359  15.901  20.434  0.00  0.00    -0.251 OA
BRANCH  10  12
ATOM     12  C   UNL d   1     -38.595  14.246  21.711  0.00  0.00     0.135 A 
ATOM     13  C   UNL d   1     -38.280  14.663  22.420  0.00  0.00     0.030 A 
ATOM     14  C   UNL d   1     -38.296  15.544  22.443  0.00  0.00     0.003 C 
ATOM     15  C   UNL d   1     -37.958  14.218  23.086  0.00  0.00     0.003 A 
ATOM     16  C   UNL d   1     -37.940  13.337  23.067  0.00  0.00     0.000 A 
ATOM     17  C   UNL d   1     -38.251  12.919  22.365  0.00  0.00     0.003 A 
ATOM     18  C   UNL d   1     -38.578  13.368  21.688  0.00  0.00     0.032 A 
ENDBRANCH  10  12
ENDBRANCH   1   9
BRANCH   3  19
ATOM     19  C   UNL d   1     -40.674  14.842  20.052  0.00  0.00     0.018 A 
ATOM     20  C   UNL d   1     -41.082  14.318  20.541  0.00  0.00     0.002 A 
ATOM     21  C   UNL d   1     -41.655  14.602  21.050  0.00  0.00     0.000 A 
ATOM     22  C   UNL d   1     -41.825  15.404  21.076  0.00  0.00     0.000 A 
ATOM     23  C   UNL d   1     -41.421  15.922  20.593  0.00  0.00     0.000 A 
ATOM     24  C   UNL d   1     -40.848  15.651  20.081  0.00  0.00     0.002 A 
ENDBRANCH   3  19
TORSDOF 3
ENDMDL
MODEL 7
REMARK VINA RESULT:      -5.2      1.399      3.843
REMARK  3 active torsions:
REMARK  status: ('A' for Active; 'I' for Inactive)
REMARK    1  A    between atoms: C_2  and  C_1 
REMARK       I    between atoms: N_8  and  C_2 
REMARK    2  A    between atoms: C_12  and  C_4 
REMARK    3  A    between atoms: C_9  and  N_8 
ROOT
ATOM      1  C   UNL d   1     -48.611  12.808  23.067  0.00  0.00     0.106 A 
ATOM      2  C   UNL d   1     -48.424  11.979  23.331  0.00  0.00     0.093 A 
ATOM      3  C   UNL d   1     -49.229  12.996  22.740  0.00  0.00     0.093 A 
ATOM      4  C   UNL d   1     -49.708  11.668  22.802  0.00  0.00     0.369 A 
ATOM      5  N   UNL d   1     -49.007  11.435  23.177  0.00  0.00    -0.191 NA
ATOM      6  N   UNL d   1     -49.819  12.449  22.583  0.00  0.00    -0.191 NA
ATOM      7  O   UNL d   1     -50.297  11.107  22.649  0.00  0.00    -0.242 OA
ATOM      8  C   UNL d   1     -47.719  11.792  23.698  0.00  0.00     0.021 C 
ENDROOT
BRANCH   1   9
ATOM      9  C   UNL d   1     -48.048  13.391  23.203  0.00  0.00     0.331 C 
ATOM     10  N   UNL d   1     -47.312  13.348  22.851  0.00  0.00    -0.365 NA
ATOM     11  O   UNL d   1     -48.230  14.021  23.698  0.00  0.00    -0.251 OA
BRANCH  10  12
ATOM     12  C   UNL d   1     -46.536  13.277  22.462  0.00  0.00     0.135 A 
ATOM     13  C   UNL d   1     -45.900  13.868  22.613  0.00  0.00     0.030 A 
ATOM     14  C   UNL d   1     -46.059  14.538  23.164  0.00  0.00     0.003 C 
ATOM     15  C   UNL d   1     -45.131  13.798  22.228  0.00  0.00     0.003 A 
ATOM     16  C   UNL d   1     -44.969  13.130  21.675  0.00  0.00     0.000 A 
ATOM     17  C   UNL d   1     -45.597  12.540  21.523  0.00  0.00     0.003 A 
ATOM     18  C   UNL d   1     -46.378  12.610  21.913  0.00  0.00     0.032 A 
ENDBRANCH  10  12
ENDBRANCH   1   9
BRANCH   3  19
ATOM     19  C   UNL d   1     -49.337  13.780  22.522  0.00  0.00     0.018 A 
ATOM     20  C   UNL d   1     -49.181  14.026  21.749  0.00  0.00     0.002 A 
ATOM     21  C   UNL d   1     -49.292  14.808  21.544  0.00  0.00     0.000 A 
ATOM     22  C   UNL d   1     -49.558  15.349  22.100  0.00  0.00     0.000 A 
ATOM     23  C   UNL d   1     -49.712  15.106  22.863  0.00  0.00     0.000 A 
ATOM     24  C   UNL d   1     -49.605  14.329  23.081  0.00  0.00     0.002 A 
ENDBRANCH   3  19
TORSDOF 3
ENDMDL
