MODEL 1
REMARK VINA RESULT:      11.9      0.000      0.000
REMARK  7 active torsions:
REMARK  status: ('A' for Active; 'I' for Inactive)
REMARK    1  A    between atoms: N_8  and  C_1 
REMARK    2  A    between atoms: C_14  and  C_2 
REMARK    3  A    between atoms: S_3  and  C_16 
REMARK    4  A    between atoms: N_7  and  S_3 
REMARK       I    between atoms: C_12  and  N_8 
REMARK       I    between atoms: C_13  and  N_11 
REMARK    5  A    between atoms: C_22  and  C_12 
REMARK    6  A    between atoms: O_33  and  C_13 
REMARK    7  A    between atoms: C_38  and  O_33 
ROOT
ATOM      1  C   UNL d   1      55.529   0.197  32.948  0.00  0.00     0.104 A 
ATOM      2  C   UNL d   1      56.870   0.073  32.010  0.00  0.00     0.056 A 
ATOM      3  C   UNL d   1      55.584   0.635  32.249  0.00  0.00     0.013 A 
ATOM      4  C   UNL d   1      56.141  -0.303  33.180  0.00  0.00     0.013 A 
ATOM      5  C   UNL d   1      56.256   0.573  31.778  0.00  0.00     0.005 A 
ATOM      6  C   UNL d   1      56.817  -0.364  32.704  0.00  0.00     0.005 A 
ENDROOT
BRANCH   2   7
ATOM      7  C   UNL d   1      57.546   0.007  31.540  0.00  0.00     0.258 C 
ATOM      8  N   UNL d   1      57.593  -0.584  30.956  0.00  0.00    -0.316 N 
ATOM      9  H   UNL d   1      57.003  -0.711  31.193  0.00  0.00     0.169 HD
ATOM     10  O   UNL d   1      58.185   0.524  31.641  0.00  0.00    -0.267 OA
BRANCH   8  11
ATOM     11  C   UNL d   1      58.270  -0.650  30.486  0.00  0.00     0.094 A 
ATOM     12  C   UNL d   1      58.503  -1.318  30.071  0.00  0.00     0.081 A 
ATOM     13  C   UNL d   1      59.209  -1.151  29.672  0.00  0.00     0.008 A 
ATOM     14  C   UNL d   1      59.685  -1.606  29.181  0.00  0.00    -0.004 A 
ATOM     15  C   UNL d   1      59.415  -0.375  29.842  0.00  0.00     0.028 A 
ATOM     16  C   UNL d   1      60.369  -1.281  28.860  0.00  0.00     0.099 A 
ATOM     17  C   UNL d   1      60.562  -1.982  28.457  0.00  0.00     0.029 C 
ATOM     18  C   UNL d   1      61.075  -1.125  28.457  0.00  0.00     0.029 C 
ATOM     19  N   UNL d   1      60.585  -0.506  29.022  0.00  0.00    -0.294 NA
ATOM     20  C   UNL d   1      60.101  -0.049  29.519  0.00  0.00     0.104 A 
ATOM     21  C   UNL d   1      59.910   0.654  29.920  0.00  0.00     0.029 C 
ATOM     22  C   UNL d   1      60.790   0.313  29.208  0.00  0.00     0.029 C 
ATOM     23  S   UNL d   1      58.836  -0.056  30.347  0.00  0.00    -0.072 SA
BRANCH  12  24
ATOM     24  C   UNL d   1      58.107  -2.038  30.048  0.00  0.00     0.299 C 
ATOM     25  O   UNL d   1      58.308  -2.626  30.574  0.00  0.00    -0.264 OA
ATOM     26  N   UNL d   1      57.520  -2.158  29.502  0.00  0.00    -0.102 N 
ENDBRANCH  12  24
ENDBRANCH   8  11
ENDBRANCH   2   7
BRANCH   1  27
ATOM     27  S   UNL d   1      54.845   0.261  33.425  0.00  0.00     0.271 S 
ATOM     28  O   UNL d   1      54.490   0.679  32.800  0.00  0.00    -0.200 OA
ATOM     29  O   UNL d   1      55.206  -0.154  34.039  0.00  0.00    -0.200 OA
BRANCH  27  30
ATOM     30  N   UNL d   1      54.176   0.324  33.891  0.00  0.00    -0.226 N 
ATOM     31  C   UNL d   1      54.240   0.479  34.697  0.00  0.00     0.111 A 
ATOM     32  C   UNL d   1      53.557   0.539  35.154  0.00  0.00     0.105 A 
ATOM     33  N   UNL d   1      52.812   0.447  34.811  0.00  0.00    -0.248 N 
ATOM     34  C   UNL d   1      52.754   0.292  34.004  0.00  0.00     0.105 A 
ATOM     35  C   UNL d   1      52.138   0.508  35.269  0.00  0.00     0.378 C 
ATOM     36  C   UNL d   1      53.434   0.232  33.551  0.00  0.00     0.111 A 
ATOM     37  O   UNL d   1      52.202   0.662  36.075  0.00  0.00    -0.237 OA
BRANCH  35  38
ATOM     38  O   UNL d   1      51.403   0.416  34.928  0.00  0.00    -0.257 OA
BRANCH  38  39
ATOM     39  C   UNL d   1      50.842  -0.051  35.296  0.00  0.00     0.128 C 
ATOM     40  C   UNL d   1      50.743  -0.838  35.058  0.00  0.00     0.029 C 
ENDBRANCH  38  39
ENDBRANCH  35  38
ENDBRANCH  27  30
ENDBRANCH   1  27
TORSDOF 7
ENDMDL
