MODEL 1
REMARK VINA RESULT:       1.9      0.000      0.000
REMARK  3 active torsions:
REMARK  status: ('A' for Active; 'I' for Inactive)
REMARK       I    between atoms: C_4  and  N_1 
REMARK    1  A    between atoms: C_7  and  C_3 
REMARK    2  A    between atoms: C_9  and  C_4 
REMARK    3  A    between atoms: C_8  and  C_5 
ROOT
ATOM      1  N   UNL d   1     -41.581-122.186 -51.886  0.00  0.00    -0.191 N 
ATOM      2  N   UNL d   1     -41.622-122.197 -51.070  0.00  0.00    -0.163 NA
ATOM      3  C   UNL d   1     -41.710-122.980 -52.141  0.00  0.00     0.110 A 
ATOM      4  C   UNL d   1     -41.445-121.547 -52.363  0.00  0.00     0.303 C 
ATOM      5  C   UNL d   1     -41.771-122.966 -50.812  0.00  0.00     0.103 A 
ATOM      6  C   UNL d   1     -41.824-123.442 -51.465  0.00  0.00     0.042 A 
ATOM      7  O   UNL d   1     -41.424-121.663 -53.224  0.00  0.00    -0.263 OA
ENDROOT
BRANCH   3   8
ATOM      8  C   UNL d   1     -41.719-123.241 -52.923  0.00  0.00     0.118 A 
ATOM      9  O   UNL d   1     -42.322-123.117 -53.453  0.00  0.00    -0.304 OA
ATOM     10  C   UNL d   1     -42.106-123.472 -54.180  0.00  0.00     0.123 A 
ATOM     11  C   UNL d   1     -41.362-123.812 -54.075  0.00  0.00     0.029 A 
ATOM     12  C   UNL d   1     -41.129-123.661 -53.286  0.00  0.00     0.028 A 
ENDBRANCH   3   8
BRANCH   4  13
ATOM     13  C   UNL d   1     -41.326-120.796 -52.066  0.00  0.00     0.158 A 
ATOM     14  O   UNL d   1     -41.244-120.586 -51.276  0.00  0.00    -0.300 OA
ATOM     15  C   UNL d   1     -41.134-119.775 -51.223  0.00  0.00     0.123 A 
ATOM     16  C   UNL d   1     -41.147-119.472 -51.987  0.00  0.00     0.029 A 
ATOM     17  C   UNL d   1     -41.265-120.100 -52.515  0.00  0.00     0.032 A 
ENDBRANCH   4  13
BRANCH   5  18
ATOM     18  C   UNL d   1     -41.848-123.186 -50.012  0.00  0.00     0.019 A 
ATOM     19  C   UNL d   1     -42.562-123.091 -49.662  0.00  0.00     0.002 A 
ATOM     20  C   UNL d   1     -42.674-123.298 -48.872  0.00  0.00     0.007 A 
ATOM     21  C   UNL d   1     -42.047-123.601 -48.447  0.00  0.00     0.035 A 
ATOM     22  C   UNL d   1     -41.297-123.707 -48.793  0.00  0.00     0.007 A 
ATOM     23 BR   UNL d   1     -42.165-123.806 -47.657  0.00  0.00    -0.049 Br
ATOM     24  C   UNL d   1     -41.202-123.488 -49.607  0.00  0.00     0.002 A 
ENDBRANCH   5  18
TORSDOF 3
ENDMDL
