MODEL 1
REMARK VINA RESULT:      -6.1      0.000      0.000
REMARK  2 active torsions:
REMARK  status: ('A' for Active; 'I' for Inactive)
REMARK    1  A    between atoms: C_10  and  N_1 
REMARK    2  A    between atoms: C_6  and  C_7 
ROOT
ATOM      1  N   UNL d   1      55.906  -0.581  32.995  0.00  0.00    -0.288 N 
ATOM      2  C   UNL d   1      55.889  -1.404  32.888  0.00  0.00     0.183 A 
ATOM      3  N   UNL d   1      56.351  -1.588  32.220  0.00  0.00    -0.224 NA
ATOM      4  C   UNL d   1      56.377  -0.258  32.396  0.00  0.00     0.083 A 
ATOM      5  C   UNL d   1      56.650  -0.875  31.921  0.00  0.00     0.099 A 
ATOM      6  C   UNL d   1      57.351   0.065  31.103  0.00  0.00     0.066 A 
ATOM      7  C   UNL d   1      57.138  -0.711  31.273  0.00  0.00     0.027 A 
ATOM      8  C   UNL d   1      56.592   0.523  32.223  0.00  0.00     0.019 A 
ATOM      9  C   UNL d   1      57.078   0.682  31.578  0.00  0.00     0.008 A 
ENDROOT
BRANCH   1  10
ATOM     10  C   UNL d   1      55.525  -0.163  33.586  0.00  0.00     0.066 A 
ATOM     11  C   UNL d   1      55.880  -0.081  34.329  0.00  0.00     0.018 A 
ATOM     12  C   UNL d   1      55.506   0.335  34.922  0.00  0.00     0.002 A 
ATOM     13  C   UNL d   1      54.761   0.682  34.788  0.00  0.00     0.000 A 
ATOM     14  C   UNL d   1      54.408   0.600  34.049  0.00  0.00     0.002 A 
ATOM     15  C   UNL d   1      54.789   0.177  33.446  0.00  0.00     0.018 A 
ENDBRANCH   1  10
BRANCH   6  16
ATOM     16  C   UNL d   1      57.837   0.226  30.458  0.00  0.00     0.211 C 
ATOM     17  O   UNL d   1      57.504   0.437  29.733  0.00  0.00    -0.644 OA
ATOM     18  O   UNL d   1      58.662   0.176  30.534  0.00  0.00    -0.644 OA
ENDBRANCH   6  16
TORSDOF 2
ENDMDL
MODEL 2
REMARK VINA RESULT:      -4.5      1.913      3.705
REMARK  2 active torsions:
REMARK  status: ('A' for Active; 'I' for Inactive)
REMARK    1  A    between atoms: C_10  and  N_1 
REMARK    2  A    between atoms: C_6  and  C_7 
ROOT
ATOM      1  N   UNL d   1      57.152  -0.573  31.558  0.00  0.00    -0.288 N 
ATOM      2  C   UNL d   1      57.008  -1.390  31.531  0.00  0.00     0.183 A 
ATOM      3  N   UNL d   1      56.441  -1.573  32.114  0.00  0.00    -0.224 NA
ATOM      4  C   UNL d   1      56.675  -0.252  32.155  0.00  0.00     0.083 A 
ATOM      5  C   UNL d   1      56.240  -0.864  32.495  0.00  0.00     0.099 A 
ATOM      6  C   UNL d   1      55.623   0.068  33.385  0.00  0.00     0.066 A 
ATOM      7  C   UNL d   1      55.713  -0.702  33.112  0.00  0.00     0.027 A 
ATOM      8  C   UNL d   1      56.583   0.523  32.431  0.00  0.00     0.019 A 
ATOM      9  C   UNL d   1      56.058   0.681  33.045  0.00  0.00     0.008 A 
ENDROOT
BRANCH   1  10
ATOM     10  C   UNL d   1      57.670  -0.158  31.081  0.00  0.00     0.066 A 
ATOM     11  C   UNL d   1      57.512  -0.071  30.274  0.00  0.00     0.018 A 
ATOM     12  C   UNL d   1      58.026   0.342  29.794  0.00  0.00     0.002 A 
ATOM     13  C   UNL d   1      58.717   0.682  30.110  0.00  0.00     0.000 A 
ATOM     14  C   UNL d   1      58.874   0.596  30.913  0.00  0.00     0.002 A 
ATOM     15  C   UNL d   1      58.351   0.176  31.401  0.00  0.00     0.018 A 
ENDBRANCH   1  10
BRANCH   6  16
ATOM     16  C   UNL d   1      55.097   0.228  33.999  0.00  0.00     0.211 C 
ATOM     17  O   UNL d   1      54.292   0.316  33.841  0.00  0.00    -0.644 OA
ATOM     18  O   UNL d   1      55.375   0.301  34.778  0.00  0.00    -0.644 OA
ENDBRANCH   6  16
TORSDOF 2
ENDMDL
MODEL 3
REMARK VINA RESULT:      -4.2      1.140      1.686
REMARK  2 active torsions:
REMARK  status: ('A' for Active; 'I' for Inactive)
REMARK    1  A    between atoms: C_10  and  N_1 
REMARK    2  A    between atoms: C_6  and  C_7 
ROOT
ATOM      1  N   UNL d   1      57.180   0.300  32.650  0.00  0.00    -0.288 N 
ATOM      2  C   UNL d   1      57.833   0.514  33.114  0.00  0.00     0.183 A 
ATOM      3  N   UNL d   1      58.470   0.682  32.604  0.00  0.00    -0.224 NA
ATOM      4  C   UNL d   1      57.412   0.336  31.855  0.00  0.00     0.083 A 
ATOM      5  C   UNL d   1      58.202   0.570  31.827  0.00  0.00     0.099 A 
ATOM      6  C   UNL d   1      58.173   0.502  30.400  0.00  0.00     0.066 A 
ATOM      7  C   UNL d   1      58.582   0.653  31.097  0.00  0.00     0.027 A 
ATOM      8  C   UNL d   1      57.001   0.184  31.153  0.00  0.00     0.019 A 
ATOM      9  C   UNL d   1      57.382   0.268  30.428  0.00  0.00     0.008 A 
ENDROOT
BRANCH   1  10
ATOM     10  C   UNL d   1      56.439   0.090  32.926  0.00  0.00     0.066 A 
ATOM     11  C   UNL d   1      56.248  -0.707  33.033  0.00  0.00     0.018 A 
ATOM     12  C   UNL d   1      55.510  -0.921  33.308  0.00  0.00     0.002 A 
ATOM     13  C   UNL d   1      54.940  -0.340  33.484  0.00  0.00     0.000 A 
ATOM     14  C   UNL d   1      55.131   0.453  33.377  0.00  0.00     0.002 A 
ATOM     15  C   UNL d   1      55.881   0.671  33.097  0.00  0.00     0.018 A 
ENDBRANCH   1  10
BRANCH   6  16
ATOM     16  C   UNL d   1      58.552   0.585  29.674  0.00  0.00     0.211 C 
ATOM     17  O   UNL d   1      58.110   0.629  28.979  0.00  0.00    -0.644 OA
ATOM     18  O   UNL d   1      59.381   0.625  29.638  0.00  0.00    -0.644 OA
ENDBRANCH   6  16
TORSDOF 2
ENDMDL
