MODEL 1
REMARK VINA RESULT:      29.8      0.000      0.000
REMARK  6 active torsions:
REMARK  status: ('A' for Active; 'I' for Inactive)
REMARK    1  A    between atoms: N_4  and  C_1 
REMARK       I    between atoms: C_7  and  N_4 
REMARK    2  A    between atoms: C_8  and  C_7 
REMARK    3  A    between atoms: C_11  and  C_8 
REMARK    4  A    between atoms: C_10  and  O_17 
REMARK    5  A    between atoms: O_17  and  C_11 
REMARK    6  A    between atoms: O_18  and  C_12 
ROOT
ATOM      1  C   UNL d   1      13.392  13.137  -3.616  0.00  0.00     0.089 C 
ENDROOT
BRANCH   1   2
ATOM      2  C   UNL d   1      13.348  13.750  -4.170  0.00  0.00     0.283 C 
ATOM      3  N   UNL d   1      13.756  14.454  -4.027  0.00  0.00    -0.186 NA
ATOM      4  O   UNL d   1      12.907  13.662  -4.851  0.00  0.00    -0.265 OA
BRANCH   3   5
ATOM      5  C   UNL d   1      13.717  15.063  -4.571  0.00  0.00     0.194 A 
ATOM      6  N   UNL d   1      13.262  15.071  -5.264  0.00  0.00    -0.107 NA
ATOM      7  O   UNL d   1      13.393  15.789  -5.638  0.00  0.00    -0.210 OA
ATOM      8  C   UNL d   1      13.916  16.222  -5.192  0.00  0.00     0.128 A 
ATOM      9  C   UNL d   1      14.123  15.775  -4.524  0.00  0.00     0.068 A 
ATOM     10  C   UNL d   1      14.199  16.974  -5.363  0.00  0.00     0.029 C 
ENDBRANCH   3   5
ENDBRANCH   1   2
BRANCH   1  11
ATOM     11  C   UNL d   1      12.972  12.446  -3.748  0.00  0.00     0.128 C 
BRANCH  11  12
ATOM     12  O   UNL d   1      13.455  11.842  -3.454  0.00  0.00    -0.305 OA
BRANCH  12  13
ATOM     13  C   UNL d   1      13.661  11.828  -2.659  0.00  0.00     0.100 A 
ATOM     14  C   UNL d   1      14.458  11.794  -2.439  0.00  0.00     0.027 A 
ATOM     15  C   UNL d   1      14.672  11.779  -1.643  0.00  0.00     0.026 A 
ATOM     16  C   UNL d   1      14.080  11.799  -1.070  0.00  0.00     0.094 A 
ATOM     17  C   UNL d   1      13.283  11.833  -1.290  0.00  0.00     0.026 A 
ATOM     18  C   UNL d   1      13.077  11.847  -2.084  0.00  0.00     0.027 A 
BRANCH  16  19
ATOM     19  O   UNL d   1      14.291  11.784  -0.262  0.00  0.00    -0.328 OA
ATOM     20  C   UNL d   1      14.970  12.183  -0.014  0.00  0.00     0.181 C 
ENDBRANCH  16  19
ENDBRANCH  12  13
ENDBRANCH  11  12
ENDBRANCH   1  11
TORSDOF 6
ENDMDL
MODEL 2
REMARK VINA RESULT:      30.4      2.459      3.300
REMARK  6 active torsions:
REMARK  status: ('A' for Active; 'I' for Inactive)
REMARK    1  A    between atoms: N_4  and  C_1 
REMARK       I    between atoms: C_7  and  N_4 
REMARK    2  A    between atoms: C_8  and  C_7 
REMARK    3  A    between atoms: C_11  and  C_8 
REMARK    4  A    between atoms: C_10  and  O_17 
REMARK    5  A    between atoms: O_17  and  C_11 
REMARK    6  A    between atoms: O_18  and  C_12 
ROOT
ATOM      1  C   UNL d   1      15.089  16.414  -0.972  0.00  0.00     0.089 C 
ENDROOT
BRANCH   1   2
ATOM      2  C   UNL d   1      15.150  16.664  -1.758  0.00  0.00     0.283 C 
ATOM      3  N   UNL d   1      15.055  16.114  -2.366  0.00  0.00    -0.186 NA
ATOM      4  O   UNL d   1      15.305  17.447  -1.932  0.00  0.00    -0.265 OA
BRANCH   3   5
ATOM      5  C   UNL d   1      15.115  16.356  -3.144  0.00  0.00     0.194 A 
ATOM      6  N   UNL d   1      15.817  16.464  -3.570  0.00  0.00    -0.107 NA
ATOM      7  O   UNL d   1      15.615  16.708  -4.327  0.00  0.00    -0.210 OA
ATOM      8  C   UNL d   1      14.804  16.753  -4.376  0.00  0.00     0.128 A 
ATOM      9  C   UNL d   1      14.486  16.535  -3.641  0.00  0.00     0.068 A 
ATOM     10  C   UNL d   1      14.366  16.976  -5.034  0.00  0.00     0.029 C 
ENDBRANCH   3   5
ENDBRANCH   1   2
BRANCH   1  11
ATOM     11  C   UNL d   1      15.532  15.773  -0.717  0.00  0.00     0.128 C 
BRANCH  11  12
ATOM     12  O   UNL d   1      15.082  15.425  -0.117  0.00  0.00    -0.305 OA
BRANCH  12  13
ATOM     13  C   UNL d   1      14.986  14.610  -0.092  0.00  0.00     0.100 A 
ATOM     14  C   UNL d   1      14.227  14.283  -0.058  0.00  0.00     0.027 A 
ATOM     15  C   UNL d   1      14.124  13.465  -0.033  0.00  0.00     0.026 A 
ATOM     16  C   UNL d   1      14.790  12.978  -0.043  0.00  0.00     0.094 A 
ATOM     17  C   UNL d   1      15.549  13.305  -0.077  0.00  0.00     0.026 A 
ATOM     18  C   UNL d   1      15.645  14.120  -0.102  0.00  0.00     0.027 A 
BRANCH  16  19
ATOM     19  O   UNL d   1      14.692  12.150  -0.018  0.00  0.00    -0.328 OA
ATOM     20  C   UNL d   1      14.230  11.779  -0.593  0.00  0.00     0.181 C 
ENDBRANCH  16  19
ENDBRANCH  12  13
ENDBRANCH  11  12
ENDBRANCH   1  11
TORSDOF 6
ENDMDL
