MODEL 1
REMARK VINA RESULT:       4.3      0.000      0.000
REMARK  5 active torsions:
REMARK  status: ('A' for Active; 'I' for Inactive)
REMARK       I    between atoms: C_8  and  N_1 
REMARK    1  A    between atoms: C_10  and  C_3 
REMARK    2  A    between atoms: C_4  and  S_14 
REMARK    3  A    between atoms: C_15  and  C_6 
REMARK    4  A    between atoms: C_16  and  C_8 
REMARK    5  A    between atoms: S_14  and  C_16 
ROOT
ATOM      1  N   UNL d   1      56.786   0.209  33.103  0.00  0.00    -0.195 N 
ATOM      2  N   UNL d   1      57.527   0.327  33.393  0.00  0.00    -0.162 NA
ATOM      3  C   UNL d   1      57.481   0.376  34.220  0.00  0.00     0.109 A 
ATOM      4  C   UNL d   1      56.259   0.181  33.747  0.00  0.00     0.088 A 
ATOM      5  C   UNL d   1      56.704   0.285  34.416  0.00  0.00     0.041 A 
ATOM      6  C   UNL d   1      56.492   0.120  32.355  0.00  0.00     0.275 C 
ATOM      7  O   UNL d   1      55.677   0.002  32.223  0.00  0.00    -0.266 OA
ENDROOT
BRANCH   4   8
ATOM      8  C   UNL d   1      55.455   0.073  33.743  0.00  0.00     0.018 A 
ATOM      9  C   UNL d   1      55.134  -0.634  33.471  0.00  0.00     0.004 A 
ATOM     10  C   UNL d   1      54.306  -0.737  33.470  0.00  0.00     0.030 A 
ATOM     11  C   UNL d   1      53.814  -0.138  33.737  0.00  0.00     0.140 A 
ATOM     12  C   UNL d   1      54.139   0.569  34.009  0.00  0.00     0.030 A 
ATOM     13  F   UNL d   1      52.987  -0.225  33.742  0.00  0.00    -0.204 F 
ATOM     14  C   UNL d   1      54.962   0.681  34.014  0.00  0.00     0.004 A 
ENDBRANCH   4   8
BRANCH   6  15
ATOM     15  C   UNL d   1      57.008   0.145  31.699  0.00  0.00     0.128 C 
BRANCH  15  16
ATOM     16  S   UNL d   1      57.111  -0.526  31.219  0.00  0.00    -0.069 SA
BRANCH  16  17
ATOM     17  C   UNL d   1      57.687  -0.531  30.619  0.00  0.00     0.140 A 
ATOM     18  N   UNL d   1      58.006   0.141  30.274  0.00  0.00    -0.232 NA
ATOM     19  C   UNL d   1      58.553  -0.107  29.708  0.00  0.00     0.088 A 
ATOM     20  C   UNL d   1      59.041   0.322  29.192  0.00  0.00     0.020 A 
ATOM     21  C   UNL d   1      58.570  -0.925  29.705  0.00  0.00     0.049 A 
ATOM     22  C   UNL d   1      59.545  -0.077  28.673  0.00  0.00     0.002 A 
ATOM     23  C   UNL d   1      59.556  -0.911  28.677  0.00  0.00     0.001 A 
ATOM     24  C   UNL d   1      59.068  -1.326  29.193  0.00  0.00     0.008 A 
ATOM     25  S   UNL d   1      58.030  -1.196  30.273  0.00  0.00    -0.060 SA
ENDBRANCH  16  17
ENDBRANCH  15  16
ENDBRANCH   6  15
BRANCH   3  26
ATOM     26  C   UNL d   1      58.127   0.495  34.721  0.00  0.00     0.049 A 
ATOM     27  S   UNL d   1      58.932   0.566  34.622  0.00  0.00    -0.085 SA
ATOM     28  C   UNL d   1      59.264   0.681  35.368  0.00  0.00     0.035 A 
ATOM     29  C   UNL d   1      58.677   0.681  35.923  0.00  0.00     0.007 A 
ATOM     30  C   UNL d   1      57.955   0.566  35.529  0.00  0.00     0.009 A 
ENDBRANCH   3  26
TORSDOF 5
ENDMDL
