MODEL 1
REMARK VINA RESULT:       8.7      0.000      0.000
REMARK  3 active torsions:
REMARK  status: ('A' for Active; 'I' for Inactive)
REMARK    1  A    between atoms: C_6  and  C_3 
REMARK    2  A    between atoms: C_9  and  C_6 
REMARK    3  A    between atoms: C_10  and  C_9 
ROOT
ATOM      1  N   UNL d   1     -57.669 -98.756 -45.138  0.00  0.00    -0.225 NA
ATOM      2  N   UNL d   1     -57.542 -98.755 -43.796  0.00  0.00    -0.225 NA
ATOM      3  C   UNL d   1     -57.108 -98.755 -44.503  0.00  0.00     0.163 A 
ATOM      4  C   UNL d   1     -58.408 -98.756 -44.819  0.00  0.00     0.101 A 
ATOM      5  C   UNL d   1     -58.328 -98.755 -43.973  0.00  0.00     0.101 A 
ATOM      6  C   UNL d   1     -59.183 -98.756 -45.105  0.00  0.00     0.021 A 
ATOM      7  C   UNL d   1     -59.000 -98.755 -43.495  0.00  0.00     0.021 A 
ATOM      8  C   UNL d   1     -59.802 -98.756 -44.661  0.00  0.00     0.002 A 
ATOM      9  C   UNL d   1     -59.724 -98.755 -43.840  0.00  0.00     0.002 A 
ENDROOT
BRANCH   3  10
ATOM     10  C   UNL d   1     -56.288 -98.755 -44.581  0.00  0.00     0.039 C 
BRANCH  10  11
ATOM     11  C   UNL d   1     -55.853 -99.426 -44.374  0.00  0.00     0.003 C 
BRANCH  11  12
ATOM     12  C   UNL d   1     -55.088 -99.528 -44.665  0.00  0.00     0.000 C 
ATOM     13  C   UNL d   1     -54.725-100.272 -44.618  0.00  0.00     0.000 C 
ENDBRANCH  11  12
ENDBRANCH  10  11
ENDBRANCH   3  10
TORSDOF 3
ENDMDL
MODEL 2
REMARK VINA RESULT:       8.7      7.842      8.602
REMARK  3 active torsions:
REMARK  status: ('A' for Active; 'I' for Inactive)
REMARK    1  A    between atoms: C_6  and  C_3 
REMARK    2  A    between atoms: C_9  and  C_6 
REMARK    3  A    between atoms: C_10  and  C_9 
ROOT
ATOM      1  N   UNL d   1     -54.711-101.320 -37.404  0.00  0.00    -0.225 NA
ATOM      2  N   UNL d   1     -54.712-102.009 -36.246  0.00  0.00    -0.225 NA
ATOM      3  C   UNL d   1     -54.711-102.099 -37.071  0.00  0.00     0.163 A 
ATOM      4  C   UNL d   1     -54.711-100.788 -36.799  0.00  0.00     0.101 A 
ATOM      5  C   UNL d   1     -54.712-101.223 -36.069  0.00  0.00     0.101 A 
ATOM      6  C   UNL d   1     -54.711 -99.966 -36.726  0.00  0.00     0.021 A 
ATOM      7  C   UNL d   1     -54.712-100.821 -35.350  0.00  0.00     0.021 A 
ATOM      8  C   UNL d   1     -54.711 -99.597 -36.060  0.00  0.00     0.002 A 
ATOM      9  C   UNL d   1     -54.712-100.019 -35.352  0.00  0.00     0.002 A 
ENDROOT
BRANCH   3  10
ATOM     10  C   UNL d   1     -54.711-102.807 -37.493  0.00  0.00     0.039 C 
BRANCH  10  11
ATOM     11  C   UNL d   1     -55.128-102.864 -38.203  0.00  0.00     0.003 C 
BRANCH  11  12
ATOM     12  C   UNL d   1     -54.725-102.825 -38.922  0.00  0.00     0.000 C 
ATOM     13  C   UNL d   1     -55.150-102.833 -39.634  0.00  0.00     0.000 C 
ENDBRANCH  11  12
ENDBRANCH  10  11
ENDBRANCH   3  10
TORSDOF 3
ENDMDL
