MODEL 1
REMARK VINA RESULT:       4.6      0.000      0.000
REMARK  3 active torsions:
REMARK  status: ('A' for Active; 'I' for Inactive)
REMARK    1  A    between atoms: C_9  and  C_3 
REMARK    2  A    between atoms: C_8  and  C_5 
REMARK    3  A    between atoms: O_19  and  C_9 
ROOT
ATOM      1  N   UNL d   1     -41.455-122.367 -52.446  0.00  0.00    -0.278 N 
ATOM      2  C   UNL d   1     -41.391-121.745 -51.909  0.00  0.00     0.178 A 
ATOM      3  C   UNL d   1     -41.720-121.434 -53.497  0.00  0.00     0.075 A 
ATOM      4  N   UNL d   1     -41.491-120.952 -52.157  0.00  0.00    -0.223 NA
ATOM      5  C   UNL d   1     -41.619-122.206 -53.238  0.00  0.00     0.178 A 
ATOM      6  C   UNL d   1     -41.656-120.811 -52.960  0.00  0.00     0.086 A 
ATOM      7  C   UNL d   1     -41.354-123.139 -52.187  0.00  0.00     0.263 A 
ATOM      8  S   UNL d   1     -41.225-121.886 -51.106  0.00  0.00    -0.050 SA
ATOM      9  C   UNL d   1     -41.188-123.304 -51.392  0.00  0.00     0.068 A 
ATOM     10  O   UNL d   1     -41.418-123.761 -52.723  0.00  0.00    -0.267 OA
ATOM     11  C   UNL d   1     -41.124-122.681 -50.855  0.00  0.00     0.043 A 
ATOM     12  C   UNL d   1     -41.759-119.990 -53.214  0.00  0.00     0.021 C 
ENDROOT
BRANCH   5  13
ATOM     13  C   UNL d   1     -41.683-122.828 -53.774  0.00  0.00     0.024 A 
ATOM     14  S   UNL d   1     -41.128-123.231 -54.233  0.00  0.00    -0.089 SA
ATOM     15  C   UNL d   1     -41.517-123.801 -54.663  0.00  0.00     0.035 A 
ATOM     16  C   UNL d   1     -42.301-123.757 -54.479  0.00  0.00     0.007 A 
ATOM     17  C   UNL d   1     -42.420-123.171 -53.941  0.00  0.00     0.004 A 
ENDBRANCH   5  13
BRANCH   3  18
ATOM     18  C   UNL d   1     -41.889-121.257 -54.306  0.00  0.00     0.295 C 
ATOM     19  O   UNL d   1     -41.262-121.194 -54.837  0.00  0.00    -0.259 OA
BRANCH  18  20
ATOM     20  O   UNL d   1     -42.658-121.147 -54.571  0.00  0.00    -0.296 OA
ATOM     21  C   UNL d   1     -42.809-120.966 -55.358  0.00  0.00     0.185 C 
ENDBRANCH  18  20
ENDBRANCH   3  18
TORSDOF 3
ENDMDL
MODEL 2
REMARK VINA RESULT:       5.1      1.388      3.442
REMARK  3 active torsions:
REMARK  status: ('A' for Active; 'I' for Inactive)
REMARK    1  A    between atoms: C_9  and  C_3 
REMARK    2  A    between atoms: C_8  and  C_5 
REMARK    3  A    between atoms: O_19  and  C_9 
ROOT
ATOM      1  N   UNL d   1     -41.454-122.548 -52.796  0.00  0.00    -0.278 N 
ATOM      2  C   UNL d   1     -41.309-123.360 -52.787  0.00  0.00     0.178 A 
ATOM      3  C   UNL d   1     -41.592-122.556 -51.372  0.00  0.00     0.075 A 
ATOM      4  N   UNL d   1     -41.303-123.786 -52.068  0.00  0.00    -0.223 NA
ATOM      5  C   UNL d   1     -41.595-122.152 -52.086  0.00  0.00     0.178 A 
ATOM      6  C   UNL d   1     -41.448-123.368 -51.363  0.00  0.00     0.086 A 
ATOM      7  C   UNL d   1     -41.457-122.144 -53.510  0.00  0.00     0.263 A 
ATOM      8  S   UNL d   1     -41.165-123.778 -53.492  0.00  0.00    -0.050 SA
ATOM      9  C   UNL d   1     -41.315-122.539 -54.224  0.00  0.00     0.068 A 
ATOM     10  O   UNL d   1     -41.601-121.333 -53.520  0.00  0.00    -0.267 OA
ATOM     11  C   UNL d   1     -41.171-123.351 -54.215  0.00  0.00     0.043 A 
ATOM     12  C   UNL d   1     -41.441-123.813 -50.620  0.00  0.00     0.021 C 
ENDROOT
BRANCH   5  13
ATOM     13  C   UNL d   1     -41.740-121.341 -52.095  0.00  0.00     0.024 A 
ATOM     14  S   UNL d   1     -42.425-120.896 -52.206  0.00  0.00    -0.089 SA
ATOM     15  C   UNL d   1     -42.230-120.108 -52.156  0.00  0.00     0.035 A 
ATOM     16  C   UNL d   1     -41.437-120.059 -52.017  0.00  0.00     0.007 A 
ATOM     17  C   UNL d   1     -41.123-120.798 -51.977  0.00  0.00     0.004 A 
ENDBRANCH   5  13
BRANCH   3  18
ATOM     18  C   UNL d   1     -41.735-122.161 -50.639  0.00  0.00     0.295 C 
ATOM     19  O   UNL d   1     -41.164-121.642 -50.351  0.00  0.00    -0.259 OA
BRANCH  18  20
ATOM     20  O   UNL d   1     -42.426-122.282 -50.212  0.00  0.00    -0.296 OA
ATOM     21  C   UNL d   1     -42.433-122.204 -49.395  0.00  0.00     0.185 C 
ENDBRANCH  18  20
ENDBRANCH   3  18
TORSDOF 3
ENDMDL
MODEL 3
REMARK VINA RESULT:       5.6      1.240      2.360
REMARK  3 active torsions:
REMARK  status: ('A' for Active; 'I' for Inactive)
REMARK    1  A    between atoms: C_9  and  C_3 
REMARK    2  A    between atoms: C_8  and  C_5 
REMARK    3  A    between atoms: O_19  and  C_9 
ROOT
ATOM      1  N   UNL d   1     -41.406-122.554 -51.694  0.00  0.00    -0.278 N 
ATOM      2  C   UNL d   1     -41.343-123.376 -51.713  0.00  0.00     0.178 A 
ATOM      3  C   UNL d   1     -41.618-122.537 -53.109  0.00  0.00     0.075 A 
ATOM      4  N   UNL d   1     -41.416-123.795 -52.433  0.00  0.00    -0.223 NA
ATOM      5  C   UNL d   1     -41.543-122.141 -52.394  0.00  0.00     0.178 A 
ATOM      6  C   UNL d   1     -41.555-123.360 -53.128  0.00  0.00     0.086 A 
ATOM      7  C   UNL d   1     -41.332-122.157 -50.979  0.00  0.00     0.263 A 
ATOM      8  S   UNL d   1     -41.205-123.812 -51.018  0.00  0.00    -0.050 SA
ATOM      9  C   UNL d   1     -41.195-122.571 -50.275  0.00  0.00     0.068 A 
ATOM     10  O   UNL d   1     -41.395-121.336 -50.960  0.00  0.00    -0.267 OA
ATOM     11  C   UNL d   1     -41.131-123.393 -50.294  0.00  0.00     0.043 A 
ATOM     12  C   UNL d   1     -41.630-123.796 -53.871  0.00  0.00     0.021 C 
ENDROOT
BRANCH   5  13
ATOM     13  C   UNL d   1     -41.606-121.319 -52.375  0.00  0.00     0.024 A 
ATOM     14  S   UNL d   1     -41.124-120.714 -52.660  0.00  0.00    -0.089 SA
ATOM     15  C   UNL d   1     -41.472-120.002 -52.478  0.00  0.00     0.035 A 
ATOM     16  C   UNL d   1     -42.159-120.157 -52.086  0.00  0.00     0.007 A 
ATOM     17  C   UNL d   1     -42.257-120.951 -52.015  0.00  0.00     0.004 A 
ENDBRANCH   5  13
BRANCH   3  18
ATOM     18  C   UNL d   1     -41.758-122.124 -53.832  0.00  0.00     0.295 C 
ATOM     19  O   UNL d   1     -41.183-121.602 -54.109  0.00  0.00    -0.259 OA
BRANCH  18  20
ATOM     20  O   UNL d   1     -42.449-122.230 -54.261  0.00  0.00    -0.296 OA
ATOM     21  C   UNL d   1     -42.462-122.109 -55.074  0.00  0.00     0.185 C 
ENDBRANCH  18  20
ENDBRANCH   3  18
TORSDOF 3
ENDMDL
MODEL 4
REMARK VINA RESULT:       6.1      1.234      2.312
REMARK  3 active torsions:
REMARK  status: ('A' for Active; 'I' for Inactive)
REMARK    1  A    between atoms: C_9  and  C_3 
REMARK    2  A    between atoms: C_8  and  C_5 
REMARK    3  A    between atoms: O_19  and  C_9 
ROOT
ATOM      1  N   UNL d   1     -41.491-121.354 -52.297  0.00  0.00    -0.278 N 
ATOM      2  C   UNL d   1     -41.487-120.717 -52.821  0.00  0.00     0.178 A 
ATOM      3  C   UNL d   1     -41.853-122.233 -53.366  0.00  0.00     0.075 A 
ATOM      4  N   UNL d   1     -41.668-120.827 -53.631  0.00  0.00    -0.223 NA
ATOM      5  C   UNL d   1     -41.674-122.108 -52.575  0.00  0.00     0.178 A 
ATOM      6  C   UNL d   1     -41.850-121.596 -53.891  0.00  0.00     0.086 A 
ATOM      7  C   UNL d   1     -41.312-121.230 -51.506  0.00  0.00     0.263 A 
ATOM      8  S   UNL d   1     -41.305-119.948 -52.561  0.00  0.00    -0.050 SA
ATOM      9  C   UNL d   1     -41.127-120.473 -51.224  0.00  0.00     0.068 A 
ATOM     10  O   UNL d   1     -41.315-121.866 -50.982  0.00  0.00    -0.267 OA
ATOM     11  C   UNL d   1     -41.124-119.836 -51.749  0.00  0.00     0.043 A 
ATOM     12  C   UNL d   1     -42.036-121.706 -54.729  0.00  0.00     0.021 C 
ENDROOT
BRANCH   5  13
ATOM     13  C   UNL d   1     -41.678-122.744 -52.052  0.00  0.00     0.024 A 
ATOM     14  S   UNL d   1     -41.123-123.330 -51.878  0.00  0.00    -0.089 SA
ATOM     15  C   UNL d   1     -41.435-123.817 -51.306  0.00  0.00     0.035 A 
ATOM     16  C   UNL d   1     -42.171-123.543 -51.124  0.00  0.00     0.007 A 
ATOM     17  C   UNL d   1     -42.335-122.892 -51.567  0.00  0.00     0.004 A 
ENDBRANCH   5  13
BRANCH   3  18
ATOM     18  C   UNL d   1     -42.043-123.001 -53.662  0.00  0.00     0.295 C 
ATOM     19  O   UNL d   1     -42.813-123.281 -53.574  0.00  0.00    -0.259 OA
BRANCH  18  20
ATOM     20  O   UNL d   1     -41.480-123.471 -54.032  0.00  0.00    -0.296 OA
ATOM     21  C   UNL d   1     -41.634-123.812 -54.763  0.00  0.00     0.185 C 
ENDBRANCH  18  20
ENDBRANCH   3  18
TORSDOF 3
ENDMDL
MODEL 5
REMARK VINA RESULT:       6.2      1.385      2.687
REMARK  3 active torsions:
REMARK  status: ('A' for Active; 'I' for Inactive)
REMARK    1  A    between atoms: C_9  and  C_3 
REMARK    2  A    between atoms: C_8  and  C_5 
REMARK    3  A    between atoms: O_19  and  C_9 
ROOT
ATOM      1  N   UNL d   1     -41.962-122.463 -53.911  0.00  0.00    -0.278 N 
ATOM      2  C   UNL d   1     -42.028-121.908 -54.519  0.00  0.00     0.178 A 
ATOM      3  C   UNL d   1     -41.882-121.403 -52.953  0.00  0.00     0.075 A 
ATOM      4  N   UNL d   1     -42.021-121.088 -54.354  0.00  0.00    -0.223 NA
ATOM      5  C   UNL d   1     -41.889-122.204 -53.131  0.00  0.00     0.178 A 
ATOM      6  C   UNL d   1     -41.947-120.849 -53.560  0.00  0.00     0.086 A 
ATOM      7  C   UNL d   1     -41.970-123.263 -54.090  0.00  0.00     0.263 A 
ATOM      8  S   UNL d   1     -42.102-122.148 -55.312  0.00  0.00    -0.050 SA
ATOM      9  C   UNL d   1     -42.043-123.525 -54.872  0.00  0.00     0.068 A 
ATOM     10  O   UNL d   1     -41.905-123.817 -53.483  0.00  0.00    -0.267 OA
ATOM     11  C   UNL d   1     -42.109-122.971 -55.480  0.00  0.00     0.043 A 
ATOM     12  C   UNL d   1     -41.941-120.000 -53.393  0.00  0.00     0.021 C 
ENDROOT
BRANCH   5  13
ATOM     13  C   UNL d   1     -41.824-122.758 -52.525  0.00  0.00     0.024 A 
ATOM     14  S   UNL d   1     -42.283-122.914 -51.857  0.00  0.00    -0.089 SA
ATOM     15  C   UNL d   1     -41.945-123.534 -51.453  0.00  0.00     0.035 A 
ATOM     16  C   UNL d   1     -41.287-123.762 -51.859  0.00  0.00     0.007 A 
ATOM     17  C   UNL d   1     -41.198-123.302 -52.512  0.00  0.00     0.004 A 
ENDBRANCH   5  13
BRANCH   3  18
ATOM     18  C   UNL d   1     -41.808-121.127 -52.158  0.00  0.00     0.295 C 
ATOM     19  O   UNL d   1     -42.441-121.234 -51.641  0.00  0.00    -0.259 OA
BRANCH  18  20
ATOM     20  O   UNL d   1     -41.124-120.759 -51.892  0.00  0.00    -0.296 OA
ATOM     21  C   UNL d   1     -41.124-120.329 -51.192  0.00  0.00     0.185 C 
ENDBRANCH  18  20
ENDBRANCH   3  18
TORSDOF 3
ENDMDL
MODEL 6
REMARK VINA RESULT:       6.7      2.878      4.769
REMARK  3 active torsions:
REMARK  status: ('A' for Active; 'I' for Inactive)
REMARK    1  A    between atoms: C_9  and  C_3 
REMARK    2  A    between atoms: C_8  and  C_5 
REMARK    3  A    between atoms: O_19  and  C_9 
ROOT
ATOM      1  N   UNL d   1     -42.219-123.194 -50.523  0.00  0.00    -0.278 N 
ATOM      2  C   UNL d   1     -41.500-123.599 -50.516  0.00  0.00     0.178 A 
ATOM      3  C   UNL d   1     -42.226-123.183 -49.092  0.00  0.00     0.075 A 
ATOM      4  N   UNL d   1     -41.130-123.804 -49.794  0.00  0.00    -0.223 NA
ATOM      5  C   UNL d   1     -42.576-122.989 -49.808  0.00  0.00     0.178 A 
ATOM      6  C   UNL d   1     -41.508-123.588 -49.085  0.00  0.00     0.086 A 
ATOM      7  C   UNL d   1     -42.568-122.999 -51.239  0.00  0.00     0.263 A 
ATOM      8  S   UNL d   1     -41.123-123.815 -51.225  0.00  0.00    -0.050 SA
ATOM      9  C   UNL d   1     -42.211-123.204 -51.957  0.00  0.00     0.068 A 
ATOM     10  O   UNL d   1     -43.286-122.594 -51.246  0.00  0.00    -0.267 OA
ATOM     11  C   UNL d   1     -41.492-123.609 -51.951  0.00  0.00     0.043 A 
ATOM     12  C   UNL d   1     -41.123-123.803 -48.340  0.00  0.00     0.021 C 
ENDROOT
BRANCH   5  13
ATOM     13  C   UNL d   1     -43.294-122.584 -49.815  0.00  0.00     0.024 A 
ATOM     14  S   UNL d   1     -43.484-121.782 -49.846  0.00  0.00    -0.089 SA
ATOM     15  C   UNL d   1     -44.294-121.710 -49.838  0.00  0.00     0.035 A 
ATOM     16  C   UNL d   1     -44.607-122.452 -49.802  0.00  0.00     0.007 A 
ATOM     17  C   UNL d   1     -44.014-122.995 -49.787  0.00  0.00     0.004 A 
ENDBRANCH   5  13
BRANCH   3  18
ATOM     18  C   UNL d   1     -42.584-122.978 -48.354  0.00  0.00     0.295 C 
ATOM     19  O   UNL d   1     -42.328-122.298 -47.965  0.00  0.00    -0.259 OA
BRANCH  18  20
ATOM     20  O   UNL d   1     -43.176-123.438 -48.020  0.00  0.00    -0.296 OA
ATOM     21  C   UNL d   1     -43.276-123.467 -47.206  0.00  0.00     0.185 C 
ENDBRANCH  18  20
ENDBRANCH   3  18
TORSDOF 3
ENDMDL
