MODEL 1
REMARK VINA RESULT:       3.7      0.000      0.000
REMARK  6 active torsions:
REMARK  status: ('A' for Active; 'I' for Inactive)
REMARK    1  A    between atoms: C_10  and  N_2 
REMARK    2  A    between atoms: C_11  and  N_5 
REMARK    3  A    between atoms: C_21  and  C_10 
REMARK    4  A    between atoms: C_12  and  C_11 
REMARK       I    between atoms: N_16  and  C_12 
REMARK    5  A    between atoms: C_15  and  C_17 
REMARK    6  A    between atoms: C_17  and  N_16 
ROOT
ATOM      1  C   UNL d   1      29.682  16.863 -24.185  0.00  0.00     0.102 A 
ATOM      2  N   UNL d   1      30.904  16.140 -24.156  0.00  0.00    -0.225 N 
ATOM      3  C   UNL d   1      31.290  16.768 -24.526  0.00  0.00     0.342 A 
ATOM      4  C   UNL d   1      30.072  17.497 -24.559  0.00  0.00     0.080 A 
ATOM      5  N   UNL d   1      30.870  17.448 -24.727  0.00  0.00    -0.253 N 
ATOM      6  C   UNL d   1      30.094  16.185 -23.983  0.00  0.00     0.276 A 
ATOM      7  S   UNL d   1      28.883  17.082 -24.092  0.00  0.00    -0.081 SA
ATOM      8  C   UNL d   1      29.512  18.097 -24.691  0.00  0.00     0.023 A 
ATOM      9  C   UNL d   1      28.779  17.839 -24.403  0.00  0.00     0.031 A 
ATOM     10  O   UNL d   1      32.091  16.717 -24.694  0.00  0.00    -0.245 OA
ATOM     11  O   UNL d   1      29.719  15.559 -23.617  0.00  0.00    -0.266 OA
ATOM     12  C   UNL d   1      29.583  18.839 -25.037  0.00  0.00     0.002 A 
ATOM     13  C   UNL d   1      28.122  18.323 -24.461  0.00  0.00     0.006 A 
ATOM     14  C   UNL d   1      28.921  19.331 -25.097  0.00  0.00     0.000 A 
ATOM     15  C   UNL d   1      28.188  19.073 -24.808  0.00  0.00     0.001 A 
ENDROOT
BRANCH   5  16
ATOM     16  C   UNL d   1      31.255  18.075 -25.096  0.00  0.00     0.147 C 
BRANCH  16  17
ATOM     17  C   UNL d   1      32.006  18.313 -24.835  0.00  0.00     0.297 C 
ATOM     18  N   UNL d   1      32.074  18.942 -24.316  0.00  0.00    -0.205 NA
ATOM     19  O   UNL d   1      32.676  17.916 -25.096  0.00  0.00    -0.264 OA
BRANCH  18  20
ATOM     20  C   UNL d   1      32.827  19.177 -24.056  0.00  0.00     0.103 C 
BRANCH  20  21
ATOM     21  C   UNL d   1      32.898  19.614 -23.349  0.00  0.00     0.030 A 
ATOM     22  C   UNL d   1      33.070  20.421 -23.372  0.00  0.00     0.059 A 
ATOM     23 CL   UNL d   1      33.174  20.802 -24.102  0.00  0.00    -0.082 Cl
ATOM     24  C   UNL d   1      33.137  20.842 -22.666  0.00  0.00     0.011 A 
ATOM     25  C   UNL d   1      33.033  20.460 -21.940  0.00  0.00     0.001 A 
ATOM     26  C   UNL d   1      32.861  19.653 -21.926  0.00  0.00     0.000 A 
ATOM     27  C   UNL d   1      32.792  19.225 -22.624  0.00  0.00     0.002 A 
ENDBRANCH  20  21
ENDBRANCH  18  20
ENDBRANCH  16  17
ENDBRANCH   5  16
BRANCH   2  28
ATOM     28  C   UNL d   1      31.327  15.456 -23.954  0.00  0.00     0.087 C 
BRANCH  28  29
ATOM     29  C   UNL d   1      31.880  15.482 -23.342  0.00  0.00     0.018 A 
ATOM     30  C   UNL d   1      32.682  15.453 -23.530  0.00  0.00     0.002 A 
ATOM     31  C   UNL d   1      33.241  15.479 -22.913  0.00  0.00     0.000 A 
ATOM     32  C   UNL d   1      32.986  15.532 -22.125  0.00  0.00     0.000 A 
ATOM     33  C   UNL d   1      32.185  15.559 -21.961  0.00  0.00     0.000 A 
ATOM     34  C   UNL d   1      31.629  15.534 -22.569  0.00  0.00     0.002 A 
ENDBRANCH  28  29
ENDBRANCH   2  28
TORSDOF 6
ENDMDL
MODEL 2
REMARK VINA RESULT:       5.8      1.809      4.783
REMARK  6 active torsions:
REMARK  status: ('A' for Active; 'I' for Inactive)
REMARK    1  A    between atoms: C_10  and  N_2 
REMARK    2  A    between atoms: C_11  and  N_5 
REMARK    3  A    between atoms: C_21  and  C_10 
REMARK    4  A    between atoms: C_12  and  C_11 
REMARK       I    between atoms: N_16  and  C_12 
REMARK    5  A    between atoms: C_15  and  C_17 
REMARK    6  A    between atoms: C_17  and  N_16 
ROOT
ATOM      1  C   UNL d   1      32.835  18.188 -23.033  0.00  0.00     0.102 A 
ATOM      2  N   UNL d   1      32.380  19.432 -23.544  0.00  0.00    -0.225 N 
ATOM      3  C   UNL d   1      31.956  19.041 -24.134  0.00  0.00     0.342 A 
ATOM      4  C   UNL d   1      32.407  17.793 -23.628  0.00  0.00     0.080 A 
ATOM      5  N   UNL d   1      31.972  18.218 -24.173  0.00  0.00    -0.253 N 
ATOM      6  C   UNL d   1      32.823  19.006 -22.988  0.00  0.00     0.276 A 
ATOM      7  S   UNL d   1      33.215  17.608 -22.572  0.00  0.00    -0.081 SA
ATOM      8  C   UNL d   1      32.527  16.977 -23.528  0.00  0.00     0.023 A 
ATOM      9  C   UNL d   1      33.027  16.865 -22.875  0.00  0.00     0.031 A 
ATOM     10  O   UNL d   1      31.519  19.470 -24.680  0.00  0.00    -0.245 OA
ATOM     11  O   UNL d   1      33.240  19.401 -22.408  0.00  0.00    -0.266 OA
ATOM     12  C   UNL d   1      32.245  16.331 -23.949  0.00  0.00     0.002 A 
ATOM     13  C   UNL d   1      33.240  16.108 -22.648  0.00  0.00     0.006 A 
ATOM     14  C   UNL d   1      32.459  15.565 -23.722  0.00  0.00     0.000 A 
ATOM     15  C   UNL d   1      32.958  15.453 -23.069  0.00  0.00     0.001 A 
ENDROOT
BRANCH   5  16
ATOM     16  C   UNL d   1      31.549  17.827 -24.762  0.00  0.00     0.147 C 
BRANCH  16  17
ATOM     17  C   UNL d   1      30.727  17.930 -24.821  0.00  0.00     0.297 C 
ATOM     18  N   UNL d   1      30.226  17.312 -24.630  0.00  0.00    -0.205 NA
ATOM     19  O   UNL d   1      30.422  18.651 -25.069  0.00  0.00    -0.264 OA
BRANCH  18  20
ATOM     20  C   UNL d   1      29.404  17.420 -24.690  0.00  0.00     0.103 C 
BRANCH  20  21
ATOM     21  C   UNL d   1      28.894  16.800 -24.465  0.00  0.00     0.030 A 
ATOM     22  C   UNL d   1      28.411  16.877 -23.800  0.00  0.00     0.059 A 
ATOM     23 CL   UNL d   1      28.433  17.574 -23.350  0.00  0.00    -0.082 Cl
ATOM     24  C   UNL d   1      27.910  16.257 -23.588  0.00  0.00     0.011 A 
ATOM     25  C   UNL d   1      27.891  15.563 -24.037  0.00  0.00     0.001 A 
ATOM     26  C   UNL d   1      28.376  15.494 -24.700  0.00  0.00     0.000 A 
ATOM     27  C   UNL d   1      28.879  16.106 -24.920  0.00  0.00     0.002 A 
ENDBRANCH  20  21
ENDBRANCH  18  20
ENDBRANCH  16  17
ENDBRANCH   5  16
BRANCH   2  28
ATOM     28  C   UNL d   1      32.364  20.261 -23.505  0.00  0.00     0.087 C 
BRANCH  28  29
ATOM     29  C   UNL d   1      32.385  20.638 -22.772  0.00  0.00     0.018 A 
ATOM     30  C   UNL d   1      32.912  21.262 -22.662  0.00  0.00     0.002 A 
ATOM     31  C   UNL d   1      32.935  21.643 -21.921  0.00  0.00     0.000 A 
ATOM     32  C   UNL d   1      32.432  21.392 -21.310  0.00  0.00     0.000 A 
ATOM     33  C   UNL d   1      31.917  20.770 -21.441  0.00  0.00     0.000 A 
ATOM     34  C   UNL d   1      31.892  20.391 -22.172  0.00  0.00     0.002 A 
ENDBRANCH  28  29
ENDBRANCH   2  28
TORSDOF 6
ENDMDL
