MODEL 1
REMARK VINA RESULT:      -7.5      0.000      0.000
REMARK  6 active torsions:
REMARK  status: ('A' for Active; 'I' for Inactive)
REMARK    1  A    between atoms: C_6  and  C_1 
REMARK    2  A    between atoms: N_7  and  C_2 
REMARK    3  A    between atoms: C_8  and  N_5 
REMARK    4  A    between atoms: O_13  and  C_6 
REMARK    5  A    between atoms: C_18  and  O_13 
REMARK    6  A    between atoms: O_17  and  C_14 
ROOT
ATOM      1  C   UNL d   1      52.740  31.630  53.268  0.00  0.00     0.112 A 
ATOM      2  C   UNL d   1      51.883  32.655  53.411  0.00  0.00     0.172 A 
ATOM      3  C   UNL d   1      53.171  32.304  53.469  0.00  0.00     0.077 A 
ATOM      4  S   UNL d   1      51.943  31.845  53.232  0.00  0.00    -0.044 SA
ATOM      5  N   UNL d   1      52.642  32.937  53.557  0.00  0.00    -0.287 N 
ATOM      6  C   UNL d   1      53.997  32.333  53.564  0.00  0.00     0.020 C 
ENDROOT
BRANCH   5   7
ATOM      7  C   UNL d   1      52.808  33.722  53.754  0.00  0.00     0.066 A 
ATOM      8  C   UNL d   1      53.022  33.911  54.527  0.00  0.00     0.020 A 
ATOM      9  C   UNL d   1      53.188  34.694  54.720  0.00  0.00     0.026 A 
ATOM     10  C   UNL d   1      53.139  35.281  54.150  0.00  0.00     0.094 A 
ATOM     11  C   UNL d   1      52.924  35.087  53.377  0.00  0.00     0.026 A 
ATOM     12  C   UNL d   1      52.759  34.304  53.184  0.00  0.00     0.020 A 
BRANCH  10  13
ATOM     13  O   UNL d   1      53.307  36.073  54.346  0.00  0.00    -0.328 OA
ATOM     14  C   UNL d   1      52.928  36.424  54.990  0.00  0.00     0.181 C 
ENDBRANCH  10  13
ENDBRANCH   5   7
BRANCH   2  15
ATOM     15  N   UNL d   1      51.185  33.095  53.436  0.00  0.00    -0.277 NA
ATOM     16  H   UNL d   1      50.644  32.975  54.046  0.00  0.00     0.189 HD
ENDBRANCH   2  15
BRANCH   1  17
ATOM     17  C   UNL d   1      53.049  30.876  53.129  0.00  0.00     0.308 C 
ATOM     18  O   UNL d   1      53.183  30.622  52.363  0.00  0.00    -0.258 OA
BRANCH  17  19
ATOM     19  O   UNL d   1      53.223  30.377  53.769  0.00  0.00    -0.271 OA
BRANCH  19  20
ATOM     20  C   UNL d   1      53.260  29.561  53.667  0.00  0.00     0.126 C 
ATOM     21  C   UNL d   1      53.361  29.063  54.318  0.00  0.00     0.029 C 
ENDBRANCH  19  20
ENDBRANCH  17  19
ENDBRANCH   1  17
TORSDOF 6
ENDMDL
MODEL 2
REMARK VINA RESULT:      -7.3      2.121      3.101
REMARK  6 active torsions:
REMARK  status: ('A' for Active; 'I' for Inactive)
REMARK    1  A    between atoms: C_6  and  C_1 
REMARK    2  A    between atoms: N_7  and  C_2 
REMARK    3  A    between atoms: C_8  and  N_5 
REMARK    4  A    between atoms: O_13  and  C_6 
REMARK    5  A    between atoms: C_18  and  O_13 
REMARK    6  A    between atoms: O_17  and  C_14 
ROOT
ATOM      1  C   UNL d   1      53.473  32.985  54.153  0.00  0.00     0.112 A 
ATOM      2  C   UNL d   1      52.768  32.529  53.104  0.00  0.00     0.172 A 
ATOM      3  C   UNL d   1      52.846  33.502  54.017  0.00  0.00     0.077 A 
ATOM      4  S   UNL d   1      53.427  32.382  53.590  0.00  0.00    -0.044 SA
ATOM      5  N   UNL d   1      52.410  33.220  53.369  0.00  0.00    -0.287 N 
ATOM      6  C   UNL d   1      52.685  34.188  54.460  0.00  0.00     0.020 C 
ENDROOT
BRANCH   5   7
ATOM      7  C   UNL d   1      51.734  33.547  53.023  0.00  0.00     0.066 A 
ATOM      8  C   UNL d   1      50.990  33.346  53.315  0.00  0.00     0.020 A 
ATOM      9  C   UNL d   1      50.318  33.673  52.968  0.00  0.00     0.026 A 
ATOM     10  C   UNL d   1      50.388  34.194  52.339  0.00  0.00     0.094 A 
ATOM     11  C   UNL d   1      51.136  34.392  52.050  0.00  0.00     0.026 A 
ATOM     12  C   UNL d   1      51.807  34.064  52.396  0.00  0.00     0.020 A 
BRANCH  10  13
ATOM     13  O   UNL d   1      49.709  34.524  51.989  0.00  0.00    -0.328 OA
ATOM     14  C   UNL d   1      49.181  34.960  52.450  0.00  0.00     0.181 C 
ENDBRANCH  10  13
ENDBRANCH   5   7
BRANCH   2  15
ATOM     15  N   UNL d   1      52.520  32.061  52.470  0.00  0.00    -0.277 NA
ATOM     16  H   UNL d   1      52.746  31.271  52.429  0.00  0.00     0.189 HD
ENDBRANCH   2  15
BRANCH   1  17
ATOM     17  C   UNL d   1      54.045  33.056  54.746  0.00  0.00     0.308 C 
ATOM     18  O   UNL d   1      53.987  32.608  55.429  0.00  0.00    -0.258 OA
BRANCH  17  19
ATOM     19  O   UNL d   1      54.678  33.584  54.648  0.00  0.00    -0.271 OA
BRANCH  19  20
ATOM     20  C   UNL d   1      55.262  33.651  55.224  0.00  0.00     0.126 C 
ATOM     21  C   UNL d   1      55.939  34.101  55.081  0.00  0.00     0.029 C 
ENDBRANCH  19  20
ENDBRANCH  17  19
ENDBRANCH   1  17
TORSDOF 6
ENDMDL
MODEL 3
REMARK VINA RESULT:      -7.3      2.187      3.456
REMARK  6 active torsions:
REMARK  status: ('A' for Active; 'I' for Inactive)
REMARK    1  A    between atoms: C_6  and  C_1 
REMARK    2  A    between atoms: N_7  and  C_2 
REMARK    3  A    between atoms: C_8  and  N_5 
REMARK    4  A    between atoms: O_13  and  C_6 
REMARK    5  A    between atoms: C_18  and  O_13 
REMARK    6  A    between atoms: O_17  and  C_14 
ROOT
ATOM      1  C   UNL d   1      51.280  33.741  52.779  0.00  0.00     0.112 A 
ATOM      2  C   UNL d   1      51.925  32.677  53.288  0.00  0.00     0.172 A 
ATOM      3  C   UNL d   1      51.986  34.001  53.116  0.00  0.00     0.077 A 
ATOM      4  S   UNL d   1      51.239  32.922  52.884  0.00  0.00    -0.044 SA
ATOM      5  N   UNL d   1      52.384  33.343  53.431  0.00  0.00    -0.287 N 
ATOM      6  C   UNL d   1      52.247  34.790  53.133  0.00  0.00     0.020 C 
ENDROOT
BRANCH   5   7
ATOM      7  C   UNL d   1      53.111  33.322  53.823  0.00  0.00     0.066 A 
ATOM      8  C   UNL d   1      53.150  33.526  54.620  0.00  0.00     0.020 A 
ATOM      9  C   UNL d   1      53.876  33.504  55.008  0.00  0.00     0.026 A 
ATOM     10  C   UNL d   1      54.555  33.281  54.606  0.00  0.00     0.094 A 
ATOM     11  C   UNL d   1      54.511  33.078  53.807  0.00  0.00     0.026 A 
ATOM     12  C   UNL d   1      53.785  33.100  53.419  0.00  0.00     0.020 A 
BRANCH  10  13
ATOM     13  O   UNL d   1      55.288  33.259  54.998  0.00  0.00    -0.328 OA
ATOM     14  C   UNL d   1      55.647  33.963  55.237  0.00  0.00     0.181 C 
ENDBRANCH  10  13
ENDBRANCH   5   7
BRANCH   2  15
ATOM     15  N   UNL d   1      52.107  31.901  53.505  0.00  0.00    -0.277 NA
ATOM     16  H   UNL d   1      52.036  31.666  54.291  0.00  0.00     0.189 HD
ENDBRANCH   2  15
BRANCH   1  17
ATOM     17  C   UNL d   1      50.715  34.213  52.404  0.00  0.00     0.308 C 
ATOM     18  O   UNL d   1      50.788  34.387  51.607  0.00  0.00    -0.258 OA
BRANCH  17  19
ATOM     19  O   UNL d   1      50.073  34.511  52.837  0.00  0.00    -0.271 OA
BRANCH  19  20
ATOM     20  C   UNL d   1      49.428  34.847  52.453  0.00  0.00     0.126 C 
ATOM     21  C   UNL d   1      48.858  35.265  52.881  0.00  0.00     0.029 C 
ENDBRANCH  19  20
ENDBRANCH  17  19
ENDBRANCH   1  17
TORSDOF 6
ENDMDL
MODEL 4
REMARK VINA RESULT:      -7.2      1.680      2.062
REMARK  6 active torsions:
REMARK  status: ('A' for Active; 'I' for Inactive)
REMARK    1  A    between atoms: C_6  and  C_1 
REMARK    2  A    between atoms: N_7  and  C_2 
REMARK    3  A    between atoms: C_8  and  N_5 
REMARK    4  A    between atoms: O_13  and  C_6 
REMARK    5  A    between atoms: C_18  and  O_13 
REMARK    6  A    between atoms: O_17  and  C_14 
ROOT
ATOM      1  C   UNL d   1      53.335  31.489  53.611  0.00  0.00     0.112 A 
ATOM      2  C   UNL d   1      53.256  32.801  53.891  0.00  0.00     0.172 A 
ATOM      3  C   UNL d   1      52.670  31.797  53.231  0.00  0.00     0.077 A 
ATOM      4  S   UNL d   1      53.699  32.108  54.020  0.00  0.00    -0.044 SA
ATOM      5  N   UNL d   1      52.622  32.608  53.405  0.00  0.00    -0.287 N 
ATOM      6  C   UNL d   1      52.144  31.361  52.758  0.00  0.00     0.020 C 
ENDROOT
BRANCH   5   7
ATOM      7  C   UNL d   1      52.056  33.154  53.153  0.00  0.00     0.066 A 
ATOM      8  C   UNL d   1      51.333  33.202  53.547  0.00  0.00     0.020 A 
ATOM      9  C   UNL d   1      50.770  33.747  53.294  0.00  0.00     0.026 A 
ATOM     10  C   UNL d   1      50.927  34.239  52.656  0.00  0.00     0.094 A 
ATOM     11  C   UNL d   1      51.652  34.188  52.265  0.00  0.00     0.026 A 
ATOM     12  C   UNL d   1      52.214  33.642  52.518  0.00  0.00     0.020 A 
BRANCH  10  13
ATOM     13  O   UNL d   1      50.357  34.790  52.401  0.00  0.00    -0.328 OA
ATOM     14  C   UNL d   1      49.650  34.525  52.068  0.00  0.00     0.181 C 
ENDBRANCH  10  13
ENDBRANCH   5   7
BRANCH   2  15
ATOM     15  N   UNL d   1      53.427  33.548  54.199  0.00  0.00    -0.277 NA
ATOM     16  H   UNL d   1      53.851  34.092  53.749  0.00  0.00     0.189 HD
ENDBRANCH   2  15
BRANCH   1  17
ATOM     17  C   UNL d   1      53.589  30.703  53.587  0.00  0.00     0.308 C 
ATOM     18  O   UNL d   1      54.102  30.455  52.998  0.00  0.00    -0.258 OA
BRANCH  17  19
ATOM     19  O   UNL d   1      53.324  30.165  54.161  0.00  0.00    -0.271 OA
BRANCH  19  20
ATOM     20  C   UNL d   1      53.597  29.389  54.165  0.00  0.00     0.126 C 
ATOM     21  C   UNL d   1      53.364  28.869  54.763  0.00  0.00     0.029 C 
ENDBRANCH  19  20
ENDBRANCH  17  19
ENDBRANCH   1  17
TORSDOF 6
ENDMDL
MODEL 5
REMARK VINA RESULT:      -7.0      1.167      4.367
REMARK  6 active torsions:
REMARK  status: ('A' for Active; 'I' for Inactive)
REMARK    1  A    between atoms: C_6  and  C_1 
REMARK    2  A    between atoms: N_7  and  C_2 
REMARK    3  A    between atoms: C_8  and  N_5 
REMARK    4  A    between atoms: O_13  and  C_6 
REMARK    5  A    between atoms: C_18  and  O_13 
REMARK    6  A    between atoms: O_17  and  C_14 
ROOT
ATOM      1  C   UNL d   1      53.218  33.617  53.453  0.00  0.00     0.112 A 
ATOM      2  C   UNL d   1      54.122  32.633  53.315  0.00  0.00     0.172 A 
ATOM      3  C   UNL d   1      52.838  32.895  53.575  0.00  0.00     0.077 A 
ATOM      4  S   UNL d   1      54.013  33.458  53.292  0.00  0.00    -0.044 SA
ATOM      5  N   UNL d   1      53.398  32.287  53.489  0.00  0.00    -0.287 N 
ATOM      6  C   UNL d   1      52.031  32.802  53.753  0.00  0.00     0.020 C 
ENDROOT
BRANCH   5   7
ATOM      7  C   UNL d   1      53.285  31.472  53.559  0.00  0.00     0.066 A 
ATOM      8  C   UNL d   1      53.457  31.097  54.273  0.00  0.00     0.020 A 
ATOM      9  C   UNL d   1      53.343  30.284  54.340  0.00  0.00     0.026 A 
ATOM     10  C   UNL d   1      53.061  29.851  53.703  0.00  0.00     0.094 A 
ATOM     11  C   UNL d   1      52.890  30.230  52.990  0.00  0.00     0.026 A 
ATOM     12  C   UNL d   1      53.004  31.044  52.924  0.00  0.00     0.020 A 
BRANCH  10  13
ATOM     13  O   UNL d   1      52.947  29.029  53.771  0.00  0.00    -0.328 OA
ATOM     14  C   UNL d   1      53.328  28.610  54.371  0.00  0.00     0.181 C 
ENDBRANCH  10  13
ENDBRANCH   5   7
BRANCH   2  15
ATOM     15  N   UNL d   1      54.835  32.236  53.185  0.00  0.00    -0.277 NA
ATOM     16  H   UNL d   1      55.053  32.021  52.420  0.00  0.00     0.189 HD
ENDBRANCH   2  15
BRANCH   1  17
ATOM     17  C   UNL d   1      52.867  34.365  53.486  0.00  0.00     0.308 C 
ATOM     18  O   UNL d   1      52.457  34.655  52.840  0.00  0.00    -0.258 OA
BRANCH  17  19
ATOM     19  O   UNL d   1      52.931  34.821  54.177  0.00  0.00    -0.271 OA
BRANCH  19  20
ATOM     20  C   UNL d   1      52.870  35.641  54.145  0.00  0.00     0.126 C 
ATOM     21  C   UNL d   1      52.946  36.091  54.832  0.00  0.00     0.029 C 
ENDBRANCH  19  20
ENDBRANCH  17  19
ENDBRANCH   1  17
TORSDOF 6
ENDMDL
MODEL 6
REMARK VINA RESULT:      -6.3      2.196      4.213
REMARK  6 active torsions:
REMARK  status: ('A' for Active; 'I' for Inactive)
REMARK    1  A    between atoms: C_6  and  C_1 
REMARK    2  A    between atoms: N_7  and  C_2 
REMARK    3  A    between atoms: C_8  and  N_5 
REMARK    4  A    between atoms: O_13  and  C_6 
REMARK    5  A    between atoms: C_18  and  O_13 
REMARK    6  A    between atoms: O_17  and  C_14 
ROOT
ATOM      1  C   UNL d   1      51.009  34.181  52.841  0.00  0.00     0.112 A 
ATOM      2  C   UNL d   1      52.351  34.128  52.887  0.00  0.00     0.172 A 
ATOM      3  C   UNL d   1      51.232  33.417  53.057  0.00  0.00     0.077 A 
ATOM      4  S   UNL d   1      51.699  34.623  52.735  0.00  0.00    -0.044 SA
ATOM      5  N   UNL d   1      52.061  33.385  53.086  0.00  0.00    -0.287 N 
ATOM      6  C   UNL d   1      50.707  32.792  53.218  0.00  0.00     0.020 C 
ENDROOT
BRANCH   5   7
ATOM      7  C   UNL d   1      52.544  32.742  53.275  0.00  0.00     0.066 A 
ATOM      8  C   UNL d   1      52.572  32.091  52.769  0.00  0.00     0.020 A 
ATOM      9  C   UNL d   1      53.054  31.451  52.960  0.00  0.00     0.026 A 
ATOM     10  C   UNL d   1      53.502  31.460  53.647  0.00  0.00     0.094 A 
ATOM     11  C   UNL d   1      53.471  32.114  54.150  0.00  0.00     0.026 A 
ATOM     12  C   UNL d   1      52.989  32.754  53.959  0.00  0.00     0.020 A 
BRANCH  10  13
ATOM     13  O   UNL d   1      53.989  30.813  53.840  0.00  0.00    -0.328 OA
ATOM     14  C   UNL d   1      53.689  30.046  53.792  0.00  0.00     0.181 C 
ENDBRANCH  10  13
ENDBRANCH   5   7
BRANCH   2  15
ATOM     15  N   UNL d   1      53.146  34.349  52.845  0.00  0.00    -0.277 NA
ATOM     16  H   UNL d   1      53.367  35.125  53.006  0.00  0.00     0.189 HD
ENDBRANCH   2  15
BRANCH   1  17
ATOM     17  C   UNL d   1      50.235  34.455  52.747  0.00  0.00     0.308 C 
ATOM     18  O   UNL d   1      49.830  34.772  53.385  0.00  0.00    -0.258 OA
BRANCH  17  19
ATOM     19  O   UNL d   1      49.868  34.409  52.004  0.00  0.00    -0.271 OA
BRANCH  19  20
ATOM     20  C   UNL d   1      49.138  34.766  51.874  0.00  0.00     0.126 C 
ATOM     21  C   UNL d   1      48.769  34.704  51.138  0.00  0.00     0.029 C 
ENDBRANCH  19  20
ENDBRANCH  17  19
ENDBRANCH   1  17
TORSDOF 6
ENDMDL
