MODEL 1
REMARK VINA RESULT:      -7.4      0.000      0.000
REMARK  6 active torsions:
REMARK  status: ('A' for Active; 'I' for Inactive)
REMARK    1  A    between atoms: C_5  and  N_1 
REMARK    2  A    between atoms: C_4  and  C_5 
REMARK       I    between atoms: N_8  and  C_4 
REMARK    3  A    between atoms: C_6  and  C_9 
REMARK    4  A    between atoms: O_19  and  C_6 
REMARK    5  A    between atoms: C_16  and  N_8 
REMARK    6  A    between atoms: C_22  and  O_19 
ROOT
ATOM      1  C   UNL d   1      52.592  32.389  52.905  0.00  0.00     0.297 C 
ATOM      2  N   UNL d   1      52.494  33.186  53.110  0.00  0.00    -0.207 NA
ATOM      3  O   UNL d   1      51.969  31.978  52.553  0.00  0.00    -0.264 OA
ENDROOT
BRANCH   2   4
ATOM      4  C   UNL d   1      51.775  33.567  52.962  0.00  0.00     0.085 A 
ATOM      5  C   UNL d   1      51.149  33.487  53.493  0.00  0.00     0.019 A 
ATOM      6  C   UNL d   1      50.441  33.872  53.333  0.00  0.00     0.007 A 
ATOM      7  C   UNL d   1      50.349  34.329  52.661  0.00  0.00     0.064 A 
ATOM      8  C   UNL d   1      50.978  34.407  52.132  0.00  0.00     0.007 A 
ATOM      9  C   UNL d   1      51.696  34.026  52.279  0.00  0.00     0.019 A 
BRANCH   7  10
ATOM     10  C   UNL d   1      49.631  34.713  52.509  0.00  0.00     0.300 C 
ATOM     11  O   UNL d   1      49.249  34.594  51.787  0.00  0.00    -0.259 OA
BRANCH  10  12
ATOM     12  O   UNL d   1      49.302  35.207  53.067  0.00  0.00    -0.271 OA
BRANCH  12  13
ATOM     13  C   UNL d   1      48.594  35.598  52.923  0.00  0.00     0.126 C 
ATOM     14  C   UNL d   1      48.245  36.061  53.495  0.00  0.00     0.029 C 
ENDBRANCH  12  13
ENDBRANCH  10  12
ENDBRANCH   7  10
ENDBRANCH   2   4
BRANCH   1  15
ATOM     15  C   UNL d   1      53.298  32.006  53.047  0.00  0.00     0.148 C 
BRANCH  15  16
ATOM     16  N   UNL d   1      53.300  31.245  53.364  0.00  0.00    -0.235 N 
ATOM     17  C   UNL d   1      53.478  31.132  54.165  0.00  0.00     0.274 A 
ATOM     18  O   UNL d   1      53.653  31.784  54.644  0.00  0.00    -0.266 OA
ATOM     19  C   UNL d   1      53.479  30.378  54.479  0.00  0.00     0.097 A 
ATOM     20  S   UNL d   1      53.307  29.727  54.012  0.00  0.00    -0.076 SA
ATOM     21  C   UNL d   1      53.131  29.834  53.218  0.00  0.00     0.097 A 
ATOM     22  C   UNL d   1      53.125  30.589  52.887  0.00  0.00     0.274 A 
ATOM     23  O   UNL d   1      52.948  30.700  52.090  0.00  0.00    -0.266 OA
ENDBRANCH  15  16
ENDBRANCH   1  15
TORSDOF 6
ENDMDL
MODEL 2
REMARK VINA RESULT:      -7.3      1.834      2.306
REMARK  6 active torsions:
REMARK  status: ('A' for Active; 'I' for Inactive)
REMARK    1  A    between atoms: C_5  and  N_1 
REMARK    2  A    between atoms: C_4  and  C_5 
REMARK       I    between atoms: N_8  and  C_4 
REMARK    3  A    between atoms: C_6  and  C_9 
REMARK    4  A    between atoms: O_19  and  C_6 
REMARK    5  A    between atoms: C_16  and  N_8 
REMARK    6  A    between atoms: C_22  and  O_19 
ROOT
ATOM      1  C   UNL d   1      52.900  33.054  53.769  0.00  0.00     0.297 C 
ATOM      2  N   UNL d   1      52.407  32.813  53.149  0.00  0.00    -0.207 NA
ATOM      3  O   UNL d   1      52.723  33.742  54.189  0.00  0.00    -0.264 OA
ENDROOT
BRANCH   2   4
ATOM      4  C   UNL d   1      51.740  33.259  52.951  0.00  0.00     0.085 A 
ATOM      5  C   UNL d   1      51.792  33.846  52.373  0.00  0.00     0.019 A 
ATOM      6  C   UNL d   1      51.120  34.280  52.188  0.00  0.00     0.007 A 
ATOM      7  C   UNL d   1      50.407  34.141  52.564  0.00  0.00     0.064 A 
ATOM      8  C   UNL d   1      50.359  33.554  53.141  0.00  0.00     0.007 A 
ATOM      9  C   UNL d   1      51.026  33.108  53.339  0.00  0.00     0.019 A 
BRANCH   7  10
ATOM     10  C   UNL d   1      49.736  34.585  52.369  0.00  0.00     0.300 C 
ATOM     11  O   UNL d   1      49.436  35.131  52.911  0.00  0.00    -0.259 OA
BRANCH  10  12
ATOM     12  O   UNL d   1      49.372  34.486  51.647  0.00  0.00    -0.271 OA
BRANCH  12  13
ATOM     13  C   UNL d   1      48.669  34.873  51.470  0.00  0.00     0.126 C 
ATOM     14  C   UNL d   1      48.300  34.766  50.751  0.00  0.00     0.029 C 
ENDBRANCH  12  13
ENDBRANCH  10  12
ENDBRANCH   7  10
ENDBRANCH   2   4
BRANCH   1  15
ATOM     15  C   UNL d   1      53.561  32.619  53.970  0.00  0.00     0.148 C 
BRANCH  15  16
ATOM     16  N   UNL d   1      54.212  32.990  54.314  0.00  0.00    -0.235 N 
ATOM     17  C   UNL d   1      54.232  33.111  55.134  0.00  0.00     0.274 A 
ATOM     18  O   UNL d   1      53.598  32.861  55.603  0.00  0.00    -0.266 OA
ATOM     19  C   UNL d   1      54.877  33.479  55.474  0.00  0.00     0.097 A 
ATOM     20  S   UNL d   1      55.508  33.731  55.018  0.00  0.00    -0.076 SA
ATOM     21  C   UNL d   1      55.493  33.612  54.206  0.00  0.00     0.097 A 
ATOM     22  C   UNL d   1      54.849  33.243  53.847  0.00  0.00     0.274 A 
ATOM     23  O   UNL d   1      54.831  33.123  53.033  0.00  0.00    -0.266 OA
ENDBRANCH  15  16
ENDBRANCH   1  15
TORSDOF 6
ENDMDL
MODEL 3
REMARK VINA RESULT:      -6.5      2.382      5.098
REMARK  6 active torsions:
REMARK  status: ('A' for Active; 'I' for Inactive)
REMARK    1  A    between atoms: C_5  and  N_1 
REMARK    2  A    between atoms: C_4  and  C_5 
REMARK       I    between atoms: N_8  and  C_4 
REMARK    3  A    between atoms: C_6  and  C_9 
REMARK    4  A    between atoms: O_19  and  C_6 
REMARK    5  A    between atoms: C_16  and  N_8 
REMARK    6  A    between atoms: C_22  and  O_19 
ROOT
ATOM      1  C   UNL d   1      53.272  33.200  53.432  0.00  0.00     0.297 C 
ATOM      2  N   UNL d   1      53.319  32.600  52.863  0.00  0.00    -0.207 NA
ATOM      3  O   UNL d   1      53.156  33.004  54.225  0.00  0.00    -0.264 OA
ENDROOT
BRANCH   2   4
ATOM      4  C   UNL d   1      53.250  31.808  53.088  0.00  0.00     0.085 A 
ATOM      5  C   UNL d   1      53.908  31.400  53.373  0.00  0.00     0.019 A 
ATOM      6  C   UNL d   1      53.823  30.613  53.593  0.00  0.00     0.007 A 
ATOM      7  C   UNL d   1      53.102  30.231  53.534  0.00  0.00     0.064 A 
ATOM      8  C   UNL d   1      52.446  30.642  53.248  0.00  0.00     0.007 A 
ATOM      9  C   UNL d   1      52.515  31.434  53.023  0.00  0.00     0.019 A 
BRANCH   7  10
ATOM     10  C   UNL d   1      53.027  29.438  53.758  0.00  0.00     0.300 C 
ATOM     11  O   UNL d   1      52.687  28.896  53.236  0.00  0.00    -0.259 OA
BRANCH  10  12
ATOM     12  O   UNL d   1      53.287  29.190  54.489  0.00  0.00    -0.271 OA
BRANCH  12  13
ATOM     13  C   UNL d   1      53.302  28.392  54.687  0.00  0.00     0.126 C 
ATOM     14  C   UNL d   1      53.470  28.150  55.446  0.00  0.00     0.029 C 
ENDBRANCH  12  13
ENDBRANCH  10  12
ENDBRANCH   7  10
ENDBRANCH   2   4
BRANCH   1  15
ATOM     15  C   UNL d   1      53.340  33.984  53.217  0.00  0.00     0.148 C 
BRANCH  15  16
ATOM     16  N   UNL d   1      53.070  34.577  53.724  0.00  0.00    -0.235 N 
ATOM     17  C   UNL d   1      52.313  34.895  53.618  0.00  0.00     0.274 A 
ATOM     18  O   UNL d   1      51.830  34.618  53.006  0.00  0.00    -0.266 OA
ATOM     19  C   UNL d   1      52.045  35.482  54.120  0.00  0.00     0.097 A 
ATOM     20  S   UNL d   1      52.516  35.763  54.728  0.00  0.00    -0.076 SA
ATOM     21  C   UNL d   1      53.266  35.451  54.836  0.00  0.00     0.097 A 
ATOM     22  C   UNL d   1      53.551  34.858  54.338  0.00  0.00     0.274 A 
ATOM     23  O   UNL d   1      54.304  34.542  54.444  0.00  0.00    -0.266 OA
ENDBRANCH  15  16
ENDBRANCH   1  15
TORSDOF 6
ENDMDL
MODEL 4
REMARK VINA RESULT:      -6.5      1.837      4.999
REMARK  6 active torsions:
REMARK  status: ('A' for Active; 'I' for Inactive)
REMARK    1  A    between atoms: C_5  and  N_1 
REMARK    2  A    between atoms: C_4  and  C_5 
REMARK       I    between atoms: N_8  and  C_4 
REMARK    3  A    between atoms: C_6  and  C_9 
REMARK    4  A    between atoms: O_19  and  C_6 
REMARK    5  A    between atoms: C_16  and  N_8 
REMARK    6  A    between atoms: C_22  and  O_19 
ROOT
ATOM      1  C   UNL d   1      52.087  33.397  52.963  0.00  0.00     0.297 C 
ATOM      2  N   UNL d   1      52.767  33.024  52.672  0.00  0.00    -0.207 NA
ATOM      3  O   UNL d   1      51.621  33.016  53.527  0.00  0.00    -0.264 OA
ENDROOT
BRANCH   2   4
ATOM      4  C   UNL d   1      52.979  32.274  52.946  0.00  0.00     0.085 A 
ATOM      5  C   UNL d   1      52.631  31.601  52.618  0.00  0.00     0.019 A 
ATOM      6  C   UNL d   1      52.852  30.862  52.902  0.00  0.00     0.007 A 
ATOM      7  C   UNL d   1      53.406  30.784  53.498  0.00  0.00     0.064 A 
ATOM      8  C   UNL d   1      53.752  31.459  53.824  0.00  0.00     0.007 A 
ATOM      9  C   UNL d   1      53.540  32.210  53.550  0.00  0.00     0.019 A 
BRANCH   7  10
ATOM     10  C   UNL d   1      53.622  30.035  53.777  0.00  0.00     0.300 C 
ATOM     11  O   UNL d   1      54.235  29.624  53.409  0.00  0.00    -0.259 OA
BRANCH  10  12
ATOM     12  O   UNL d   1      53.231  29.703  54.410  0.00  0.00    -0.271 OA
BRANCH  12  13
ATOM     13  C   UNL d   1      53.384  28.930  54.645  0.00  0.00     0.126 C 
ATOM     14  C   UNL d   1      53.226  28.682  55.405  0.00  0.00     0.029 C 
ENDBRANCH  12  13
ENDBRANCH  10  12
ENDBRANCH   7  10
ENDBRANCH   2   4
BRANCH   1  15
ATOM     15  C   UNL d   1      51.872  34.138  52.697  0.00  0.00     0.148 C 
BRANCH  15  16
ATOM     16  N   UNL d   1      51.075  34.326  52.595  0.00  0.00    -0.235 N 
ATOM     17  C   UNL d   1      50.628  34.585  53.243  0.00  0.00     0.274 A 
ATOM     18  O   UNL d   1      50.982  34.654  53.987  0.00  0.00    -0.266 OA
ATOM     19  C   UNL d   1      49.839  34.772  53.142  0.00  0.00     0.097 A 
ATOM     20  S   UNL d   1      49.480  34.707  52.409  0.00  0.00    -0.076 SA
ATOM     21  C   UNL d   1      49.919  34.450  51.765  0.00  0.00     0.097 A 
ATOM     22  C   UNL d   1      50.717  34.258  51.850  0.00  0.00     0.274 A 
ATOM     23  O   UNL d   1      51.160  34.001  51.206  0.00  0.00    -0.266 OA
ENDBRANCH  15  16
ENDBRANCH   1  15
TORSDOF 6
ENDMDL
