MODEL 1
REMARK VINA RESULT:      -0.1      0.000      0.000
REMARK  6 active torsions:
REMARK  status: ('A' for Active; 'I' for Inactive)
REMARK    1  A    between atoms: S_3  and  C_1 
REMARK    2  A    between atoms: C_11  and  S_3 
REMARK    3  A    between atoms: S_8  and  C_4 
REMARK    4  A    between atoms: C_7  and  C_5 
REMARK    5  A    between atoms: C_16  and  S_8 
REMARK    6  A    between atoms: C_19  and  C_16 
ROOT
ATOM      1  C   UNL d   1      32.459  22.842 -21.196  0.00  0.00     0.200 A 
ATOM      2  N   UNL d   1      32.424  23.362 -21.837  0.00  0.00    -0.206 NA
ATOM      3  C   UNL d   1      32.569  22.076 -21.494  0.00  0.00     0.160 A 
ATOM      4  C   UNL d   1      32.514  22.919 -22.535  0.00  0.00     0.207 A 
ATOM      5  O   UNL d   1      32.603  22.128 -22.314  0.00  0.00    -0.279 OA
ENDROOT
BRANCH   1   6
ATOM      6  S   UNL d   1      32.393  23.056 -20.400  0.00  0.00     0.229 S 
ATOM      7  O   UNL d   1      31.579  23.074 -20.515  0.00  0.00    -0.215 OA
ATOM      8  O   UNL d   1      33.209  23.039 -20.278  0.00  0.00    -0.215 OA
BRANCH   6   9
ATOM      9  C   UNL d   1      32.338  23.270 -19.602  0.00  0.00     0.089 A 
ATOM     10  C   UNL d   1      33.018  23.321 -19.128  0.00  0.00     0.011 A 
ATOM     11  C   UNL d   1      32.958  23.532 -18.344  0.00  0.00     0.001 A 
ATOM     12  C   UNL d   1      32.220  23.697 -18.018  0.00  0.00     0.000 A 
ATOM     13  C   UNL d   1      31.543  23.650 -18.478  0.00  0.00     0.001 A 
ATOM     14  C   UNL d   1      31.597  23.437 -19.272  0.00  0.00     0.011 A 
ENDBRANCH   6   9
ENDBRANCH   1   6
BRANCH   3  15
ATOM     15  S   UNL d   1      32.635  21.386 -21.045  0.00  0.00    -0.060 SA
BRANCH  15  16
ATOM     16  C   UNL d   1      32.571  20.649 -21.415  0.00  0.00     0.037 C 
BRANCH  16  17
ATOM     17  C   UNL d   1      32.973  19.996 -21.111  0.00  0.00     0.006 C 
ATOM     18  C   UNL d   1      33.237  20.006 -20.329  0.00  0.00     0.001 C 
ATOM     19  C   UNL d   1      33.106  19.340 -21.590  0.00  0.00     0.001 C 
ENDBRANCH  16  17
ENDBRANCH  15  16
ENDBRANCH   3  15
BRANCH   4  20
ATOM     20  C   UNL d   1      32.513  23.220 -23.307  0.00  0.00     0.141 A 
ATOM     21  O   UNL d   1      33.182  23.431 -23.755  0.00  0.00    -0.302 OA
ATOM     22  C   UNL d   1      32.931  23.700 -24.482  0.00  0.00     0.123 A 
ATOM     23  C   UNL d   1      32.108  23.665 -24.506  0.00  0.00     0.029 A 
ATOM     24  C   UNL d   1      31.849  23.369 -23.782  0.00  0.00     0.030 A 
ENDBRANCH   4  20
TORSDOF 6
ENDMDL
MODEL 2
REMARK VINA RESULT:       0.4      1.533      3.370
REMARK  6 active torsions:
REMARK  status: ('A' for Active; 'I' for Inactive)
REMARK    1  A    between atoms: S_3  and  C_1 
REMARK    2  A    between atoms: C_11  and  S_3 
REMARK    3  A    between atoms: S_8  and  C_4 
REMARK    4  A    between atoms: C_7  and  C_5 
REMARK    5  A    between atoms: C_16  and  S_8 
REMARK    6  A    between atoms: C_19  and  C_16 
ROOT
ATOM      1  C   UNL d   1      32.907  21.107 -21.756  0.00  0.00     0.200 A 
ATOM      2  N   UNL d   1      32.888  20.280 -21.728  0.00  0.00    -0.206 NA
ATOM      3  C   UNL d   1      33.037  21.332 -22.544  0.00  0.00     0.160 A 
ATOM      4  C   UNL d   1      33.006  19.992 -22.498  0.00  0.00     0.207 A 
ATOM      5  O   UNL d   1      33.097  20.647 -22.995  0.00  0.00    -0.279 OA
ENDROOT
BRANCH   1   6
ATOM      6  S   UNL d   1      32.812  21.611 -21.108  0.00  0.00     0.229 S 
ATOM      7  O   UNL d   1      33.241  21.063 -20.671  0.00  0.00    -0.215 OA
ATOM      8  O   UNL d   1      32.381  22.165 -21.542  0.00  0.00    -0.215 OA
BRANCH   6   9
ATOM      9  C   UNL d   1      32.711  22.123 -20.466  0.00  0.00     0.089 A 
ATOM     10  C   UNL d   1      32.336  22.858 -20.562  0.00  0.00     0.011 A 
ATOM     11  C   UNL d   1      32.240  23.357 -19.927  0.00  0.00     0.001 A 
ATOM     12  C   UNL d   1      32.516  23.135 -19.183  0.00  0.00     0.000 A 
ATOM     13  C   UNL d   1      32.887  22.412 -19.078  0.00  0.00     0.001 A 
ATOM     14  C   UNL d   1      32.988  21.901 -19.717  0.00  0.00     0.011 A 
ENDBRANCH   6   9
ENDBRANCH   1   6
BRANCH   3  15
ATOM     15  S   UNL d   1      33.095  22.107 -22.822  0.00  0.00    -0.060 SA
BRANCH  15  16
ATOM     16  C   UNL d   1      33.221  22.244 -23.628  0.00  0.00     0.037 C 
BRANCH  16  17
ATOM     17  C   UNL d   1      32.990  22.958 -23.969  0.00  0.00     0.006 C 
ATOM     18  C   UNL d   1      32.559  22.952 -24.674  0.00  0.00     0.001 C 
ATOM     19  C   UNL d   1      33.189  23.669 -23.605  0.00  0.00     0.001 C 
ENDBRANCH  16  17
ENDBRANCH  15  16
ENDBRANCH   3  15
BRANCH   4  20
ATOM     20  C   UNL d   1      33.028  19.195 -22.723  0.00  0.00     0.141 A 
ATOM     21  O   UNL d   1      32.928  18.897 -23.493  0.00  0.00    -0.302 OA
ATOM     22  C   UNL d   1      32.991  18.084 -23.465  0.00  0.00     0.123 A 
ATOM     23  C   UNL d   1      33.131  17.858 -22.685  0.00  0.00     0.029 A 
ATOM     24  C   UNL d   1      33.154  18.542 -22.226  0.00  0.00     0.030 A 
ENDBRANCH   4  20
TORSDOF 6
ENDMDL
MODEL 3
REMARK VINA RESULT:       1.3      1.373      4.435
REMARK  6 active torsions:
REMARK  status: ('A' for Active; 'I' for Inactive)
REMARK    1  A    between atoms: S_3  and  C_1 
REMARK    2  A    between atoms: C_11  and  S_3 
REMARK    3  A    between atoms: S_8  and  C_4 
REMARK    4  A    between atoms: C_7  and  C_5 
REMARK    5  A    between atoms: C_16  and  S_8 
REMARK    6  A    between atoms: C_19  and  C_16 
ROOT
ATOM      1  C   UNL d   1      33.035  21.340 -21.845  0.00  0.00     0.200 A 
ATOM      2  N   UNL d   1      33.053  21.461 -21.027  0.00  0.00    -0.206 NA
ATOM      3  C   UNL d   1      33.069  22.083 -22.213  0.00  0.00     0.160 A 
ATOM      4  C   UNL d   1      33.098  22.278 -20.886  0.00  0.00     0.207 A 
ATOM      5  O   UNL d   1      33.108  22.654 -21.622  0.00  0.00    -0.279 OA
ENDROOT
BRANCH   1   6
ATOM      6  S   UNL d   1      32.991  20.606 -22.222  0.00  0.00     0.229 S 
ATOM      7  O   UNL d   1      33.241  20.988 -22.906  0.00  0.00    -0.215 OA
ATOM      8  O   UNL d   1      32.740  20.217 -21.539  0.00  0.00    -0.215 OA
BRANCH   6   9
ATOM      9  C   UNL d   1      32.944  19.866 -22.590  0.00  0.00     0.089 A 
ATOM     10  C   UNL d   1      32.907  19.805 -23.417  0.00  0.00     0.011 A 
ATOM     11  C   UNL d   1      32.860  19.075 -23.774  0.00  0.00     0.001 A 
ATOM     12  C   UNL d   1      32.850  18.392 -23.314  0.00  0.00     0.000 A 
ATOM     13  C   UNL d   1      32.885  18.442 -22.497  0.00  0.00     0.001 A 
ATOM     14  C   UNL d   1      32.933  19.178 -22.129  0.00  0.00     0.011 A 
ENDBRANCH   6   9
ENDBRANCH   1   6
BRANCH   3  15
ATOM     15  S   UNL d   1      33.065  22.221 -23.027  0.00  0.00    -0.060 SA
BRANCH  15  16
ATOM     16  C   UNL d   1      33.175  22.989 -23.312  0.00  0.00     0.037 C 
BRANCH  16  17
ATOM     17  C   UNL d   1      32.825  23.223 -24.021  0.00  0.00     0.006 C 
ATOM     18  C   UNL d   1      33.150  22.974 -24.738  0.00  0.00     0.001 C 
ATOM     19  C   UNL d   1      32.156  23.702 -24.008  0.00  0.00     0.001 C 
ENDBRANCH  16  17
ENDBRANCH  15  16
ENDBRANCH   3  15
BRANCH   4  20
ATOM     20  C   UNL d   1      33.128  22.644 -20.143  0.00  0.00     0.141 A 
ATOM     21  O   UNL d   1      33.199  23.460 -19.998  0.00  0.00    -0.302 OA
ATOM     22  C   UNL d   1      33.207  23.579 -19.192  0.00  0.00     0.123 A 
ATOM     23  C   UNL d   1      33.142  22.848 -18.818  0.00  0.00     0.029 A 
ATOM     24  C   UNL d   1      33.093  22.270 -19.403  0.00  0.00     0.030 A 
ENDBRANCH   4  20
TORSDOF 6
ENDMDL
MODEL 4
REMARK VINA RESULT:       2.4      0.995      3.786
REMARK  6 active torsions:
REMARK  status: ('A' for Active; 'I' for Inactive)
REMARK    1  A    between atoms: S_3  and  C_1 
REMARK    2  A    between atoms: C_11  and  S_3 
REMARK    3  A    between atoms: S_8  and  C_4 
REMARK    4  A    between atoms: C_7  and  C_5 
REMARK    5  A    between atoms: C_16  and  S_8 
REMARK    6  A    between atoms: C_19  and  C_16 
ROOT
ATOM      1  C   UNL d   1      32.815  22.619 -21.796  0.00  0.00     0.200 A 
ATOM      2  N   UNL d   1      32.693  23.069 -21.113  0.00  0.00    -0.206 NA
ATOM      3  C   UNL d   1      33.058  21.862 -21.562  0.00  0.00     0.160 A 
ATOM      4  C   UNL d   1      32.860  22.592 -20.455  0.00  0.00     0.207 A 
ATOM      5  O   UNL d   1      33.085  21.849 -20.740  0.00  0.00    -0.279 OA
ENDROOT
BRANCH   1   6
ATOM      6  S   UNL d   1      32.710  22.886 -22.571  0.00  0.00     0.229 S 
ATOM      7  O   UNL d   1      32.238  23.483 -22.258  0.00  0.00    -0.215 OA
ATOM      8  O   UNL d   1      33.182  22.290 -22.891  0.00  0.00    -0.215 OA
BRANCH   6   9
ATOM      9  C   UNL d   1      32.611  23.145 -23.351  0.00  0.00     0.089 A 
ATOM     10  C   UNL d   1      33.241  23.116 -23.892  0.00  0.00     0.011 A 
ATOM     11  C   UNL d   1      33.138  23.372 -24.657  0.00  0.00     0.001 A 
ATOM     12  C   UNL d   1      32.406  23.662 -24.899  0.00  0.00     0.000 A 
ATOM     13  C   UNL d   1      31.778  23.695 -24.373  0.00  0.00     0.001 A 
ATOM     14  C   UNL d   1      31.876  23.437 -23.596  0.00  0.00     0.011 A 
ENDBRANCH   6   9
ENDBRANCH   1   6
BRANCH   3  15
ATOM     15  S   UNL d   1      33.240  21.235 -22.067  0.00  0.00    -0.060 SA
BRANCH  15  16
ATOM     16  C   UNL d   1      33.201  20.458 -21.785  0.00  0.00     0.037 C 
BRANCH  16  17
ATOM     17  C   UNL d   1      33.091  19.831 -22.310  0.00  0.00     0.006 C 
ATOM     18  C   UNL d   1      33.104  19.055 -22.027  0.00  0.00     0.001 C 
ATOM     19  C   UNL d   1      32.971  19.984 -23.109  0.00  0.00     0.001 C 
ENDBRANCH  16  17
ENDBRANCH  15  16
ENDBRANCH   3  15
BRANCH   4  20
ATOM     20  C   UNL d   1      32.811  22.821 -19.659  0.00  0.00     0.141 A 
ATOM     21  O   UNL d   1      33.093  22.393 -19.004  0.00  0.00    -0.302 OA
ATOM     22  C   UNL d   1      32.930  22.819 -18.329  0.00  0.00     0.123 A 
ATOM     23  C   UNL d   1      32.545  23.516 -18.543  0.00  0.00     0.029 A 
ATOM     24  C   UNL d   1      32.471  23.518 -19.364  0.00  0.00     0.030 A 
ENDBRANCH   4  20
TORSDOF 6
ENDMDL
