MODEL 1
REMARK VINA RESULT:      -8.7      0.000      0.000
REMARK  3 active torsions:
REMARK  status: ('A' for Active; 'I' for Inactive)
REMARK    1  A    between atoms: N_6  and  C_1 
REMARK    2  A    between atoms: C_7  and  C_2 
REMARK    3  A    between atoms: C_9  and  C_5 
ROOT
ATOM      1  C   UNL d   1      52.973  33.384  53.679  0.00  0.00     0.189 A 
ATOM      2  C   UNL d   1      52.744  32.674  53.268  0.00  0.00     0.144 A 
ATOM      3  O   UNL d   1      52.387  33.965  53.479  0.00  0.00    -0.271 OA
ATOM      4  N   UNL d   1      52.062  32.822  52.848  0.00  0.00    -0.217 NA
ATOM      5  C   UNL d   1      51.844  33.577  52.965  0.00  0.00     0.184 A 
ENDROOT
BRANCH   5   6
ATOM      6  C   UNL d   1      51.179  33.891  52.617  0.00  0.00     0.041 A 
ATOM      7  C   UNL d   1      51.174  34.084  51.813  0.00  0.00     0.004 A 
ATOM      8  C   UNL d   1      50.488  34.400  51.484  0.00  0.00     0.011 A 
ATOM      9  C   UNL d   1      49.829  34.523  51.926  0.00  0.00     0.058 A 
ATOM     10  C   UNL d   1      49.838  34.328  52.733  0.00  0.00     0.011 A 
ATOM     11 CL   UNL d   1      49.069  34.836  51.721  0.00  0.00    -0.082 Cl
ATOM     12  C   UNL d   1      50.527  34.008  53.072  0.00  0.00     0.004 A 
ENDBRANCH   5   6
BRANCH   1  13
ATOM     13  N   UNL d   1      53.607  33.238  54.066  0.00  0.00    -0.284 N 
ATOM     14  C   UNL d   1      54.247  32.719  54.255  0.00  0.00     0.082 A 
ATOM     15  C   UNL d   1      54.815  32.959  54.803  0.00  0.00     0.019 A 
ATOM     16  C   UNL d   1      54.763  33.709  55.171  0.00  0.00     0.003 A 
ATOM     17  C   UNL d   1      54.143  34.219  54.992  0.00  0.00     0.019 A 
ATOM     18  C   UNL d   1      53.555  33.987  54.434  0.00  0.00     0.082 A 
ENDBRANCH   1  13
BRANCH   2  19
ATOM     19  C   UNL d   1      53.200  32.141  53.394  0.00  0.00     0.145 C 
ATOM     20  N   UNL d   1      53.329  31.106  53.185  0.00  0.00    -0.145 N 
ENDBRANCH   2  19
TORSDOF 3
ENDMDL
MODEL 2
REMARK VINA RESULT:      -8.5      1.234      2.158
REMARK  3 active torsions:
REMARK  status: ('A' for Active; 'I' for Inactive)
REMARK    1  A    between atoms: N_6  and  C_1 
REMARK    2  A    between atoms: C_7  and  C_2 
REMARK    3  A    between atoms: C_9  and  C_5 
ROOT
ATOM      1  C   UNL d   1      52.744  31.868  53.225  0.00  0.00     0.189 A 
ATOM      2  C   UNL d   1      53.194  32.576  53.369  0.00  0.00     0.144 A 
ATOM      3  O   UNL d   1      51.971  32.131  52.991  0.00  0.00    -0.271 OA
ATOM      4  N   UNL d   1      52.720  33.223  53.230  0.00  0.00    -0.217 NA
ATOM      5  C   UNL d   1      51.999  32.973  53.008  0.00  0.00     0.184 A 
ENDROOT
BRANCH   5   6
ATOM      6  C   UNL d   1      51.400  33.493  52.830  0.00  0.00     0.041 A 
ATOM      7  C   UNL d   1      51.410  33.925  52.124  0.00  0.00     0.004 A 
ATOM      8  C   UNL d   1      50.792  34.446  51.967  0.00  0.00     0.011 A 
ATOM      9  C   UNL d   1      50.183  34.542  52.483  0.00  0.00     0.058 A 
ATOM     10  C   UNL d   1      50.177  34.108  53.191  0.00  0.00     0.011 A 
ATOM     11 CL   UNL d   1      49.495  35.035  52.449  0.00  0.00    -0.082 Cl
ATOM     12  C   UNL d   1      50.798  33.580  53.355  0.00  0.00     0.004 A 
ENDBRANCH   5   6
BRANCH   1  13
ATOM     13  N   UNL d   1      53.192  31.273  53.357  0.00  0.00    -0.284 N 
ATOM     14  C   UNL d   1      53.945  30.956  53.575  0.00  0.00     0.082 A 
ATOM     15  C   UNL d   1      54.046  30.138  53.607  0.00  0.00     0.019 A 
ATOM     16  C   UNL d   1      53.413  29.622  53.427  0.00  0.00     0.003 A 
ATOM     17  C   UNL d   1      52.678  29.923  53.214  0.00  0.00     0.019 A 
ATOM     18  C   UNL d   1      52.559  30.756  53.176  0.00  0.00     0.082 A 
ENDBRANCH   1  13
BRANCH   2  19
ATOM     19  C   UNL d   1      53.860  32.424  53.572  0.00  0.00     0.145 C 
ATOM     20  N   UNL d   1      54.763  32.912  53.855  0.00  0.00    -0.145 N 
ENDBRANCH   2  19
TORSDOF 3
ENDMDL
MODEL 3
REMARK VINA RESULT:      -8.5      2.289      3.644
REMARK  3 active torsions:
REMARK  status: ('A' for Active; 'I' for Inactive)
REMARK    1  A    between atoms: N_6  and  C_1 
REMARK    2  A    between atoms: C_7  and  C_2 
REMARK    3  A    between atoms: C_9  and  C_5 
ROOT
ATOM      1  C   UNL d   1      53.253  33.295  54.102  0.00  0.00     0.189 A 
ATOM      2  C   UNL d   1      53.975  32.995  54.438  0.00  0.00     0.144 A 
ATOM      3  O   UNL d   1      52.860  32.623  53.763  0.00  0.00    -0.271 OA
ATOM      4  N   UNL d   1      54.012  32.192  54.307  0.00  0.00    -0.217 NA
ATOM      5  C   UNL d   1      53.361  31.963  53.911  0.00  0.00     0.184 A 
ENDROOT
BRANCH   5   6
ATOM      6  C   UNL d   1      53.238  31.188  53.699  0.00  0.00     0.041 A 
ATOM      7  C   UNL d   1      52.942  30.995  52.952  0.00  0.00     0.004 A 
ATOM      8  C   UNL d   1      52.826  30.202  52.762  0.00  0.00     0.011 A 
ATOM      9  C   UNL d   1      52.995  29.616  53.285  0.00  0.00     0.058 A 
ATOM     10  C   UNL d   1      53.293  29.814  54.034  0.00  0.00     0.011 A 
ATOM     11 CL   UNL d   1      52.926  28.775  53.222  0.00  0.00    -0.082 Cl
ATOM     12  C   UNL d   1      53.412  30.613  54.233  0.00  0.00     0.004 A 
ENDBRANCH   5   6
BRANCH   1  13
ATOM     13  N   UNL d   1      53.227  34.041  54.228  0.00  0.00    -0.284 N 
ATOM     14  C   UNL d   1      53.508  34.726  54.636  0.00  0.00     0.082 A 
ATOM     15  C   UNL d   1      53.178  35.462  54.468  0.00  0.00     0.019 A 
ATOM     16  C   UNL d   1      52.569  35.537  53.899  0.00  0.00     0.003 A 
ATOM     17  C   UNL d   1      52.290  34.876  53.498  0.00  0.00     0.019 A 
ATOM     18  C   UNL d   1      52.618  34.116  53.659  0.00  0.00     0.082 A 
ENDBRANCH   1  13
BRANCH   2  19
ATOM     19  C   UNL d   1      54.357  33.514  54.742  0.00  0.00     0.145 C 
ATOM     20  N   UNL d   1      55.276  33.661  55.257  0.00  0.00    -0.145 N 
ENDBRANCH   2  19
TORSDOF 3
ENDMDL
MODEL 4
REMARK VINA RESULT:      -6.9      2.538      4.906
REMARK  3 active torsions:
REMARK  status: ('A' for Active; 'I' for Inactive)
REMARK    1  A    between atoms: N_6  and  C_1 
REMARK    2  A    between atoms: C_7  and  C_2 
REMARK    3  A    between atoms: C_9  and  C_5 
ROOT
ATOM      1  C   UNL d   1      49.124  35.184  52.767  0.00  0.00     0.189 A 
ATOM      2  C   UNL d   1      49.193  34.747  52.039  0.00  0.00     0.144 A 
ATOM      3  O   UNL d   1      49.813  34.984  53.221  0.00  0.00    -0.271 OA
ATOM      4  N   UNL d   1      49.881  34.312  52.057  0.00  0.00    -0.217 NA
ATOM      5  C   UNL d   1      50.253  34.444  52.747  0.00  0.00     0.184 A 
ENDROOT
BRANCH   5   6
ATOM      6  C   UNL d   1      50.959  34.085  52.929  0.00  0.00     0.041 A 
ATOM      7  C   UNL d   1      50.976  33.344  53.296  0.00  0.00     0.004 A 
ATOM      8  C   UNL d   1      51.705  33.002  53.469  0.00  0.00     0.011 A 
ATOM      9  C   UNL d   1      52.395  33.371  53.289  0.00  0.00     0.058 A 
ATOM     10  C   UNL d   1      52.375  34.115  52.921  0.00  0.00     0.011 A 
ATOM     11 CL   UNL d   1      53.201  33.139  53.409  0.00  0.00    -0.082 Cl
ATOM     12  C   UNL d   1      51.642  34.466  52.743  0.00  0.00     0.004 A 
ENDBRANCH   5   6
BRANCH   1  13
ATOM     13  N   UNL d   1      48.483  35.585  52.741  0.00  0.00    -0.284 N 
ATOM     14  C   UNL d   1      47.799  35.848  52.320  0.00  0.00     0.082 A 
ATOM     15  C   UNL d   1      47.261  36.349  52.693  0.00  0.00     0.019 A 
ATOM     16  C   UNL d   1      47.386  36.599  53.482  0.00  0.00     0.003 A 
ATOM     17  C   UNL d   1      48.049  36.347  53.898  0.00  0.00     0.019 A 
ATOM     18  C   UNL d   1      48.608  35.835  53.530  0.00  0.00     0.082 A 
ENDBRANCH   1  13
BRANCH   2  19
ATOM     19  C   UNL d   1      48.640  34.872  51.607  0.00  0.00     0.145 C 
ATOM     20  N   UNL d   1      48.243  34.557  50.672  0.00  0.00    -0.145 N 
ENDBRANCH   2  19
TORSDOF 3
ENDMDL
