MODEL 1
REMARK VINA RESULT:      -7.3      0.000      0.000
REMARK  4 active torsions:
REMARK  status: ('A' for Active; 'I' for Inactive)
REMARK    1  A    between atoms: C_2  and  C_1 
REMARK       I    between atoms: N_4  and  C_2 
REMARK    2  A    between atoms: C_5  and  N_4 
REMARK    3  A    between atoms: O_17  and  C_9 
REMARK    4  A    between atoms: O_18  and  C_12 
ROOT
ATOM      1  C   UNL d   1     -47.420  14.481  22.595  0.00  0.00     0.353 C 
ATOM      2  N   UNL d   1     -47.048  13.757  22.760  0.00  0.00    -0.361 NA
ATOM      3  O   UNL d   1     -46.974  15.155  22.514  0.00  0.00    -0.249 OA
ENDROOT
BRANCH   1   4
ATOM      4  C   UNL d   1     -48.249  14.522  22.510  0.00  0.00     0.195 A 
ATOM      5  O   UNL d   1     -48.617  14.070  21.930  0.00  0.00    -0.297 OA
ATOM      6  C   UNL d   1     -49.431  14.127  21.865  0.00  0.00     0.123 A 
ATOM      7  C   UNL d   1     -49.824  13.667  21.271  0.00  0.00     0.027 A 
ATOM      8  C   UNL d   1     -49.883  14.611  22.350  0.00  0.00     0.123 A 
ATOM      9  C   UNL d   1     -50.628  13.727  21.211  0.00  0.00     0.002 A 
ATOM     10  C   UNL d   1     -51.064  14.219  21.709  0.00  0.00     0.002 A 
ATOM     11  C   UNL d   1     -50.703  14.659  22.275  0.00  0.00     0.027 A 
ATOM     12  O   UNL d   1     -49.496  15.063  22.934  0.00  0.00    -0.301 OA
ATOM     13  C   UNL d   1     -48.685  15.015  23.008  0.00  0.00     0.153 A 
ENDBRANCH   1   4
BRANCH   2  14
ATOM     14  C   UNL d   1     -46.694  13.035  22.924  0.00  0.00     0.159 A 
ATOM     15  C   UNL d   1     -47.129  12.415  23.229  0.00  0.00     0.059 A 
ATOM     16  C   UNL d   1     -46.774  11.679  23.397  0.00  0.00     0.107 A 
ATOM     17  C   UNL d   1     -45.942  11.589  23.242  0.00  0.00     0.082 A 
ATOM     18  C   UNL d   1     -45.507  12.209  22.937  0.00  0.00     0.040 A 
ATOM     19 CL   UNL d   1     -45.598  10.860  23.410  0.00  0.00    -0.080 Cl
ATOM     20  C   UNL d   1     -45.875  12.941  22.773  0.00  0.00     0.125 A 
BRANCH  16  21
ATOM     21  O   UNL d   1     -47.203  11.068  23.697  0.00  0.00    -0.327 OA
ATOM     22  C   UNL d   1     -48.026  11.102  23.698  0.00  0.00     0.181 C 
ENDBRANCH  16  21
BRANCH  20  23
ATOM     23  O   UNL d   1     -45.435  13.568  22.465  0.00  0.00    -0.326 OA
ATOM     24  C   UNL d   1     -44.708  13.402  22.129  0.00  0.00     0.181 C 
ENDBRANCH  20  23
ENDBRANCH   2  14
TORSDOF 4
ENDMDL
MODEL 2
REMARK VINA RESULT:      -7.1      1.617      4.253
REMARK  4 active torsions:
REMARK  status: ('A' for Active; 'I' for Inactive)
REMARK    1  A    between atoms: C_2  and  C_1 
REMARK       I    between atoms: N_4  and  C_2 
REMARK    2  A    between atoms: C_5  and  N_4 
REMARK    3  A    between atoms: O_17  and  C_9 
REMARK    4  A    between atoms: O_18  and  C_12 
ROOT
ATOM      1  C   UNL d   1     -47.176  14.265  22.941  0.00  0.00     0.353 C 
ATOM      2  N   UNL d   1     -47.955  14.230  22.657  0.00  0.00    -0.361 NA
ATOM      3  O   UNL d   1     -46.875  14.971  23.209  0.00  0.00    -0.249 OA
ENDROOT
BRANCH   1   4
ATOM      4  C   UNL d   1     -46.698  13.582  22.956  0.00  0.00     0.195 A 
ATOM      5  O   UNL d   1     -46.980  12.901  23.322  0.00  0.00    -0.297 OA
ATOM      6  C   UNL d   1     -46.493  12.242  23.324  0.00  0.00     0.123 A 
ATOM      7  C   UNL d   1     -46.771  11.534  23.697  0.00  0.00     0.027 A 
ATOM      8  C   UNL d   1     -45.748  12.239  22.980  0.00  0.00     0.123 A 
ATOM      9  C   UNL d   1     -46.286  10.887  23.697  0.00  0.00     0.002 A 
ATOM     10  C   UNL d   1     -45.540  10.904  23.345  0.00  0.00     0.002 A 
ATOM     11  C   UNL d   1     -45.267  11.569  22.989  0.00  0.00     0.027 A 
ATOM     12  O   UNL d   1     -45.475  12.936  22.614  0.00  0.00    -0.301 OA
ATOM     13  C   UNL d   1     -45.951  13.599  22.605  0.00  0.00     0.153 A 
ENDBRANCH   1   4
BRANCH   2  14
ATOM     14  C   UNL d   1     -48.723  14.179  22.373  0.00  0.00     0.159 A 
ATOM     15  C   UNL d   1     -48.938  13.591  21.848  0.00  0.00     0.059 A 
ATOM     16  C   UNL d   1     -49.718  13.535  21.556  0.00  0.00     0.107 A 
ATOM     17  C   UNL d   1     -50.288  14.110  21.820  0.00  0.00     0.082 A 
ATOM     18  C   UNL d   1     -50.072  14.699  22.344  0.00  0.00     0.040 A 
ATOM     19 CL   UNL d   1     -51.055  14.050  21.528  0.00  0.00    -0.080 Cl
ATOM     20  C   UNL d   1     -49.289  14.743  22.628  0.00  0.00     0.125 A 
BRANCH  16  21
ATOM     21  O   UNL d   1     -49.930  12.956  21.041  0.00  0.00    -0.327 OA
ATOM     22  C   UNL d   1     -49.599  12.204  21.105  0.00  0.00     0.181 C 
ENDBRANCH  16  21
BRANCH  20  23
ATOM     23  O   UNL d   1     -49.071  15.337  23.158  0.00  0.00    -0.326 OA
ATOM     24  C   UNL d   1     -49.663  15.789  23.496  0.00  0.00     0.181 C 
ENDBRANCH  20  23
ENDBRANCH   2  14
TORSDOF 4
ENDMDL
MODEL 3
REMARK VINA RESULT:      -6.7      7.504      9.665
REMARK  4 active torsions:
REMARK  status: ('A' for Active; 'I' for Inactive)
REMARK    1  A    between atoms: C_2  and  C_1 
REMARK       I    between atoms: N_4  and  C_2 
REMARK    2  A    between atoms: C_5  and  N_4 
REMARK    3  A    between atoms: O_17  and  C_9 
REMARK    4  A    between atoms: O_18  and  C_12 
ROOT
ATOM      1  C   UNL d   1     -40.548  14.147  18.602  0.00  0.00     0.353 C 
ATOM      2  N   UNL d   1     -40.282  14.344  19.364  0.00  0.00    -0.361 NA
ATOM      3  O   UNL d   1     -41.299  13.853  18.501  0.00  0.00    -0.249 OA
ENDROOT
BRANCH   1   4
ATOM      4  C   UNL d   1     -40.052  14.248  17.939  0.00  0.00     0.195 A 
ATOM      5  O   UNL d   1     -39.500  13.666  17.758  0.00  0.00    -0.297 OA
ATOM      6  C   UNL d   1     -39.024  13.786  17.103  0.00  0.00     0.123 A 
ATOM      7  C   UNL d   1     -38.450  13.195  16.905  0.00  0.00     0.027 A 
ATOM      8  C   UNL d   1     -39.079  14.455  16.630  0.00  0.00     0.123 A 
ATOM      9  C   UNL d   1     -37.982  13.318  16.257  0.00  0.00     0.002 A 
ATOM     10  C   UNL d   1     -38.054  13.998  15.794  0.00  0.00     0.002 A 
ATOM     11  C   UNL d   1     -38.593  14.564  15.972  0.00  0.00     0.027 A 
ATOM     12  O   UNL d   1     -39.644  15.035  16.825  0.00  0.00    -0.301 OA
ATOM     13  C   UNL d   1     -40.124  14.927  17.476  0.00  0.00     0.153 A 
ENDBRANCH   1   4
BRANCH   2  14
ATOM     14  C   UNL d   1     -40.005  14.544  20.109  0.00  0.00     0.159 A 
ATOM     15  C   UNL d   1     -39.312  14.222  20.399  0.00  0.00     0.059 A 
ATOM     16  C   UNL d   1     -39.025  14.421  21.157  0.00  0.00     0.107 A 
ATOM     17  C   UNL d   1     -39.476  14.972  21.624  0.00  0.00     0.082 A 
ATOM     18  C   UNL d   1     -40.169  15.293  21.335  0.00  0.00     0.040 A 
ATOM     19 CL   UNL d   1     -39.188  15.164  22.371  0.00  0.00    -0.080 Cl
ATOM     20  C   UNL d   1     -40.444  15.085  20.575  0.00  0.00     0.125 A 
BRANCH  16  21
ATOM     21  O   UNL d   1     -38.343  14.105  21.442  0.00  0.00    -0.327 OA
ATOM     22  C   UNL d   1     -38.228  13.289  21.425  0.00  0.00     0.181 C 
ENDBRANCH  16  21
BRANCH  20  23
ATOM     23  O   UNL d   1     -41.144  15.410  20.282  0.00  0.00    -0.326 OA
ATOM     24  C   UNL d   1     -41.582  15.893  20.776  0.00  0.00     0.181 C 
ENDBRANCH  20  23
ENDBRANCH   2  14
TORSDOF 4
ENDMDL
MODEL 4
REMARK VINA RESULT:      -6.4      8.356      9.687
REMARK  4 active torsions:
REMARK  status: ('A' for Active; 'I' for Inactive)
REMARK    1  A    between atoms: C_2  and  C_1 
REMARK       I    between atoms: N_4  and  C_2 
REMARK    2  A    between atoms: C_5  and  N_4 
REMARK    3  A    between atoms: O_17  and  C_9 
REMARK    4  A    between atoms: O_18  and  C_12 
ROOT
ATOM      1  C   UNL d   1     -40.637  14.187  19.133  0.00  0.00     0.353 C 
ATOM      2  N   UNL d   1     -40.141  14.096  18.473  0.00  0.00    -0.361 NA
ATOM      3  O   UNL d   1     -41.410  13.936  19.093  0.00  0.00    -0.249 OA
ENDROOT
BRANCH   1   4
ATOM      4  C   UNL d   1     -40.352  14.532  19.836  0.00  0.00     0.195 A 
ATOM      5  O   UNL d   1     -39.889  14.083  20.345  0.00  0.00    -0.297 OA
ATOM      6  C   UNL d   1     -39.619  14.442  21.030  0.00  0.00     0.123 A 
ATOM      7  C   UNL d   1     -39.141  13.991  21.564  0.00  0.00     0.027 A 
ATOM      8  C   UNL d   1     -39.793  15.222  21.220  0.00  0.00     0.123 A 
ATOM      9  C   UNL d   1     -38.878  14.351  22.239  0.00  0.00     0.002 A 
ATOM     10  C   UNL d   1     -39.064  15.136  22.412  0.00  0.00     0.002 A 
ATOM     11  C   UNL d   1     -39.516  15.573  21.914  0.00  0.00     0.027 A 
ATOM     12  O   UNL d   1     -40.264  15.665  20.695  0.00  0.00    -0.301 OA
ATOM     13  C   UNL d   1     -40.538  15.317  20.009  0.00  0.00     0.153 A 
ENDBRANCH   1   4
BRANCH   2  14
ATOM     14  C   UNL d   1     -39.638  14.014  17.831  0.00  0.00     0.159 A 
ATOM     15  C   UNL d   1     -39.080  13.416  17.808  0.00  0.00     0.059 A 
ATOM     16  C   UNL d   1     -38.567  13.328  17.157  0.00  0.00     0.107 A 
ATOM     17  C   UNL d   1     -38.637  13.879  16.512  0.00  0.00     0.082 A 
ATOM     18  C   UNL d   1     -39.194  14.476  16.534  0.00  0.00     0.040 A 
ATOM     19 CL   UNL d   1     -38.127  13.786  15.872  0.00  0.00    -0.080 Cl
ATOM     20  C   UNL d   1     -39.703  14.553  17.192  0.00  0.00     0.125 A 
BRANCH  16  21
ATOM     21  O   UNL d   1     -38.018  12.740  17.135  0.00  0.00    -0.327 OA
ATOM     22  C   UNL d   1     -37.997  12.173  17.732  0.00  0.00     0.181 C 
ENDBRANCH  16  21
BRANCH  20  23
ATOM     23  O   UNL d   1     -40.265  15.156  17.215  0.00  0.00    -0.326 OA
ATOM     24  C   UNL d   1     -40.310  15.667  16.578  0.00  0.00     0.181 C 
ENDBRANCH  20  23
ENDBRANCH   2  14
TORSDOF 4
ENDMDL
MODEL 5
REMARK VINA RESULT:      -5.9      1.654      4.171
REMARK  4 active torsions:
REMARK  status: ('A' for Active; 'I' for Inactive)
REMARK    1  A    between atoms: C_2  and  C_1 
REMARK       I    between atoms: N_4  and  C_2 
REMARK    2  A    between atoms: C_5  and  N_4 
REMARK    3  A    between atoms: O_17  and  C_9 
REMARK    4  A    between atoms: O_18  and  C_12 
ROOT
ATOM      1  C   UNL d   1     -47.071  13.876  23.027  0.00  0.00     0.353 C 
ATOM      2  N   UNL d   1     -47.820  13.587  22.815  0.00  0.00    -0.361 NA
ATOM      3  O   UNL d   1     -47.001  14.622  23.344  0.00  0.00    -0.249 OA
ENDROOT
BRANCH   1   4
ATOM      4  C   UNL d   1     -46.389  13.409  22.918  0.00  0.00     0.195 A 
ATOM      5  O   UNL d   1     -45.874  13.587  22.302  0.00  0.00    -0.297 OA
ATOM      6  C   UNL d   1     -45.210  13.115  22.214  0.00  0.00     0.123 A 
ATOM      7  C   UNL d   1     -44.671  13.287  21.584  0.00  0.00     0.027 A 
ATOM      8  C   UNL d   1     -45.045  12.483  22.712  0.00  0.00     0.123 A 
ATOM      9  C   UNL d   1     -44.017  12.818  21.502  0.00  0.00     0.002 A 
ATOM     10  C   UNL d   1     -43.869  12.187  22.012  0.00  0.00     0.002 A 
ATOM     11  C   UNL d   1     -44.373  12.015  22.613  0.00  0.00     0.027 A 
ATOM     12  O   UNL d   1     -45.576  12.315  23.332  0.00  0.00    -0.301 OA
ATOM     13  C   UNL d   1     -46.241  12.778  23.429  0.00  0.00     0.153 A 
ENDBRANCH   1   4
BRANCH   2  14
ATOM     14  C   UNL d   1     -48.553  13.287  22.601  0.00  0.00     0.159 A 
ATOM     15  C   UNL d   1     -48.786  12.541  22.837  0.00  0.00     0.059 A 
ATOM     16  C   UNL d   1     -49.530  12.231  22.622  0.00  0.00     0.107 A 
ATOM     17  C   UNL d   1     -50.045  12.715  22.147  0.00  0.00     0.082 A 
ATOM     18  C   UNL d   1     -49.811  13.462  21.910  0.00  0.00     0.040 A 
ATOM     19 CL   UNL d   1     -50.777  12.404  21.938  0.00  0.00    -0.080 Cl
ATOM     20  C   UNL d   1     -49.063  13.759  22.133  0.00  0.00     0.125 A 
BRANCH  16  21
ATOM     21  O   UNL d   1     -49.760  11.497  22.855  0.00  0.00    -0.327 OA
ATOM     22  C   UNL d   1     -49.842  11.325  23.656  0.00  0.00     0.181 C 
ENDBRANCH  16  21
BRANCH  20  23
ATOM     23  O   UNL d   1     -48.828  14.513  21.894  0.00  0.00    -0.326 OA
ATOM     24  C   UNL d   1     -49.408  15.057  21.702  0.00  0.00     0.181 C 
ENDBRANCH  20  23
ENDBRANCH   2  14
TORSDOF 4
ENDMDL
MODEL 6
REMARK VINA RESULT:      -5.8      1.912      4.568
REMARK  4 active torsions:
REMARK  status: ('A' for Active; 'I' for Inactive)
REMARK    1  A    between atoms: C_2  and  C_1 
REMARK       I    between atoms: N_4  and  C_2 
REMARK    2  A    between atoms: C_5  and  N_4 
REMARK    3  A    between atoms: O_17  and  C_9 
REMARK    4  A    between atoms: O_18  and  C_12 
ROOT
ATOM      1  C   UNL d   1     -48.676  11.946  23.227  0.00  0.00     0.353 C 
ATOM      2  N   UNL d   1     -49.164  12.589  23.034  0.00  0.00    -0.361 NA
ATOM      3  O   UNL d   1     -49.009  11.241  23.457  0.00  0.00    -0.249 OA
ENDROOT
BRANCH   1   4
ATOM      4  C   UNL d   1     -47.846  12.015  23.186  0.00  0.00     0.195 A 
ATOM      5  O   UNL d   1     -47.514  12.619  22.737  0.00  0.00    -0.297 OA
ATOM      6  C   UNL d   1     -46.697  12.668  22.712  0.00  0.00     0.123 A 
ATOM      7  C   UNL d   1     -46.342  13.286  22.253  0.00  0.00     0.027 A 
ATOM      8  C   UNL d   1     -46.208  12.145  23.113  0.00  0.00     0.123 A 
ATOM      9  C   UNL d   1     -45.535  13.330  22.232  0.00  0.00     0.002 A 
ATOM     10  C   UNL d   1     -45.060  12.793  22.642  0.00  0.00     0.002 A 
ATOM     11  C   UNL d   1     -45.386  12.205  23.079  0.00  0.00     0.027 A 
ATOM     12  O   UNL d   1     -46.558  11.538  23.564  0.00  0.00    -0.301 OA
ATOM     13  C   UNL d   1     -47.371  11.479  23.596  0.00  0.00     0.153 A 
ENDBRANCH   1   4
BRANCH   2  14
ATOM     14  C   UNL d   1     -49.634  13.233  22.840  0.00  0.00     0.159 A 
ATOM     15  C   UNL d   1     -49.631  13.907  23.301  0.00  0.00     0.059 A 
ATOM     16  C   UNL d   1     -50.106  14.565  23.109  0.00  0.00     0.107 A 
ATOM     17  C   UNL d   1     -50.598  14.517  22.415  0.00  0.00     0.082 A 
ATOM     18  C   UNL d   1     -50.600  13.842  21.954  0.00  0.00     0.040 A 
ATOM     19 CL   UNL d   1     -51.064  15.169  22.231  0.00  0.00    -0.080 Cl
ATOM     20  C   UNL d   1     -50.120  13.191  22.158  0.00  0.00     0.125 A 
BRANCH  16  21
ATOM     21  O   UNL d   1     -50.104  15.229  23.562  0.00  0.00    -0.327 OA
ATOM     22  C   UNL d   1     -49.406  15.653  23.669  0.00  0.00     0.181 C 
ENDBRANCH  16  21
BRANCH  20  23
ATOM     23  O   UNL d   1     -50.122  12.510  21.692  0.00  0.00    -0.326 OA
ATOM     24  C   UNL d   1     -50.604  12.495  21.031  0.00  0.00     0.181 C 
ENDBRANCH  20  23
ENDBRANCH   2  14
TORSDOF 4
ENDMDL
MODEL 7
REMARK VINA RESULT:      -5.5      7.837     10.048
REMARK  4 active torsions:
REMARK  status: ('A' for Active; 'I' for Inactive)
REMARK    1  A    between atoms: C_2  and  C_1 
REMARK       I    between atoms: N_4  and  C_2 
REMARK    2  A    between atoms: C_5  and  N_4 
REMARK    3  A    between atoms: O_17  and  C_9 
REMARK    4  A    between atoms: O_18  and  C_12 
ROOT
ATOM      1  C   UNL d   1     -38.388  13.807  19.758  0.00  0.00     0.353 C 
ATOM      2  N   UNL d   1     -38.290  13.770  18.934  0.00  0.00    -0.361 NA
ATOM      3  O   UNL d   1     -37.947  13.322  20.239  0.00  0.00    -0.249 OA
ENDROOT
BRANCH   1   4
ATOM      4  C   UNL d   1     -38.935  14.337  20.097  0.00  0.00     0.195 A 
ATOM      5  O   UNL d   1     -39.726  14.119  20.151  0.00  0.00    -0.297 OA
ATOM      6  C   UNL d   1     -40.246  14.655  20.487  0.00  0.00     0.123 A 
ATOM      7  C   UNL d   1     -41.064  14.443  20.549  0.00  0.00     0.027 A 
ATOM      8  C   UNL d   1     -40.007  15.389  20.768  0.00  0.00     0.123 A 
ATOM      9  C   UNL d   1     -41.572  14.976  20.882  0.00  0.00     0.002 A 
ATOM     10  C   UNL d   1     -41.313  15.709  21.159  0.00  0.00     0.002 A 
ATOM     11  C   UNL d   1     -40.540  15.920  21.106  0.00  0.00     0.027 A 
ATOM     12  O   UNL d   1     -39.202  15.596  20.708  0.00  0.00    -0.301 OA
ATOM     13  C   UNL d   1     -38.675  15.069  20.374  0.00  0.00     0.153 A 
ENDBRANCH   1   4
BRANCH   2  14
ATOM     14  C   UNL d   1     -38.204  13.745  18.119  0.00  0.00     0.159 A 
ATOM     15  C   UNL d   1     -38.263  14.425  17.670  0.00  0.00     0.059 A 
ATOM     16  C   UNL d   1     -38.177  14.406  16.841  0.00  0.00     0.107 A 
ATOM     17  C   UNL d   1     -38.024  13.654  16.470  0.00  0.00     0.082 A 
ATOM     18  C   UNL d   1     -37.965  12.974  16.919  0.00  0.00     0.040 A 
ATOM     19 CL   UNL d   1     -37.940  13.642  15.652  0.00  0.00    -0.080 Cl
ATOM     20  C   UNL d   1     -38.054  13.008  17.748  0.00  0.00     0.125 A 
BRANCH  16  21
ATOM     21  O   UNL d   1     -38.235  15.075  16.399  0.00  0.00    -0.327 OA
ATOM     22  C   UNL d   1     -38.530  15.767  16.735  0.00  0.00     0.181 C 
ENDBRANCH  16  21
BRANCH  20  23
ATOM     23  O   UNL d   1     -37.994  12.321  18.202  0.00  0.00    -0.326 OA
ATOM     24  C   UNL d   1     -37.952  11.603  17.812  0.00  0.00     0.181 C 
ENDBRANCH  20  23
ENDBRANCH   2  14
TORSDOF 4
ENDMDL
MODEL 8
REMARK VINA RESULT:      -5.4      1.480      2.397
REMARK  4 active torsions:
REMARK  status: ('A' for Active; 'I' for Inactive)
REMARK    1  A    between atoms: C_2  and  C_1 
REMARK       I    between atoms: N_4  and  C_2 
REMARK    2  A    between atoms: C_5  and  N_4 
REMARK    3  A    between atoms: O_17  and  C_9 
REMARK    4  A    between atoms: O_18  and  C_12 
ROOT
ATOM      1  C   UNL d   1     -47.942  11.622  23.301  0.00  0.00     0.353 C 
ATOM      2  N   UNL d   1     -47.202  11.937  23.097  0.00  0.00    -0.361 NA
ATOM      3  O   UNL d   1     -47.983  10.913  23.698  0.00  0.00    -0.249 OA
ENDROOT
BRANCH   1   4
ATOM      4  C   UNL d   1     -48.645  12.024  23.103  0.00  0.00     0.195 A 
ATOM      5  O   UNL d   1     -48.892  12.041  22.319  0.00  0.00    -0.297 OA
ATOM      6  C   UNL d   1     -49.585  12.443  22.148  0.00  0.00     0.123 A 
ATOM      7  C   UNL d   1     -49.851  12.468  21.344  0.00  0.00     0.027 A 
ATOM      8  C   UNL d   1     -50.032  12.821  22.723  0.00  0.00     0.123 A 
ATOM      9  C   UNL d   1     -50.536  12.866  21.181  0.00  0.00     0.002 A 
ATOM     10  C   UNL d   1     -50.972  13.240  21.773  0.00  0.00     0.002 A 
ATOM     11  C   UNL d   1     -50.729  13.223  22.538  0.00  0.00     0.027 A 
ATOM     12  O   UNL d   1     -49.770  12.796  23.513  0.00  0.00    -0.301 OA
ATOM     13  C   UNL d   1     -49.081  12.399  23.696  0.00  0.00     0.153 A 
ENDBRANCH   1   4
BRANCH   2  14
ATOM     14  C   UNL d   1     -46.478  12.261  22.888  0.00  0.00     0.159 A 
ATOM     15  C   UNL d   1     -46.418  13.045  22.666  0.00  0.00     0.059 A 
ATOM     16  C   UNL d   1     -45.684  13.380  22.453  0.00  0.00     0.107 A 
ATOM     17  C   UNL d   1     -44.994  12.882  22.472  0.00  0.00     0.082 A 
ATOM     18  C   UNL d   1     -45.054  12.098  22.694  0.00  0.00     0.040 A 
ATOM     19 CL   UNL d   1     -44.273  13.218  22.261  0.00  0.00    -0.080 Cl
ATOM     20  C   UNL d   1     -45.795  11.775  22.905  0.00  0.00     0.125 A 
BRANCH  16  21
ATOM     21  O   UNL d   1     -45.625  14.152  22.235  0.00  0.00    -0.327 OA
ATOM     22  C   UNL d   1     -46.101  14.720  22.594  0.00  0.00     0.181 C 
ENDBRANCH  16  21
BRANCH  20  23
ATOM     23  O   UNL d   1     -45.855  10.984  23.129  0.00  0.00    -0.326 OA
ATOM     24  C   UNL d   1     -45.175  10.595  23.363  0.00  0.00     0.181 C 
ENDBRANCH  20  23
ENDBRANCH   2  14
TORSDOF 4
ENDMDL
MODEL 9
REMARK VINA RESULT:      -4.4      1.708      4.428
REMARK  4 active torsions:
REMARK  status: ('A' for Active; 'I' for Inactive)
REMARK    1  A    between atoms: C_2  and  C_1 
REMARK       I    between atoms: N_4  and  C_2 
REMARK    2  A    between atoms: C_5  and  N_4 
REMARK    3  A    between atoms: O_17  and  C_9 
REMARK    4  A    between atoms: O_18  and  C_12 
ROOT
ATOM      1  C   UNL d   1     -46.306  13.315  22.874  0.00  0.00     0.353 C 
ATOM      2  N   UNL d   1     -47.122  13.427  22.769  0.00  0.00    -0.361 NA
ATOM      3  O   UNL d   1     -45.797  13.941  22.774  0.00  0.00    -0.249 OA
ENDROOT
BRANCH   1   4
ATOM      4  C   UNL d   1     -46.003  12.566  23.079  0.00  0.00     0.195 A 
ATOM      5  O   UNL d   1     -45.231  12.374  22.872  0.00  0.00    -0.297 OA
ATOM      6  C   UNL d   1     -44.954  11.633  23.085  0.00  0.00     0.123 A 
ATOM      7  C   UNL d   1     -44.160  11.421  22.878  0.00  0.00     0.027 A 
ATOM      8  C   UNL d   1     -45.414  11.086  23.489  0.00  0.00     0.123 A 
ATOM      9  C   UNL d   1     -43.892  10.688  23.090  0.00  0.00     0.002 A 
ATOM     10  C   UNL d   1     -44.370  10.153  23.497  0.00  0.00     0.002 A 
ATOM     11  C   UNL d   1     -45.124  10.342  23.698  0.00  0.00     0.027 A 
ATOM     12  O   UNL d   1     -46.195  11.295  23.692  0.00  0.00    -0.301 OA
ATOM     13  C   UNL d   1     -46.481  12.030  23.486  0.00  0.00     0.153 A 
ENDBRANCH   1   4
BRANCH   2  14
ATOM     14  C   UNL d   1     -47.931  13.523  22.670  0.00  0.00     0.159 A 
ATOM     15  C   UNL d   1     -48.434  12.879  22.682  0.00  0.00     0.059 A 
ATOM     16  C   UNL d   1     -49.257  12.971  22.582  0.00  0.00     0.107 A 
ATOM     17  C   UNL d   1     -49.562  13.757  22.465  0.00  0.00     0.082 A 
ATOM     18  C   UNL d   1     -49.059  14.400  22.453  0.00  0.00     0.040 A 
ATOM     19 CL   UNL d   1     -50.375  13.840  22.367  0.00  0.00    -0.080 Cl
ATOM     20  C   UNL d   1     -48.238  14.295  22.555  0.00  0.00     0.125 A 
BRANCH  16  21
ATOM     21  O   UNL d   1     -49.752  12.337  22.594  0.00  0.00    -0.327 OA
ATOM     22  C   UNL d   1     -49.517  11.623  22.256  0.00  0.00     0.181 C 
ENDBRANCH  16  21
BRANCH  20  23
ATOM     23  O   UNL d   1     -47.730  14.945  22.542  0.00  0.00    -0.326 OA
ATOM     24  C   UNL d   1     -47.947  15.597  22.099  0.00  0.00     0.181 C 
ENDBRANCH  20  23
ENDBRANCH   2  14
TORSDOF 4
ENDMDL
