MODEL 1
REMARK VINA RESULT:      59.3      0.000      0.000
REMARK  4 active torsions:
REMARK  status: ('A' for Active; 'I' for Inactive)
REMARK    1  A    between atoms: S_6  and  C_1 
REMARK    2  A    between atoms: C_19  and  S_6 
REMARK    3  A    between atoms: C_7  and  C_19 
REMARK       I    between atoms: N_10  and  C_7 
REMARK    4  A    between atoms: C_14  and  N_10 
ROOT
ATOM      1  C   UNL d   1     -54.991-101.276 -41.838  0.00  0.00     0.286 C 
ATOM      2  N   UNL d   1     -55.079-102.051 -41.584  0.00  0.00    -0.207 NA
ATOM      3  O   UNL d   1     -55.186-100.656 -41.326  0.00  0.00    -0.265 OA
ENDROOT
BRANCH   1   4
ATOM      4  C   UNL d   1     -54.711-101.115 -42.590  0.00  0.00     0.099 C 
BRANCH   4   5
ATOM      5  S   UNL d   1     -54.862-100.391 -42.941  0.00  0.00    -0.062 SA
BRANCH   5   6
ATOM      6  C   UNL d   1     -55.079-100.349 -43.737  0.00  0.00     0.114 A 
ATOM      7  C   UNL d   1     -55.660 -99.821 -43.980  0.00  0.00     0.042 A 
ATOM      8  C   UNL d   1     -55.877 -99.779 -44.777  0.00  0.00     0.085 A 
ATOM      9  C   UNL d   1     -56.028 -99.334 -43.425  0.00  0.00     0.004 A 
ATOM     10  C   UNL d   1     -56.461 -99.249 -45.019  0.00  0.00     0.019 A 
ATOM     11  N   UNL d   1     -55.512-100.264 -45.331  0.00  0.00    -0.224 NA
ATOM     12  C   UNL d   1     -56.829 -98.762 -44.464  0.00  0.00     0.002 A 
ATOM     13  C   UNL d   1     -56.612 -98.804 -43.667  0.00  0.00     0.000 A 
ATOM     14  C   UNL d   1     -54.928-100.794 -45.089  0.00  0.00     0.200 A 
ATOM     15  N   UNL d   1     -54.711-100.836 -44.292  0.00  0.00    -0.217 NA
ENDBRANCH   5   6
ENDBRANCH   4   5
ENDBRANCH   1   4
BRANCH   2  16
ATOM     16  C   UNL d   1     -55.360-102.215 -40.827  0.00  0.00     0.087 A 
ATOM     17  C   UNL d   1     -54.830-102.411 -40.233  0.00  0.00     0.045 A 
ATOM     18  C   UNL d   1     -55.110-102.576 -39.473  0.00  0.00     0.121 A 
ATOM     19  O   UNL d   1     -54.715-102.785 -38.776  0.00  0.00    -0.299 OA
ATOM     20  C   UNL d   1     -55.917-102.543 -39.317  0.00  0.00     0.119 A 
ATOM     21  C   UNL d   1     -55.287-102.880 -38.194  0.00  0.00     0.304 A 
ATOM     22  O   UNL d   1     -56.030-102.731 -38.522  0.00  0.00    -0.300 OA
ATOM     23  C   UNL d   1     -56.440-102.345 -39.922  0.00  0.00     0.028 A 
ATOM     24  C   UNL d   1     -56.166-102.181 -40.672  0.00  0.00     0.021 A 
ENDBRANCH   2  16
TORSDOF 4
ENDMDL
