MODEL 1
REMARK VINA RESULT:      -3.8      0.000      0.000
REMARK  4 active torsions:
REMARK  status: ('A' for Active; 'I' for Inactive)
REMARK    1  A    between atoms: C_6  and  N_1 
REMARK    2  A    between atoms: N_7  and  C_5 
REMARK    3  A    between atoms: C_8  and  C_6 
REMARK    4  A    between atoms: C_12  and  N_7 
ROOT
ATOM      1  N   UNL d   1      58.693   0.645  30.101  0.00  0.00    -0.227 N 
ATOM      2  C   UNL d   1      57.875   0.653  30.196  0.00  0.00     0.300 A 
ATOM      3  S   UNL d   1      57.548   0.665  30.949  0.00  0.00    -0.003 SA
ATOM      4  C   UNL d   1      58.859   0.662  31.516  0.00  0.00     0.292 A 
ATOM      5  C   UNL d   1      58.040   0.670  31.611  0.00  0.00     0.172 A 
ATOM      6  O   UNL d   1      57.383   0.648  29.534  0.00  0.00    -0.259 OA
ATOM      7  O   UNL d   1      59.565   0.664  32.075  0.00  0.00    -0.264 OA
ENDROOT
BRANCH   5   8
ATOM      8  N   UNL d   1      57.714   0.682  32.369  0.00  0.00    -0.234 NA
BRANCH   8   9
ATOM      9  C   UNL d   1      57.078   0.189  32.552  0.00  0.00     0.082 A 
ATOM     10  C   UNL d   1      56.396   0.510  32.907  0.00  0.00     0.019 A 
ATOM     11  C   UNL d   1      55.764   0.020  33.088  0.00  0.00     0.002 A 
ATOM     12  C   UNL d   1      55.803  -0.790  32.920  0.00  0.00     0.000 A 
ATOM     13  C   UNL d   1      56.488  -1.107  32.564  0.00  0.00     0.002 A 
ATOM     14  C   UNL d   1      55.172  -1.289  33.099  0.00  0.00     0.000 C 
ATOM     15  C   UNL d   1      57.119  -0.607  32.385  0.00  0.00     0.019 A 
ENDBRANCH   8   9
ENDBRANCH   5   8
BRANCH   1  16
ATOM     16  C   UNL d   1      59.251   0.632  29.386  0.00  0.00     0.157 C 
BRANCH  16  17
ATOM     17  C   UNL d   1      59.848  -0.059  29.283  0.00  0.00     0.230 C 
ATOM     18  O   UNL d   1      60.738   0.121  29.306  0.00  0.00    -0.643 OA
ATOM     19  O   UNL d   1      59.550  -0.897  29.163  0.00  0.00    -0.643 OA
ENDBRANCH  16  17
ENDBRANCH   1  16
TORSDOF 4
ENDMDL
MODEL 2
REMARK VINA RESULT:      -3.5      8.985      9.959
REMARK  4 active torsions:
REMARK  status: ('A' for Active; 'I' for Inactive)
REMARK    1  A    between atoms: C_6  and  N_1 
REMARK    2  A    between atoms: N_7  and  C_5 
REMARK    3  A    between atoms: C_8  and  C_6 
REMARK    4  A    between atoms: C_12  and  N_7 
ROOT
ATOM      1  N   UNL d   1      59.589  -7.928  35.756  0.00  0.00    -0.227 N 
ATOM      2  C   UNL d   1      58.981  -8.482  35.694  0.00  0.00     0.300 A 
ATOM      3  S   UNL d   1      59.038  -9.097  35.153  0.00  0.00    -0.003 SA
ATOM      4  C   UNL d   1      60.312  -8.608  34.733  0.00  0.00     0.292 A 
ATOM      5  C   UNL d   1      59.704  -9.161  34.671  0.00  0.00     0.172 A 
ATOM      6  O   UNL d   1      58.315  -8.418  36.176  0.00  0.00    -0.259 OA
ATOM      7  O   UNL d   1      61.104  -8.483  34.324  0.00  0.00    -0.264 OA
ENDROOT
BRANCH   5   8
ATOM      8  N   UNL d   1      59.763  -9.778  34.127  0.00  0.00    -0.234 NA
BRANCH   8   9
ATOM      9  C   UNL d   1      59.276  -9.788  33.461  0.00  0.00     0.082 A 
ATOM     10  C   UNL d   1      58.448  -9.808  33.556  0.00  0.00     0.019 A 
ATOM     11  C   UNL d   1      57.964  -9.818  32.894  0.00  0.00     0.002 A 
ATOM     12  C   UNL d   1      58.295  -9.808  32.135  0.00  0.00     0.000 A 
ATOM     13  C   UNL d   1      59.124  -9.788  32.045  0.00  0.00     0.002 A 
ATOM     14  C   UNL d   1      57.816  -9.818  31.465  0.00  0.00     0.000 C 
ATOM     15  C   UNL d   1      59.604  -9.778  32.716  0.00  0.00     0.019 A 
ENDBRANCH   8   9
ENDBRANCH   5   8
BRANCH   1  16
ATOM     16  C   UNL d   1      59.731  -7.193  36.268  0.00  0.00     0.157 C 
BRANCH  16  17
ATOM     17  C   UNL d   1      60.052  -6.423  35.884  0.00  0.00     0.230 C 
ATOM     18  O   UNL d   1      59.467  -5.851  35.489  0.00  0.00    -0.643 OA
ATOM     19  O   UNL d   1      60.931  -6.244  35.901  0.00  0.00    -0.643 OA
ENDBRANCH  16  17
ENDBRANCH   1  16
TORSDOF 4
ENDMDL
MODEL 3
REMARK VINA RESULT:      -3.3      1.538      4.133
REMARK  4 active torsions:
REMARK  status: ('A' for Active; 'I' for Inactive)
REMARK    1  A    between atoms: C_6  and  N_1 
REMARK    2  A    between atoms: N_7  and  C_5 
REMARK    3  A    between atoms: C_8  and  C_6 
REMARK    4  A    between atoms: C_12  and  N_7 
ROOT
ATOM      1  N   UNL d   1      57.702   0.680  32.245  0.00  0.00    -0.227 N 
ATOM      2  C   UNL d   1      58.510   0.681  32.085  0.00  0.00     0.300 A 
ATOM      3  S   UNL d   1      58.777   0.682  31.309  0.00  0.00    -0.003 SA
ATOM      4  C   UNL d   1      57.426   0.679  30.847  0.00  0.00     0.292 A 
ATOM      5  C   UNL d   1      58.234   0.681  30.687  0.00  0.00     0.172 A 
ATOM      6  O   UNL d   1      59.053   0.682  32.706  0.00  0.00    -0.259 OA
ATOM      7  O   UNL d   1      56.677   0.678  30.346  0.00  0.00    -0.264 OA
ENDROOT
BRANCH   5   8
ATOM      8  N   UNL d   1      58.499   0.681  29.906  0.00  0.00    -0.234 NA
BRANCH   8   9
ATOM      9  C   UNL d   1      58.889   0.020  29.603  0.00  0.00     0.082 A 
ATOM     10  C   UNL d   1      58.451  -0.660  29.404  0.00  0.00     0.019 A 
ATOM     11  C   UNL d   1      58.838  -1.317  29.102  0.00  0.00     0.002 A 
ATOM     12  C   UNL d   1      59.659  -1.306  28.996  0.00  0.00     0.000 A 
ATOM     13  C   UNL d   1      60.093  -0.622  29.197  0.00  0.00     0.002 A 
ATOM     14  C   UNL d   1      60.056  -1.962  28.694  0.00  0.00     0.000 C 
ATOM     15  C   UNL d   1      59.696   0.035  29.500  0.00  0.00     0.019 A 
ENDBRANCH   8   9
ENDBRANCH   5   8
BRANCH   1  16
ATOM     16  C   UNL d   1      57.202   0.679  33.002  0.00  0.00     0.157 C 
BRANCH  16  17
ATOM     17  C   UNL d   1      56.459   0.141  33.060  0.00  0.00     0.230 C 
ATOM     18  O   UNL d   1      55.637   0.526  33.060  0.00  0.00    -0.643 OA
ATOM     19  O   UNL d   1      56.551  -0.750  33.115  0.00  0.00    -0.643 OA
ENDBRANCH  16  17
ENDBRANCH   1  16
TORSDOF 4
ENDMDL
MODEL 4
REMARK VINA RESULT:      -3.0      1.686      2.563
REMARK  4 active torsions:
REMARK  status: ('A' for Active; 'I' for Inactive)
REMARK    1  A    between atoms: C_6  and  N_1 
REMARK    2  A    between atoms: N_7  and  C_5 
REMARK    3  A    between atoms: C_8  and  C_6 
REMARK    4  A    between atoms: C_12  and  N_7 
ROOT
ATOM      1  N   UNL d   1      59.076  -1.719  29.085  0.00  0.00    -0.227 N 
ATOM      2  C   UNL d   1      58.433  -1.772  29.597  0.00  0.00     0.300 A 
ATOM      3  S   UNL d   1      58.076  -1.090  29.883  0.00  0.00    -0.003 SA
ATOM      4  C   UNL d   1      59.007  -0.297  29.146  0.00  0.00     0.292 A 
ATOM      5  C   UNL d   1      58.363  -0.350  29.658  0.00  0.00     0.172 A 
ATOM      6  O   UNL d   1      58.146  -2.511  29.822  0.00  0.00    -0.259 OA
ATOM      7  O   UNL d   1      59.473   0.380  28.777  0.00  0.00    -0.264 OA
ENDROOT
BRANCH   5   8
ATOM      8  N   UNL d   1      58.007   0.337  29.944  0.00  0.00    -0.234 NA
BRANCH   8   9
ATOM      9  C   UNL d   1      57.857   0.417  30.752  0.00  0.00     0.082 A 
ATOM     10  C   UNL d   1      58.485   0.592  31.271  0.00  0.00     0.019 A 
ATOM     11  C   UNL d   1      58.336   0.672  32.074  0.00  0.00     0.002 A 
ATOM     12  C   UNL d   1      57.567   0.580  32.367  0.00  0.00     0.000 A 
ATOM     13  C   UNL d   1      56.942   0.405  31.842  0.00  0.00     0.002 A 
ATOM     14  C   UNL d   1      57.410   0.659  33.172  0.00  0.00     0.000 C 
ATOM     15  C   UNL d   1      57.100   0.327  31.036  0.00  0.00     0.019 A 
ENDBRANCH   8   9
ENDBRANCH   5   8
BRANCH   1  16
ATOM     16  C   UNL d   1      59.605  -2.321  28.661  0.00  0.00     0.157 C 
BRANCH  16  17
ATOM     17  C   UNL d   1      60.492  -2.393  28.889  0.00  0.00     0.230 C 
ATOM     18  O   UNL d   1      60.733  -2.978  29.540  0.00  0.00    -0.643 OA
ATOM     19  O   UNL d   1      61.106  -1.889  28.471  0.00  0.00    -0.643 OA
ENDBRANCH  16  17
ENDBRANCH   1  16
TORSDOF 4
ENDMDL
