MODEL 1
REMARK VINA RESULT:      -4.5      0.000      0.000
REMARK  4 active torsions:
REMARK  status: ('A' for Active; 'I' for Inactive)
REMARK    1  A    between atoms: S_6  and  C_2 
REMARK    2  A    between atoms: C_8  and  C_3 
REMARK    3  A    between atoms: C_10  and  S_6 
REMARK    4  A    between atoms: C_7  and  C_10 
ROOT
ATOM      1  N   UNL d   1      57.235  -0.108  31.691  0.00  0.00    -0.282 N 
ATOM      2  C   UNL d   1      57.448  -0.639  31.094  0.00  0.00     0.180 A 
ATOM      3  C   UNL d   1      56.682  -0.476  32.173  0.00  0.00     0.085 A 
ATOM      4  N   UNL d   1      57.021  -1.341  31.210  0.00  0.00    -0.219 NA
ATOM      5  C   UNL d   1      56.546  -1.234  31.883  0.00  0.00     0.119 A 
ATOM      6  C   UNL d   1      57.541   0.678  31.780  0.00  0.00     0.101 C 
ENDROOT
BRANCH   3   7
ATOM      7  C   UNL d   1      56.306  -0.172  32.841  0.00  0.00     0.018 A 
ATOM      8  C   UNL d   1      55.507  -0.326  32.958  0.00  0.00     0.002 A 
ATOM      9  C   UNL d   1      55.126  -0.022  33.628  0.00  0.00     0.000 A 
ATOM     10  C   UNL d   1      55.561   0.437  34.174  0.00  0.00     0.000 A 
ATOM     11  C   UNL d   1      56.348   0.584  34.049  0.00  0.00     0.000 A 
ATOM     12  C   UNL d   1      56.733   0.280  33.378  0.00  0.00     0.002 A 
ENDBRANCH   3   7
BRANCH   2  13
ATOM     13  S   UNL d   1      57.995  -0.500  30.478  0.00  0.00    -0.044 SA
BRANCH  13  14
ATOM     14  C   UNL d   1      58.154  -1.099  29.926  0.00  0.00     0.102 C 
BRANCH  14  15
ATOM     15  C   UNL d   1      58.642  -0.944  29.284  0.00  0.00     0.303 C 
ATOM     16  O   UNL d   1      58.330  -0.537  28.625  0.00  0.00    -0.263 OA
ATOM     17  N   UNL d   1      59.427  -1.187  29.295  0.00  0.00    -0.102 N 
ENDBRANCH  14  15
ENDBRANCH  13  14
ENDBRANCH   2  13
TORSDOF 4
ENDMDL
MODEL 2
REMARK VINA RESULT:      -3.2      2.348      4.179
REMARK  4 active torsions:
REMARK  status: ('A' for Active; 'I' for Inactive)
REMARK    1  A    between atoms: S_6  and  C_2 
REMARK    2  A    between atoms: C_8  and  C_3 
REMARK    3  A    between atoms: C_10  and  S_6 
REMARK    4  A    between atoms: C_7  and  C_10 
ROOT
ATOM      1  N   UNL d   1      56.988   0.108  32.427  0.00  0.00    -0.282 N 
ATOM      2  C   UNL d   1      56.345  -0.059  32.919  0.00  0.00     0.180 A 
ATOM      3  C   UNL d   1      56.936  -0.378  31.767  0.00  0.00     0.085 A 
ATOM      4  N   UNL d   1      55.892  -0.653  32.559  0.00  0.00    -0.219 NA
ATOM      5  C   UNL d   1      56.265  -0.848  31.842  0.00  0.00     0.119 A 
ATOM      6  C   UNL d   1      57.592   0.682  32.585  0.00  0.00     0.101 C 
ENDROOT
BRANCH   3   7
ATOM      7  C   UNL d   1      57.447  -0.418  31.122  0.00  0.00     0.018 A 
ATOM      8  C   UNL d   1      57.769  -1.143  30.906  0.00  0.00     0.002 A 
ATOM      9  C   UNL d   1      58.283  -1.187  30.258  0.00  0.00     0.000 A 
ATOM     10  C   UNL d   1      58.466  -0.490  29.833  0.00  0.00     0.000 A 
ATOM     11  C   UNL d   1      58.144   0.219  30.054  0.00  0.00     0.000 A 
ATOM     12  C   UNL d   1      57.628   0.266  30.704  0.00  0.00     0.002 A 
ENDBRANCH   3   7
BRANCH   2  13
ATOM     13  S   UNL d   1      56.175   0.304  33.652  0.00  0.00    -0.044 SA
BRANCH  13  14
ATOM     14  C   UNL d   1      55.513   0.059  34.089  0.00  0.00     0.102 C 
BRANCH  14  15
ATOM     15  C   UNL d   1      55.293   0.471  34.764  0.00  0.00     0.303 C 
ATOM     16  O   UNL d   1      55.877   0.671  35.326  0.00  0.00    -0.263 OA
ATOM     17  N   UNL d   1      54.508   0.682  34.881  0.00  0.00    -0.102 N 
ENDBRANCH  14  15
ENDBRANCH  13  14
ENDBRANCH   2  13
TORSDOF 4
ENDMDL
MODEL 3
REMARK VINA RESULT:      -1.6      1.786      4.519
REMARK  4 active torsions:
REMARK  status: ('A' for Active; 'I' for Inactive)
REMARK    1  A    between atoms: S_6  and  C_2 
REMARK    2  A    between atoms: C_8  and  C_3 
REMARK    3  A    between atoms: C_10  and  S_6 
REMARK    4  A    between atoms: C_7  and  C_10 
ROOT
ATOM      1  N   UNL d   1      58.082  -0.646  30.308  0.00  0.00    -0.282 N 
ATOM      2  C   UNL d   1      57.819   0.080  30.604  0.00  0.00     0.180 A 
ATOM      3  C   UNL d   1      58.684  -0.498  29.771  0.00  0.00     0.085 A 
ATOM      4  N   UNL d   1      58.264   0.681  30.246  0.00  0.00    -0.219 NA
ATOM      5  C   UNL d   1      58.802   0.316  29.727  0.00  0.00     0.119 A 
ATOM      6  C   UNL d   1      57.776  -1.405  30.528  0.00  0.00     0.101 C 
ENDROOT
BRANCH   3   7
ATOM      7  C   UNL d   1      59.121  -1.042  29.332  0.00  0.00     0.018 A 
ATOM      8  C   UNL d   1      59.903  -0.874  29.144  0.00  0.00     0.002 A 
ATOM      9  C   UNL d   1      60.344  -1.418  28.703  0.00  0.00     0.000 A 
ATOM     10  C   UNL d   1      59.986  -2.131  28.455  0.00  0.00     0.000 A 
ATOM     11  C   UNL d   1      59.214  -2.288  28.646  0.00  0.00     0.000 A 
ATOM     12  C   UNL d   1      58.769  -1.743  29.088  0.00  0.00     0.002 A 
ENDBRANCH   3   7
BRANCH   2  13
ATOM     13  S   UNL d   1      57.211   0.195  31.166  0.00  0.00    -0.044 SA
BRANCH  13  14
ATOM     14  C   UNL d   1      57.348   0.681  31.826  0.00  0.00     0.102 C 
BRANCH  14  15
ATOM     15  C   UNL d   1      56.866   0.617  32.487  0.00  0.00     0.303 C 
ATOM     16  O   UNL d   1      56.039   0.682  32.395  0.00  0.00    -0.263 OA
ATOM     17  N   UNL d   1      57.198   0.491  33.228  0.00  0.00    -0.102 N 
ENDBRANCH  14  15
ENDBRANCH  13  14
ENDBRANCH   2  13
TORSDOF 4
ENDMDL
