MODEL 1
REMARK VINA RESULT:      -1.2      0.000      0.000
REMARK  8 active torsions:
REMARK  status: ('A' for Active; 'I' for Inactive)
REMARK    1  A    between atoms: C_6  and  N_1 
REMARK    2  A    between atoms: C_7  and  C_2 
REMARK    3  A    between atoms: C_8  and  C_6 
REMARK    4  A    between atoms: O_14  and  C_8 
REMARK    5  A    between atoms: O_15  and  C_8 
REMARK    6  A    between atoms: O_18  and  C_11 
REMARK    7  A    between atoms: C_20  and  O_14 
REMARK    8  A    between atoms: C_19  and  O_15 
ROOT
ATOM      1  N   UNL d   1      31.847  17.386 -23.859  0.00  0.00    -0.286 N 
ATOM      2  C   UNL d   1      32.565  17.687 -23.582  0.00  0.00     0.148 A 
ATOM      3  N   UNL d   1      33.149  17.179 -23.868  0.00  0.00    -0.227 NA
ATOM      4  C   UNL d   1      31.989  16.724 -24.294  0.00  0.00     0.083 A 
ATOM      5  C   UNL d   1      32.805  16.594 -24.300  0.00  0.00     0.099 A 
ATOM      6  C   UNL d   1      31.482  16.207 -24.696  0.00  0.00     0.019 A 
ATOM      7  C   UNL d   1      33.090  15.952 -24.707  0.00  0.00     0.021 A 
ATOM      8  C   UNL d   1      31.803  15.582 -25.089  0.00  0.00     0.002 A 
ATOM      9  C   UNL d   1      32.619  15.453 -25.094  0.00  0.00     0.002 A 
ENDROOT
BRANCH   1  10
ATOM     10  C   UNL d   1      31.121  17.710 -23.713  0.00  0.00     0.133 C 
BRANCH  10  11
ATOM     11  C   UNL d   1      30.442  17.250 -23.874  0.00  0.00     0.222 C 
BRANCH  11  12
ATOM     12  O   UNL d   1      29.981  17.395 -24.546  0.00  0.00    -0.282 OA
BRANCH  12  13
ATOM     13  C   UNL d   1      29.270  17.600 -24.886  0.00  0.00     0.125 C 
ATOM     14  C   UNL d   1      29.128  18.392 -25.088  0.00  0.00     0.029 C 
ENDBRANCH  12  13
ENDBRANCH  11  12
BRANCH  11  15
ATOM     15  O   UNL d   1      30.212  16.624 -23.351  0.00  0.00    -0.282 OA
BRANCH  15  16
ATOM     16  C   UNL d   1      29.516  16.238 -23.143  0.00  0.00     0.125 C 
ATOM     17  C   UNL d   1      29.488  15.755 -22.477  0.00  0.00     0.029 C 
ENDBRANCH  15  16
ENDBRANCH  11  15
ENDBRANCH  10  11
ENDBRANCH   1  10
BRANCH   2  18
ATOM     18  C   UNL d   1      32.675  18.359 -23.115  0.00  0.00     0.035 A 
ATOM     19  C   UNL d   1      33.115  18.306 -22.414  0.00  0.00     0.005 A 
ATOM     20  C   UNL d   1      33.224  18.977 -21.947  0.00  0.00     0.024 A 
ATOM     21  C   UNL d   1      32.894  19.701 -22.181  0.00  0.00     0.094 A 
ATOM     22  C   UNL d   1      32.457  19.750 -22.878  0.00  0.00     0.024 A 
ATOM     23  C   UNL d   1      32.347  19.079 -23.345  0.00  0.00     0.005 A 
BRANCH  21  24
ATOM     24  O   UNL d   1      33.004  20.372 -21.714  0.00  0.00    -0.328 OA
ATOM     25  C   UNL d   1      32.382  20.912 -21.614  0.00  0.00     0.181 C 
ENDBRANCH  21  24
ENDBRANCH   2  18
TORSDOF 8
ENDMDL
MODEL 2
REMARK VINA RESULT:       1.1      1.424      3.475
REMARK  8 active torsions:
REMARK  status: ('A' for Active; 'I' for Inactive)
REMARK    1  A    between atoms: C_6  and  N_1 
REMARK    2  A    between atoms: C_7  and  C_2 
REMARK    3  A    between atoms: C_8  and  C_6 
REMARK    4  A    between atoms: O_14  and  C_8 
REMARK    5  A    between atoms: O_15  and  C_8 
REMARK    6  A    between atoms: O_18  and  C_11 
REMARK    7  A    between atoms: C_20  and  O_14 
REMARK    8  A    between atoms: C_19  and  O_15 
ROOT
ATOM      1  N   UNL d   1      31.386  17.360 -24.544  0.00  0.00    -0.286 N 
ATOM      2  C   UNL d   1      30.699  16.926 -24.395  0.00  0.00     0.148 A 
ATOM      3  N   UNL d   1      30.904  16.134 -24.503  0.00  0.00    -0.227 NA
ATOM      4  C   UNL d   1      31.982  16.854 -24.734  0.00  0.00     0.083 A 
ATOM      5  C   UNL d   1      31.680  16.086 -24.709  0.00  0.00     0.099 A 
ATOM      6  C   UNL d   1      32.775  16.984 -24.932  0.00  0.00     0.019 A 
ATOM      7  C   UNL d   1      32.181  15.470 -24.882  0.00  0.00     0.021 A 
ATOM      8  C   UNL d   1      33.240  16.349 -25.097  0.00  0.00     0.002 A 
ATOM      9  C   UNL d   1      32.938  15.580 -25.072  0.00  0.00     0.002 A 
ENDROOT
BRANCH   1  10
ATOM     10  C   UNL d   1      31.443  18.166 -24.503  0.00  0.00     0.133 C 
BRANCH  10  11
ATOM     11  C   UNL d   1      32.172  18.500 -24.269  0.00  0.00     0.222 C 
BRANCH  11  12
ATOM     12  O   UNL d   1      32.617  18.958 -24.795  0.00  0.00    -0.282 OA
BRANCH  12  13
ATOM     13  C   UNL d   1      32.925  19.677 -25.023  0.00  0.00     0.125 C 
ATOM     14  C   UNL d   1      32.977  20.293 -24.468  0.00  0.00     0.029 C 
ENDBRANCH  12  13
ENDBRANCH  11  12
BRANCH  11  15
ATOM     15  O   UNL d   1      32.471  18.376 -23.486  0.00  0.00    -0.282 OA
BRANCH  15  16
ATOM     16  C   UNL d   1      32.836  18.826 -22.902  0.00  0.00     0.125 C 
ATOM     17  C   UNL d   1      32.692  18.674 -22.106  0.00  0.00     0.029 C 
ENDBRANCH  15  16
ENDBRANCH  11  15
ENDBRANCH  10  11
ENDBRANCH   1  10
BRANCH   2  18
ATOM     18  C   UNL d   1      29.959  17.223 -24.182  0.00  0.00     0.035 A 
ATOM     19  C   UNL d   1      29.597  17.802 -24.651  0.00  0.00     0.005 A 
ATOM     20  C   UNL d   1      28.857  18.099 -24.438  0.00  0.00     0.024 A 
ATOM     21  C   UNL d   1      28.480  17.818 -23.755  0.00  0.00     0.094 A 
ATOM     22  C   UNL d   1      28.844  17.242 -23.290  0.00  0.00     0.024 A 
ATOM     23  C   UNL d   1      29.583  16.944 -23.503  0.00  0.00     0.005 A 
BRANCH  21  24
ATOM     24  O   UNL d   1      27.741  18.115 -23.542  0.00  0.00    -0.328 OA
ATOM     25  C   UNL d   1      27.263  17.693 -23.012  0.00  0.00     0.181 C 
ENDBRANCH  21  24
ENDBRANCH   2  18
TORSDOF 8
ENDMDL
