MODEL 1
REMARK VINA RESULT:      -2.7      0.000      0.000
REMARK  6 active torsions:
REMARK  status: ('A' for Active; 'I' for Inactive)
REMARK       I    between atoms: C_2  and  N_1 
REMARK    1  A    between atoms: C_3  and  N_1 
REMARK    2  A    between atoms: C_8  and  C_2 
REMARK    3  A    between atoms: C_4  and  C_9 
REMARK    4  A    between atoms: O_10  and  C_4 
REMARK    5  A    between atoms: O_11  and  C_5 
REMARK    6  A    between atoms: C_9  and  C_8 
ROOT
ATOM      1  N   UNL d   1      31.540  15.962 -23.787  0.00  0.00    -0.320 N 
ATOM      2  C   UNL d   1      32.189  16.442 -23.548  0.00  0.00     0.258 C 
ATOM      3  O   UNL d   1      32.872  16.096 -23.252  0.00  0.00    -0.267 OA
ATOM      4  H   UNL d   1      31.587  15.145 -23.725  0.00  0.00     0.169 HD
ENDROOT
BRANCH   1   5
ATOM      5  C   UNL d   1      30.845  16.329 -24.089  0.00  0.00     0.082 A 
ATOM      6  C   UNL d   1      30.114  16.201 -23.702  0.00  0.00     0.110 A 
ATOM      7  C   UNL d   1      29.424  16.561 -23.996  0.00  0.00     0.026 A 
ATOM      8  C   UNL d   1      29.463  17.036 -24.658  0.00  0.00     0.002 A 
ATOM      9  C   UNL d   1      30.184  17.161 -25.039  0.00  0.00     0.002 A 
ATOM     10  C   UNL d   1      30.866  16.812 -24.758  0.00  0.00     0.019 A 
BRANCH   6  11
ATOM     11  O   UNL d   1      30.083  15.716 -23.028  0.00  0.00    -0.327 OA
ATOM     12  C   UNL d   1      29.354  15.453 -22.747  0.00  0.00     0.181 C 
ENDBRANCH   6  11
ENDBRANCH   1   5
BRANCH   2  13
ATOM     13  C   UNL d   1      32.139  17.265 -23.611  0.00  0.00     0.067 C 
BRANCH  13  14
ATOM     14  C   UNL d   1      32.776  17.735 -23.380  0.00  0.00     0.072 C 
BRANCH  14  15
ATOM     15  C   UNL d   1      32.674  18.544 -23.274  0.00  0.00     0.178 C 
ATOM     16  O   UNL d   1      32.886  19.070 -23.873  0.00  0.00    -0.646 OA
BRANCH  15  17
ATOM     17  O   UNL d   1      32.362  18.834 -22.570  0.00  0.00    -0.773 OA
ATOM     18  H   UNL d   1      32.218  18.316 -21.943  0.00  0.00     0.167 HD
ENDBRANCH  15  17
ENDBRANCH  14  15
ENDBRANCH  13  14
ENDBRANCH   2  13
TORSDOF 6
ENDMDL
MODEL 2
REMARK VINA RESULT:      -2.6      1.355      3.452
REMARK  6 active torsions:
REMARK  status: ('A' for Active; 'I' for Inactive)
REMARK       I    between atoms: C_2  and  N_1 
REMARK    1  A    between atoms: C_3  and  N_1 
REMARK    2  A    between atoms: C_8  and  C_2 
REMARK    3  A    between atoms: C_4  and  C_9 
REMARK    4  A    between atoms: O_10  and  C_4 
REMARK    5  A    between atoms: O_11  and  C_5 
REMARK    6  A    between atoms: C_9  and  C_8 
ROOT
ATOM      1  N   UNL d   1      30.692  17.548 -24.846  0.00  0.00    -0.320 N 
ATOM      2  C   UNL d   1      29.859  17.491 -24.735  0.00  0.00     0.258 C 
ATOM      3  O   UNL d   1      29.356  18.031 -25.095  0.00  0.00    -0.267 OA
ATOM      4  H   UNL d   1      31.005  18.145 -25.316  0.00  0.00     0.169 HD
ENDROOT
BRANCH   1   5
ATOM      5  C   UNL d   1      31.197  16.989 -24.472  0.00  0.00     0.082 A 
ATOM      6  C   UNL d   1      31.787  17.259 -23.943  0.00  0.00     0.110 A 
ATOM      7  C   UNL d   1      32.289  16.711 -23.570  0.00  0.00     0.026 A 
ATOM      8  C   UNL d   1      32.205  15.914 -23.721  0.00  0.00     0.002 A 
ATOM      9  C   UNL d   1      31.624  15.648 -24.243  0.00  0.00     0.002 A 
ATOM     10  C   UNL d   1      31.126  16.178 -24.613  0.00  0.00     0.019 A 
BRANCH   6  11
ATOM     11  O   UNL d   1      31.866  18.073 -23.794  0.00  0.00    -0.327 OA
ATOM     12  C   UNL d   1      32.538  18.356 -23.409  0.00  0.00     0.181 C 
ENDBRANCH   6  11
ENDBRANCH   1   5
BRANCH   2  13
ATOM     13  C   UNL d   1      29.546  16.890 -24.262  0.00  0.00     0.067 C 
BRANCH  13  14
ATOM     14  C   UNL d   1      28.730  16.825 -24.165  0.00  0.00     0.072 C 
BRANCH  14  15
ATOM     15  C   UNL d   1      28.423  16.403 -23.530  0.00  0.00     0.178 C 
ATOM     16  O   UNL d   1      28.152  15.631 -23.639  0.00  0.00    -0.646 OA
BRANCH  15  17
ATOM     17  O   UNL d   1      28.383  16.746 -22.783  0.00  0.00    -0.773 OA
ATOM     18  H   UNL d   1      28.154  17.535 -22.709  0.00  0.00     0.167 HD
ENDBRANCH  15  17
ENDBRANCH  14  15
ENDBRANCH  13  14
ENDBRANCH   2  13
TORSDOF 6
ENDMDL
MODEL 3
REMARK VINA RESULT:      -2.5      1.533      3.037
REMARK  6 active torsions:
REMARK  status: ('A' for Active; 'I' for Inactive)
REMARK       I    between atoms: C_2  and  N_1 
REMARK    1  A    between atoms: C_3  and  N_1 
REMARK    2  A    between atoms: C_8  and  C_2 
REMARK    3  A    between atoms: C_4  and  C_9 
REMARK    4  A    between atoms: O_10  and  C_4 
REMARK    5  A    between atoms: O_11  and  C_5 
REMARK    6  A    between atoms: C_9  and  C_8 
ROOT
ATOM      1  N   UNL d   1      31.098  16.049 -24.755  0.00  0.00    -0.320 N 
ATOM      2  C   UNL d   1      30.256  16.066 -24.753  0.00  0.00     0.258 C 
ATOM      3  O   UNL d   1      29.830  15.453 -25.097  0.00  0.00    -0.267 OA
ATOM      4  H   UNL d   1      31.496  15.420 -25.101  0.00  0.00     0.169 HD
ENDROOT
BRANCH   1   5
ATOM      5  C   UNL d   1      31.524  16.682 -24.400  0.00  0.00     0.082 A 
ATOM      6  C   UNL d   1      32.043  16.520 -23.764  0.00  0.00     0.110 A 
ATOM      7  C   UNL d   1      32.466  17.142 -23.409  0.00  0.00     0.026 A 
ATOM      8  C   UNL d   1      32.373  17.905 -23.682  0.00  0.00     0.002 A 
ATOM      9  C   UNL d   1      31.861  18.065 -24.308  0.00  0.00     0.002 A 
ATOM     10  C   UNL d   1      31.442  17.461 -24.663  0.00  0.00     0.019 A 
BRANCH   6  11
ATOM     11  O   UNL d   1      32.132  15.740 -23.493  0.00  0.00    -0.327 OA
ATOM     12  C   UNL d   1      32.821  15.521 -23.094  0.00  0.00     0.181 C 
ENDBRANCH   6  11
ENDBRANCH   1   5
BRANCH   2  13
ATOM     13  C   UNL d   1      29.857  16.700 -24.405  0.00  0.00     0.067 C 
BRANCH  13  14
ATOM     14  C   UNL d   1      29.033  16.739 -24.441  0.00  0.00     0.072 C 
BRANCH  14  15
ATOM     15  C   UNL d   1      28.619  17.206 -23.907  0.00  0.00     0.178 C 
ATOM     16  O   UNL d   1      28.405  17.976 -24.111  0.00  0.00    -0.646 OA
BRANCH  15  17
ATOM     17  O   UNL d   1      28.415  16.909 -23.166  0.00  0.00    -0.773 OA
ATOM     18  H   UNL d   1      27.905  17.339 -22.681  0.00  0.00     0.167 HD
ENDBRANCH  15  17
ENDBRANCH  14  15
ENDBRANCH  13  14
ENDBRANCH   2  13
TORSDOF 6
ENDMDL
MODEL 4
REMARK VINA RESULT:      -2.4      1.297      1.811
REMARK  6 active torsions:
REMARK  status: ('A' for Active; 'I' for Inactive)
REMARK       I    between atoms: C_2  and  N_1 
REMARK    1  A    between atoms: C_3  and  N_1 
REMARK    2  A    between atoms: C_8  and  C_2 
REMARK    3  A    between atoms: C_4  and  C_9 
REMARK    4  A    between atoms: O_10  and  C_4 
REMARK    5  A    between atoms: O_11  and  C_5 
REMARK    6  A    between atoms: C_9  and  C_8 
ROOT
ATOM      1  N   UNL d   1      31.643  17.579 -25.036  0.00  0.00    -0.320 N 
ATOM      2  C   UNL d   1      32.207  18.076 -24.656  0.00  0.00     0.258 C 
ATOM      3  O   UNL d   1      32.654  18.606 -25.097  0.00  0.00    -0.267 OA
ATOM      4  H   UNL d   1      31.538  17.622 -25.849  0.00  0.00     0.169 HD
ENDROOT
BRANCH   1   5
ATOM      5  C   UNL d   1      31.191  17.040 -24.574  0.00  0.00     0.082 A 
ATOM      6  C   UNL d   1      30.361  17.134 -24.529  0.00  0.00     0.110 A 
ATOM      7  C   UNL d   1      29.910  16.605 -24.074  0.00  0.00     0.026 A 
ATOM      8  C   UNL d   1      30.277  15.996 -23.674  0.00  0.00     0.002 A 
ATOM      9  C   UNL d   1      31.096  15.903 -23.718  0.00  0.00     0.002 A 
ATOM     10  C   UNL d   1      31.547  16.418 -24.162  0.00  0.00     0.019 A 
BRANCH   6  11
ATOM     11  O   UNL d   1      29.995  17.757 -24.940  0.00  0.00    -0.327 OA
ATOM     12  C   UNL d   1      29.177  17.750 -25.050  0.00  0.00     0.181 C 
ENDBRANCH   6  11
ENDBRANCH   1   5
BRANCH   2  13
ATOM     13  C   UNL d   1      32.311  18.031 -23.837  0.00  0.00     0.067 C 
BRANCH  13  14
ATOM     14  C   UNL d   1      32.916  18.460 -23.475  0.00  0.00     0.072 C 
BRANCH  14  15
ATOM     15  C   UNL d   1      32.817  18.745 -22.711  0.00  0.00     0.178 C 
ATOM     16  O   UNL d   1      33.241  18.411 -22.087  0.00  0.00    -0.646 OA
BRANCH  15  17
ATOM     17  O   UNL d   1      32.296  19.365 -22.563  0.00  0.00    -0.773 OA
ATOM     18  H   UNL d   1      32.456  20.115 -22.869  0.00  0.00     0.167 HD
ENDBRANCH  15  17
ENDBRANCH  14  15
ENDBRANCH  13  14
ENDBRANCH   2  13
TORSDOF 6
ENDMDL
MODEL 5
REMARK VINA RESULT:      -1.9      1.142      1.765
REMARK  6 active torsions:
REMARK  status: ('A' for Active; 'I' for Inactive)
REMARK       I    between atoms: C_2  and  N_1 
REMARK    1  A    between atoms: C_3  and  N_1 
REMARK    2  A    between atoms: C_8  and  C_2 
REMARK    3  A    between atoms: C_4  and  C_9 
REMARK    4  A    between atoms: O_10  and  C_4 
REMARK    5  A    between atoms: O_11  and  C_5 
REMARK    6  A    between atoms: C_9  and  C_8 
ROOT
ATOM      1  N   UNL d   1      30.624  17.398 -24.858  0.00  0.00    -0.320 N 
ATOM      2  C   UNL d   1      31.404  17.649 -24.665  0.00  0.00     0.258 C 
ATOM      3  O   UNL d   1      31.765  18.247 -25.097  0.00  0.00    -0.267 OA
ATOM      4  H   UNL d   1      30.220  17.752 -25.479  0.00  0.00     0.169 HD
ENDROOT
BRANCH   1   5
ATOM      5  C   UNL d   1      30.265  16.784 -24.408  0.00  0.00     0.082 A 
ATOM      6  C   UNL d   1      29.529  16.925 -24.036  0.00  0.00     0.110 A 
ATOM      7  C   UNL d   1      29.170  16.322 -23.591  0.00  0.00     0.026 A 
ATOM      8  C   UNL d   1      29.536  15.596 -23.518  0.00  0.00     0.002 A 
ATOM      9  C   UNL d   1      30.262  15.457 -23.885  0.00  0.00     0.002 A 
ATOM     10  C   UNL d   1      30.622  16.043 -24.325  0.00  0.00     0.019 A 
BRANCH   6  11
ATOM     11  O   UNL d   1      29.163  17.667 -24.115  0.00  0.00    -0.327 OA
ATOM     12  C   UNL d   1      28.342  17.714 -24.173  0.00  0.00     0.181 C 
ENDBRANCH   6  11
ENDBRANCH   1   5
BRANCH   2  13
ATOM     13  C   UNL d   1      31.810  17.292 -24.039  0.00  0.00     0.067 C 
BRANCH  13  14
ATOM     14  C   UNL d   1      32.568  17.549 -23.839  0.00  0.00     0.072 C 
BRANCH  14  15
ATOM     15  C   UNL d   1      32.836  17.476 -23.066  0.00  0.00     0.178 C 
ATOM     16  O   UNL d   1      33.241  16.797 -22.831  0.00  0.00    -0.646 OA
BRANCH  15  17
ATOM     17  O   UNL d   1      32.704  18.080 -22.521  0.00  0.00    -0.773 OA
ATOM     18  H   UNL d   1      32.380  17.900 -21.784  0.00  0.00     0.167 HD
ENDBRANCH  15  17
ENDBRANCH  14  15
ENDBRANCH  13  14
ENDBRANCH   2  13
TORSDOF 6
ENDMDL
MODEL 6
REMARK VINA RESULT:      -1.9      1.375      3.355
REMARK  6 active torsions:
REMARK  status: ('A' for Active; 'I' for Inactive)
REMARK       I    between atoms: C_2  and  N_1 
REMARK    1  A    between atoms: C_3  and  N_1 
REMARK    2  A    between atoms: C_8  and  C_2 
REMARK    3  A    between atoms: C_4  and  C_9 
REMARK    4  A    between atoms: O_10  and  C_4 
REMARK    5  A    between atoms: O_11  and  C_5 
REMARK    6  A    between atoms: C_9  and  C_8 
ROOT
ATOM      1  N   UNL d   1      32.296  16.472 -24.629  0.00  0.00    -0.320 N 
ATOM      2  C   UNL d   1      31.617  15.988 -24.509  0.00  0.00     0.258 C 
ATOM      3  O   UNL d   1      31.370  15.470 -25.097  0.00  0.00    -0.267 OA
ATOM      4  H   UNL d   1      32.714  16.428 -25.334  0.00  0.00     0.169 HD
ENDROOT
BRANCH   1   5
ATOM      5  C   UNL d   1      32.539  16.999 -24.019  0.00  0.00     0.082 A 
ATOM      6  C   UNL d   1      32.584  17.819 -24.180  0.00  0.00     0.110 A 
ATOM      7  C   UNL d   1      32.823  18.344 -23.581  0.00  0.00     0.026 A 
ATOM      8  C   UNL d   1      33.014  18.058 -22.841  0.00  0.00     0.002 A 
ATOM      9  C   UNL d   1      32.970  17.249 -22.683  0.00  0.00     0.002 A 
ATOM     10  C   UNL d   1      32.736  16.727 -23.265  0.00  0.00     0.019 A 
BRANCH   6  11
ATOM     11  O   UNL d   1      32.388  18.102 -24.937  0.00  0.00    -0.327 OA
ATOM     12  C   UNL d   1      32.436  18.910 -25.096  0.00  0.00     0.181 C 
ENDBRANCH   6  11
ENDBRANCH   1   5
BRANCH   2  13
ATOM     13  C   UNL d   1      31.198  16.034 -23.798  0.00  0.00     0.067 C 
BRANCH  13  14
ATOM     14  C   UNL d   1      30.503  15.600 -23.701  0.00  0.00     0.072 C 
BRANCH  14  15
ATOM     15  C   UNL d   1      29.982  15.787 -23.094  0.00  0.00     0.178 C 
ATOM     16  O   UNL d   1      30.092  15.468 -22.341  0.00  0.00    -0.646 OA
BRANCH  15  17
ATOM     17  O   UNL d   1      29.347  16.292 -23.233  0.00  0.00    -0.773 OA
ATOM     18  H   UNL d   1      28.922  16.229 -23.937  0.00  0.00     0.167 HD
ENDBRANCH  15  17
ENDBRANCH  14  15
ENDBRANCH  13  14
ENDBRANCH   2  13
TORSDOF 6
ENDMDL
MODEL 7
REMARK VINA RESULT:      -1.3      1.683      2.774
REMARK  6 active torsions:
REMARK  status: ('A' for Active; 'I' for Inactive)
REMARK       I    between atoms: C_2  and  N_1 
REMARK    1  A    between atoms: C_3  and  N_1 
REMARK    2  A    between atoms: C_8  and  C_2 
REMARK    3  A    between atoms: C_4  and  C_9 
REMARK    4  A    between atoms: O_10  and  C_4 
REMARK    5  A    between atoms: O_11  and  C_5 
REMARK    6  A    between atoms: C_9  and  C_8 
ROOT
ATOM      1  N   UNL d   1      32.659  18.640 -24.342  0.00  0.00    -0.320 N 
ATOM      2  C   UNL d   1      32.883  19.317 -23.895  0.00  0.00     0.258 C 
ATOM      3  O   UNL d   1      32.954  20.049 -24.261  0.00  0.00    -0.267 OA
ATOM      4  H   UNL d   1      32.510  18.709 -25.147  0.00  0.00     0.169 HD
ENDROOT
BRANCH   1   5
ATOM      5  C   UNL d   1      32.590  17.896 -23.956  0.00  0.00     0.082 A 
ATOM      6  C   UNL d   1      31.891  17.446 -24.055  0.00  0.00     0.110 A 
ATOM      7  C   UNL d   1      31.817  16.710 -23.676  0.00  0.00     0.026 A 
ATOM      8  C   UNL d   1      32.425  16.429 -23.210  0.00  0.00     0.002 A 
ATOM      9  C   UNL d   1      33.114  16.872 -23.112  0.00  0.00     0.002 A 
ATOM     10  C   UNL d   1      33.195  17.596 -23.481  0.00  0.00     0.019 A 
BRANCH   6  11
ATOM     11  O   UNL d   1      31.276  17.740 -24.531  0.00  0.00    -0.327 OA
ATOM     12  C   UNL d   1      30.643  17.249 -24.730  0.00  0.00     0.181 C 
ENDBRANCH   6  11
ENDBRANCH   1   5
BRANCH   2  13
ATOM     13  C   UNL d   1      33.033  19.246 -23.085  0.00  0.00     0.067 C 
BRANCH  13  14
ATOM     14  C   UNL d   1      33.239  19.912 -22.644  0.00  0.00     0.072 C 
BRANCH  14  15
ATOM     15  C   UNL d   1      32.967  19.996 -21.873  0.00  0.00     0.178 C 
ATOM     16  O   UNL d   1      32.449  20.609 -21.682  0.00  0.00    -0.646 OA
BRANCH  15  17
ATOM     17  O   UNL d   1      33.211  19.471 -21.287  0.00  0.00    -0.773 OA
ATOM     18  H   UNL d   1      32.681  19.246 -20.696  0.00  0.00     0.167 HD
ENDBRANCH  15  17
ENDBRANCH  14  15
ENDBRANCH  13  14
ENDBRANCH   2  13
TORSDOF 6
ENDMDL
MODEL 8
REMARK VINA RESULT:      -1.0      3.420      5.120
REMARK  6 active torsions:
REMARK  status: ('A' for Active; 'I' for Inactive)
REMARK       I    between atoms: C_2  and  N_1 
REMARK    1  A    between atoms: C_3  and  N_1 
REMARK    2  A    between atoms: C_8  and  C_2 
REMARK    3  A    between atoms: C_4  and  C_9 
REMARK    4  A    between atoms: O_10  and  C_4 
REMARK    5  A    between atoms: O_11  and  C_5 
REMARK    6  A    between atoms: C_9  and  C_8 
ROOT
ATOM      1  N   UNL d   1      33.237  20.351 -21.317  0.00  0.00    -0.320 N 
ATOM      2  C   UNL d   1      32.926  20.973 -20.842  0.00  0.00     0.258 C 
ATOM      3  O   UNL d   1      32.941  20.914 -20.023  0.00  0.00    -0.267 OA
ATOM      4  H   UNL d   1      33.557  19.684 -20.964  0.00  0.00     0.169 HD
ENDROOT
BRANCH   1   5
ATOM      5  C   UNL d   1      33.215  20.423 -22.156  0.00  0.00     0.082 A 
ATOM      6  C   UNL d   1      33.166  19.732 -22.625  0.00  0.00     0.110 A 
ATOM      7  C   UNL d   1      33.144  19.797 -23.453  0.00  0.00     0.026 A 
ATOM      8  C   UNL d   1      33.171  20.532 -23.805  0.00  0.00     0.002 A 
ATOM      9  C   UNL d   1      33.219  21.214 -23.343  0.00  0.00     0.002 A 
ATOM     10  C   UNL d   1      33.241  21.160 -22.528  0.00  0.00     0.019 A 
BRANCH   6  11
ATOM     11  O   UNL d   1      33.140  18.986 -22.258  0.00  0.00    -0.327 OA
ATOM     12  C   UNL d   1      33.212  18.303 -22.716  0.00  0.00     0.181 C 
ENDBRANCH   6  11
ENDBRANCH   1   5
BRANCH   2  13
ATOM     13  C   UNL d   1      32.603  21.645 -21.200  0.00  0.00     0.067 C 
BRANCH  13  14
ATOM     14  C   UNL d   1      32.073  22.120 -20.783  0.00  0.00     0.072 C 
BRANCH  14  15
ATOM     15  C   UNL d   1      32.014  22.921 -20.957  0.00  0.00     0.178 C 
ATOM     16  O   UNL d   1      31.362  23.207 -21.374  0.00  0.00    -0.646 OA
BRANCH  15  17
ATOM     17  O   UNL d   1      32.603  23.443 -20.716  0.00  0.00    -0.773 OA
ATOM     18  H   UNL d   1      32.463  24.256 -20.738  0.00  0.00     0.167 HD
ENDBRANCH  15  17
ENDBRANCH  14  15
ENDBRANCH  13  14
ENDBRANCH   2  13
TORSDOF 6
ENDMDL
MODEL 9
REMARK VINA RESULT:      -0.7      2.936      4.226
REMARK  6 active torsions:
REMARK  status: ('A' for Active; 'I' for Inactive)
REMARK       I    between atoms: C_2  and  N_1 
REMARK    1  A    between atoms: C_3  and  N_1 
REMARK    2  A    between atoms: C_8  and  C_2 
REMARK    3  A    between atoms: C_4  and  C_9 
REMARK    4  A    between atoms: O_10  and  C_4 
REMARK    5  A    between atoms: O_11  and  C_5 
REMARK    6  A    between atoms: C_9  and  C_8 
ROOT
ATOM      1  N   UNL d   1      33.211  20.276 -23.493  0.00  0.00    -0.320 N 
ATOM      2  C   UNL d   1      33.154  20.892 -22.921  0.00  0.00     0.258 C 
ATOM      3  O   UNL d   1      33.240  21.677 -23.149  0.00  0.00    -0.267 OA
ATOM      4  H   UNL d   1      33.354  20.458 -24.280  0.00  0.00     0.169 HD
ENDROOT
BRANCH   1   5
ATOM      5  C   UNL d   1      33.121  19.476 -23.247  0.00  0.00     0.082 A 
ATOM      6  C   UNL d   1      32.905  18.897 -23.811  0.00  0.00     0.110 A 
ATOM      7  C   UNL d   1      32.815  18.105 -23.573  0.00  0.00     0.026 A 
ATOM      8  C   UNL d   1      32.937  17.897 -22.794  0.00  0.00     0.002 A 
ATOM      9  C   UNL d   1      33.150  18.468 -22.239  0.00  0.00     0.002 A 
ATOM     10  C   UNL d   1      33.241  19.248 -22.462  0.00  0.00     0.019 A 
BRANCH   6  11
ATOM     11  O   UNL d   1      32.782  19.118 -24.602  0.00  0.00    -0.327 OA
ATOM     12  C   UNL d   1      32.332  18.634 -25.097  0.00  0.00     0.181 C 
ENDBRANCH   6  11
ENDBRANCH   1   5
BRANCH   2  13
ATOM     13  C   UNL d   1      33.010  20.707 -22.128  0.00  0.00     0.067 C 
BRANCH  13  14
ATOM     14  C   UNL d   1      32.855  21.310 -21.586  0.00  0.00     0.072 C 
BRANCH  14  15
ATOM     15  C   UNL d   1      32.620  21.125 -20.821  0.00  0.00     0.178 C 
ATOM     16  O   UNL d   1      33.159  20.794 -20.291  0.00  0.00    -0.646 OA
BRANCH  15  17
ATOM     17  O   UNL d   1      31.847  21.268 -20.577  0.00  0.00    -0.773 OA
ATOM     18  H   UNL d   1      31.336  20.634 -20.447  0.00  0.00     0.167 HD
ENDBRANCH  15  17
ENDBRANCH  14  15
ENDBRANCH  13  14
ENDBRANCH   2  13
TORSDOF 6
ENDMDL
