MODEL 1
REMARK VINA RESULT:      -5.9      0.000      0.000
REMARK  3 active torsions:
REMARK  status: ('A' for Active; 'I' for Inactive)
REMARK    1  A    between atoms: C_6  and  C_1 
REMARK    2  A    between atoms: O_2  and  C_6 
REMARK    3  A    between atoms: C_3  and  O_2 
ROOT
ATOM      1  C   UNL d   1     -48.170  12.586  22.265  0.00  0.00     0.134 A 
ATOM      2  C   UNL d   1     -48.674  11.941  22.370  0.00  0.00     0.218 A 
ATOM      3  O   UNL d   1     -48.431  11.292  22.817  0.00  0.00    -0.284 OA
ATOM      4  C   UNL d   1     -48.408  13.232  21.822  0.00  0.00     0.028 A 
ATOM      5  C   UNL d   1     -49.420  11.937  22.033  0.00  0.00     0.044 A 
ATOM      6  C   UNL d   1     -49.668  12.589  21.582  0.00  0.00     0.003 A 
ATOM      7  C   UNL d   1     -49.164  13.234  21.477  0.00  0.00     0.002 A 
ENDROOT
BRANCH   1   8
ATOM      8  O   UNL d   1     -47.419  12.587  22.607  0.00  0.00    -0.316 OA
BRANCH   8   9
ATOM      9  C   UNL d   1     -46.931  13.255  22.525  0.00  0.00     0.246 C 
BRANCH   9  10
ATOM     10  C   UNL d   1     -46.184  13.257  22.869  0.00  0.00     0.217 C 
ATOM     11  O   UNL d   1     -46.086  13.419  23.665  0.00  0.00    -0.645 OA
ATOM     12  O   UNL d   1     -45.501  13.098  22.441  0.00  0.00    -0.645 OA
ENDBRANCH   9  10
ENDBRANCH   8   9
ENDBRANCH   1   8
TORSDOF 3
ENDMDL
MODEL 2
REMARK VINA RESULT:      -5.8      1.128      2.892
REMARK  3 active torsions:
REMARK  status: ('A' for Active; 'I' for Inactive)
REMARK    1  A    between atoms: C_6  and  C_1 
REMARK    2  A    between atoms: O_2  and  C_6 
REMARK    3  A    between atoms: C_3  and  O_2 
ROOT
ATOM      1  C   UNL d   1     -47.334  13.138  23.061  0.00  0.00     0.134 A 
ATOM      2  C   UNL d   1     -46.539  13.282  23.225  0.00  0.00     0.218 A 
ATOM      3  O   UNL d   1     -46.062  12.681  23.528  0.00  0.00    -0.284 OA
ATOM      4  C   UNL d   1     -47.811  13.732  22.761  0.00  0.00     0.028 A 
ATOM      5  C   UNL d   1     -46.213  14.020  23.089  0.00  0.00     0.044 A 
ATOM      6  C   UNL d   1     -46.690  14.628  22.784  0.00  0.00     0.003 A 
ATOM      7  C   UNL d   1     -47.486  14.485  22.620  0.00  0.00     0.002 A 
ENDROOT
BRANCH   1   8
ATOM      8  O   UNL d   1     -47.660  12.393  23.199  0.00  0.00    -0.316 OA
BRANCH   8   9
ATOM      9  C   UNL d   1     -48.437  12.231  22.952  0.00  0.00     0.246 C 
BRANCH   9  10
ATOM     10  C   UNL d   1     -48.728  11.464  23.005  0.00  0.00     0.217 C 
ATOM     11  O   UNL d   1     -48.671  10.945  22.375  0.00  0.00    -0.645 OA
ATOM     12  O   UNL d   1     -49.089  11.176  23.684  0.00  0.00    -0.645 OA
ENDBRANCH   9  10
ENDBRANCH   8   9
ENDBRANCH   1   8
TORSDOF 3
ENDMDL
MODEL 3
REMARK VINA RESULT:      -5.7      1.723      2.681
REMARK  3 active torsions:
REMARK  status: ('A' for Active; 'I' for Inactive)
REMARK    1  A    between atoms: C_6  and  C_1 
REMARK    2  A    between atoms: O_2  and  C_6 
REMARK    3  A    between atoms: C_3  and  O_2 
ROOT
ATOM      1  C   UNL d   1     -47.504  12.969  23.272  0.00  0.00     0.134 A 
ATOM      2  C   UNL d   1     -46.759  12.726  23.532  0.00  0.00     0.218 A 
ATOM      3  O   UNL d   1     -46.156  13.278  23.642  0.00  0.00    -0.284 OA
ATOM      4  C   UNL d   1     -48.104  12.424  23.162  0.00  0.00     0.028 A 
ATOM      5  C   UNL d   1     -46.610  11.936  23.683  0.00  0.00     0.044 A 
ATOM      6  C   UNL d   1     -47.215  11.377  23.574  0.00  0.00     0.003 A 
ATOM      7  C   UNL d   1     -47.959  11.620  23.314  0.00  0.00     0.002 A 
ENDROOT
BRANCH   1   8
ATOM      8  O   UNL d   1     -47.651  13.766  23.120  0.00  0.00    -0.316 OA
BRANCH   8   9
ATOM      9  C   UNL d   1     -48.403  14.003  22.855  0.00  0.00     0.246 C 
BRANCH   9  10
ATOM     10  C   UNL d   1     -48.571  14.803  22.773  0.00  0.00     0.217 C 
ATOM     11  O   UNL d   1     -49.085  15.182  23.284  0.00  0.00    -0.645 OA
ATOM     12  O   UNL d   1     -48.238  15.265  22.180  0.00  0.00    -0.645 OA
ENDBRANCH   9  10
ENDBRANCH   8   9
ENDBRANCH   1   8
TORSDOF 3
ENDMDL
