MODEL 1
REMARK VINA RESULT:      94.0      0.000      0.000
REMARK  5 active torsions:
REMARK  status: ('A' for Active; 'I' for Inactive)
REMARK    1  A    between atoms: O_8  and  C_1 
REMARK    2  A    between atoms: C_10  and  C_5 
REMARK    3  A    between atoms: C_12  and  O_8 
REMARK    4  A    between atoms: N_9  and  C_10 
REMARK    5  A    between atoms: O_24  and  C_17 
ROOT
ATOM      1  C   UNL d   1     -49.192  28.014  34.087  0.00  0.00     0.161 A 
ATOM      2  C   UNL d   1     -50.393  26.881  33.901  0.00  0.00     0.108 A 
ATOM      3  C   UNL d   1     -50.539  27.682  33.707  0.00  0.00     0.064 A 
ATOM      4  C   UNL d   1     -49.945  28.243  33.798  0.00  0.00     0.222 A 
ATOM      5  C   UNL d   1     -50.994  26.315  33.808  0.00  0.00     0.079 A 
ATOM      6  O   UNL d   1     -49.651  26.645  34.187  0.00  0.00    -0.305 OA
ATOM      7  C   UNL d   1     -49.048  27.220  34.280  0.00  0.00     0.126 A 
ATOM      8  C   UNL d   1     -51.289  27.900  33.421  0.00  0.00     0.009 A 
ATOM      9  C   UNL d   1     -51.735  26.547  33.523  0.00  0.00     0.199 A 
ATOM     10  O   UNL d   1     -50.085  29.033  33.608  0.00  0.00    -0.284 OA
ATOM     11  C   UNL d   1     -51.882  27.336  33.330  0.00  0.00     0.042 A 
ATOM     12  O   UNL d   1     -52.328  25.982  33.432  0.00  0.00    -0.286 OA
ATOM     13  C   UNL d   1     -48.309  26.996  34.563  0.00  0.00     0.029 C 
ENDROOT
BRANCH   1  14
ATOM     14  O   UNL d   1     -48.600  28.578  34.178  0.00  0.00    -0.300 OA
BRANCH  14  15
ATOM     15  C   UNL d   1     -48.383  28.828  34.932  0.00  0.00     0.122 A 
ATOM     16  C   UNL d   1     -48.090  29.594  35.037  0.00  0.00     0.117 A 
ATOM     17  C   UNL d   1     -47.873  29.846  35.788  0.00  0.00     0.026 A 
ATOM     18  C   UNL d   1     -47.944  29.339  36.435  0.00  0.00     0.002 A 
ATOM     19  C   UNL d   1     -48.240  28.568  36.322  0.00  0.00     0.002 A 
ATOM     20  C   UNL d   1     -48.457  28.320  35.567  0.00  0.00     0.027 A 
BRANCH  16  21
ATOM     21  O   UNL d   1     -48.018  30.098  34.399  0.00  0.00    -0.326 OA
ATOM     22  C   UNL d   1     -47.656  30.837  34.489  0.00  0.00     0.181 C 
ENDBRANCH  16  21
ENDBRANCH  14  15
ENDBRANCH   1  14
BRANCH   5  23
ATOM     23  C   UNL d   1     -50.849  25.539  33.998  0.00  0.00     0.086 C 
BRANCH  23  24
ATOM     24  N   UNL d   1     -51.468  24.989  33.991  0.00  0.00    -0.300 N 
ATOM     25  C   UNL d   1     -51.601  24.534  33.315  0.00  0.00     0.100 A 
ATOM     26  C   UNL d   1     -52.217  23.987  33.307  0.00  0.00     0.100 A 
ATOM     27  N   UNL d   1     -52.698  23.896  33.973  0.00  0.00    -0.299 N 
ATOM     28  C   UNL d   1     -52.560  24.353  34.646  0.00  0.00     0.100 A 
ATOM     29  C   UNL d   1     -53.313  23.349  33.965  0.00  0.00     0.100 C 
ATOM     30  C   UNL d   1     -51.942  24.902  34.653  0.00  0.00     0.100 A 
ENDBRANCH  23  24
ENDBRANCH   5  23
TORSDOF 5
ENDMDL
