MODEL 1
REMARK VINA RESULT:      -4.0      0.000      0.000
REMARK  4 active torsions:
REMARK  status: ('A' for Active; 'I' for Inactive)
REMARK    1  A    between atoms: N_2  and  S_1 
REMARK    2  A    between atoms: C_3  and  S_1 
REMARK    3  A    between atoms: C_17  and  N_4 
REMARK    4  A    between atoms: C_16  and  C_17 
ROOT
ATOM      1  N   UNL d   1      59.250  -0.105  29.454  0.00  0.00    -0.226 N 
ATOM      2  N   UNL d   1      57.962   0.417  30.329  0.00  0.00    -0.300 N 
ATOM      3  C   UNL d   1      58.540   0.081  29.066  0.00  0.00     0.111 A 
ATOM      4  C   UNL d   1      59.312  -0.030  30.273  0.00  0.00     0.111 A 
ATOM      5  C   UNL d   1      58.662   0.233  30.708  0.00  0.00     0.100 A 
ATOM      6  C   UNL d   1      57.889   0.346  29.516  0.00  0.00     0.100 A 
ENDROOT
BRANCH   1   7
ATOM      7  S   UNL d   1      59.890  -0.366  29.011  0.00  0.00     0.272 S 
ATOM      8  O   UNL d   1      60.527  -0.625  28.571  0.00  0.00    -0.200 OA
ATOM      9  O   UNL d   1      60.211   0.385  29.033  0.00  0.00    -0.200 OA
BRANCH   7  10
ATOM     10  C   UNL d   1      59.566  -1.124  28.989  0.00  0.00     0.106 A 
ATOM     11  C   UNL d   1      59.867  -1.715  29.494  0.00  0.00     0.043 A 
ATOM     12  C   UNL d   1      59.540  -2.481  29.472  0.00  0.00     0.141 A 
ATOM     13  F   UNL d   1      59.833  -3.070  29.969  0.00  0.00    -0.204 F 
ATOM     14  C   UNL d   1      58.915  -2.648  28.945  0.00  0.00     0.030 A 
ATOM     15  C   UNL d   1      58.628  -2.062  28.455  0.00  0.00     0.003 A 
ATOM     16  C   UNL d   1      58.955  -1.296  28.477  0.00  0.00     0.013 A 
ENDBRANCH   7  10
ENDBRANCH   1   7
BRANCH   2  17
ATOM     17  C   UNL d   1      57.319   0.679  30.774  0.00  0.00     0.080 C 
BRANCH  17  18
ATOM     18  C   UNL d   1      57.117   0.295  31.472  0.00  0.00     0.020 A 
ATOM     19  C   UNL d   1      56.677  -0.394  31.437  0.00  0.00     0.028 A 
ATOM     20  C   UNL d   1      56.469  -0.789  32.133  0.00  0.00     0.119 A 
ATOM     21  O   UNL d   1      56.036  -1.482  32.274  0.00  0.00    -0.300 OA
ATOM     22  C   UNL d   1      56.710  -0.480  32.859  0.00  0.00     0.119 A 
ATOM     23  C   UNL d   1      56.011  -1.600  33.095  0.00  0.00     0.304 A 
ATOM     24  O   UNL d   1      56.429  -0.978  33.459  0.00  0.00    -0.300 OA
ATOM     25  C   UNL d   1      57.155   0.217  32.894  0.00  0.00     0.026 A 
ATOM     26  C   UNL d   1      57.358   0.604  32.198  0.00  0.00     0.004 A 
ENDBRANCH  17  18
ENDBRANCH   2  17
TORSDOF 4
ENDMDL
MODEL 2
REMARK VINA RESULT:      -3.6      2.231      4.956
REMARK  4 active torsions:
REMARK  status: ('A' for Active; 'I' for Inactive)
REMARK    1  A    between atoms: N_2  and  S_1 
REMARK    2  A    between atoms: C_3  and  S_1 
REMARK    3  A    between atoms: C_17  and  N_4 
REMARK    4  A    between atoms: C_16  and  C_17 
ROOT
ATOM      1  N   UNL d   1      56.542  -0.790  32.599  0.00  0.00    -0.226 N 
ATOM      2  N   UNL d   1      57.199   0.188  31.455  0.00  0.00    -0.300 N 
ATOM      3  C   UNL d   1      56.269  -0.834  31.817  0.00  0.00     0.111 A 
ATOM      4  C   UNL d   1      57.140  -0.260  32.805  0.00  0.00     0.111 A 
ATOM      5  C   UNL d   1      57.467   0.229  32.227  0.00  0.00     0.100 A 
ATOM      6  C   UNL d   1      56.607  -0.334  31.240  0.00  0.00     0.100 A 
ENDROOT
BRANCH   1   7
ATOM      7  S   UNL d   1      56.210  -1.282  33.166  0.00  0.00     0.272 S 
ATOM      8  O   UNL d   1      55.880  -1.770  33.730  0.00  0.00    -0.200 OA
ATOM      9  O   UNL d   1      56.566  -1.928  32.815  0.00  0.00    -0.200 OA
BRANCH   7  10
ATOM     10  C   UNL d   1      55.851  -0.629  33.521  0.00  0.00     0.106 A 
ATOM     11  C   UNL d   1      55.060  -0.442  33.334  0.00  0.00     0.043 A 
ATOM     12  C   UNL d   1      54.697   0.216  33.692  0.00  0.00     0.141 A 
ATOM     13  F   UNL d   1      53.916   0.406  33.512  0.00  0.00    -0.204 F 
ATOM     14  C   UNL d   1      55.128   0.682  34.234  0.00  0.00     0.030 A 
ATOM     15  C   UNL d   1      55.902   0.490  34.410  0.00  0.00     0.003 A 
ATOM     16  C   UNL d   1      56.265  -0.168  34.052  0.00  0.00     0.013 A 
ENDBRANCH   7  10
ENDBRANCH   1   7
BRANCH   2  17
ATOM     17  C   UNL d   1      57.533   0.682  30.885  0.00  0.00     0.080 C 
BRANCH  17  18
ATOM     18  C   UNL d   1      58.234   0.466  30.512  0.00  0.00     0.020 A 
ATOM     19  C   UNL d   1      58.201   0.044  29.811  0.00  0.00     0.028 A 
ATOM     20  C   UNL d   1      58.898  -0.178  29.428  0.00  0.00     0.119 A 
ATOM     21  O   UNL d   1      59.041  -0.598  28.727  0.00  0.00    -0.300 OA
ATOM     22  C   UNL d   1      59.624   0.030  29.760  0.00  0.00     0.119 A 
ATOM     23  C   UNL d   1      59.863  -0.648  28.627  0.00  0.00     0.304 A 
ATOM     24  O   UNL d   1      60.226  -0.259  29.268  0.00  0.00    -0.300 OA
ATOM     25  C   UNL d   1      59.657   0.456  30.468  0.00  0.00     0.026 A 
ATOM     26  C   UNL d   1      58.960   0.673  30.844  0.00  0.00     0.004 A 
ENDBRANCH  17  18
ENDBRANCH   2  17
TORSDOF 4
ENDMDL
MODEL 3
REMARK VINA RESULT:      -3.4      0.728      1.178
REMARK  4 active torsions:
REMARK  status: ('A' for Active; 'I' for Inactive)
REMARK    1  A    between atoms: N_2  and  S_1 
REMARK    2  A    between atoms: C_3  and  S_1 
REMARK    3  A    between atoms: C_17  and  N_4 
REMARK    4  A    between atoms: C_16  and  C_17 
ROOT
ATOM      1  N   UNL d   1      59.625  -0.328  29.263  0.00  0.00    -0.226 N 
ATOM      2  N   UNL d   1      58.358   0.343  30.062  0.00  0.00    -0.300 N 
ATOM      3  C   UNL d   1      58.888  -0.271  28.887  0.00  0.00     0.111 A 
ATOM      4  C   UNL d   1      59.725  -0.050  30.034  0.00  0.00     0.111 A 
ATOM      5  C   UNL d   1      59.085   0.286  30.431  0.00  0.00     0.100 A 
ATOM      6  C   UNL d   1      58.248   0.071  29.298  0.00  0.00     0.100 A 
ENDROOT
BRANCH   1   7
ATOM      7  S   UNL d   1      60.255  -0.665  28.858  0.00  0.00     0.272 S 
ATOM      8  O   UNL d   1      60.882  -1.000  28.456  0.00  0.00    -0.200 OA
ATOM      9  O   UNL d   1      60.511   0.079  28.638  0.00  0.00    -0.200 OA
BRANCH   7  10
ATOM     10  C   UNL d   1      59.997  -1.416  29.081  0.00  0.00     0.106 A 
ATOM     11  C   UNL d   1      59.386  -1.786  28.652  0.00  0.00     0.043 A 
ATOM     12  C   UNL d   1      59.125  -2.544  28.877  0.00  0.00     0.141 A 
ATOM     13  F   UNL d   1      58.521  -2.915  28.456  0.00  0.00    -0.204 F 
ATOM     14  C   UNL d   1      59.478  -2.926  29.529  0.00  0.00     0.030 A 
ATOM     15  C   UNL d   1      60.076  -2.555  29.943  0.00  0.00     0.003 A 
ATOM     16  C   UNL d   1      60.337  -1.796  29.718  0.00  0.00     0.013 A 
ENDBRANCH   7  10
ENDBRANCH   1   7
BRANCH   2  17
ATOM     17  C   UNL d   1      57.725   0.681  30.469  0.00  0.00     0.080 C 
BRANCH  17  18
ATOM     18  C   UNL d   1      57.407   0.302  31.126  0.00  0.00     0.020 A 
ATOM     19  C   UNL d   1      57.427   0.677  31.853  0.00  0.00     0.028 A 
ATOM     20  C   UNL d   1      57.111   0.305  32.520  0.00  0.00     0.119 A 
ATOM     21  O   UNL d   1      57.050   0.538  33.314  0.00  0.00    -0.300 OA
ATOM     22  C   UNL d   1      56.777  -0.446  32.443  0.00  0.00     0.119 A 
ATOM     23  C   UNL d   1      56.675  -0.076  33.728  0.00  0.00     0.304 A 
ATOM     24  O   UNL d   1      56.506  -0.686  33.188  0.00  0.00    -0.300 OA
ATOM     25  C   UNL d   1      56.757  -0.824  31.708  0.00  0.00     0.026 A 
ATOM     26  C   UNL d   1      57.073  -0.448  31.049  0.00  0.00     0.004 A 
ENDBRANCH  17  18
ENDBRANCH   2  17
TORSDOF 4
ENDMDL
MODEL 4
REMARK VINA RESULT:      -3.4      2.088      4.712
REMARK  4 active torsions:
REMARK  status: ('A' for Active; 'I' for Inactive)
REMARK    1  A    between atoms: N_2  and  S_1 
REMARK    2  A    between atoms: C_3  and  S_1 
REMARK    3  A    between atoms: C_17  and  N_4 
REMARK    4  A    between atoms: C_16  and  C_17 
ROOT
ATOM      1  N   UNL d   1      57.289   0.066  32.439  0.00  0.00    -0.226 N 
ATOM      2  N   UNL d   1      57.392  -0.263  30.834  0.00  0.00    -0.300 N 
ATOM      3  C   UNL d   1      57.208   0.682  31.889  0.00  0.00     0.111 A 
ATOM      4  C   UNL d   1      57.421  -0.708  32.185  0.00  0.00     0.111 A 
ATOM      5  C   UNL d   1      57.471  -0.868  31.377  0.00  0.00     0.100 A 
ATOM      6  C   UNL d   1      57.261   0.508  31.075  0.00  0.00     0.100 A 
ENDROOT
BRANCH   1   7
ATOM      7  S   UNL d   1      57.237   0.236  33.241  0.00  0.00     0.272 S 
ATOM      8  O   UNL d   1      57.185   0.406  34.037  0.00  0.00    -0.200 OA
ATOM      9  O   UNL d   1      57.999   0.531  33.228  0.00  0.00    -0.200 OA
BRANCH   7  10
ATOM     10  C   UNL d   1      56.467  -0.062  33.254  0.00  0.00     0.106 A 
ATOM     11  C   UNL d   1      55.822   0.466  33.262  0.00  0.00     0.043 A 
ATOM     12  C   UNL d   1      55.045   0.166  33.275  0.00  0.00     0.141 A 
ATOM     13  F   UNL d   1      54.402   0.682  33.283  0.00  0.00    -0.204 F 
ATOM     14  C   UNL d   1      54.921  -0.660  33.280  0.00  0.00     0.030 A 
ATOM     15  C   UNL d   1      55.560  -1.167  33.272  0.00  0.00     0.003 A 
ATOM     16  C   UNL d   1      56.337  -0.867  33.259  0.00  0.00     0.013 A 
ENDBRANCH   7  10
ENDBRANCH   1   7
BRANCH   2  17
ATOM     17  C   UNL d   1      57.444  -0.434  30.028  0.00  0.00     0.080 C 
BRANCH  17  18
ATOM     18  C   UNL d   1      58.180  -0.471  29.662  0.00  0.00     0.020 A 
ATOM     19  C   UNL d   1      58.564  -1.191  29.606  0.00  0.00     0.028 A 
ATOM     20  C   UNL d   1      59.303  -1.240  29.241  0.00  0.00     0.119 A 
ATOM     21  O   UNL d   1      59.818  -1.876  29.102  0.00  0.00    -0.300 OA
ATOM     22  C   UNL d   1      59.647  -0.555  28.934  0.00  0.00     0.119 A 
ATOM     23  C   UNL d   1      60.484  -1.579  28.707  0.00  0.00     0.304 A 
ATOM     24  O   UNL d   1      60.378  -0.759  28.602  0.00  0.00    -0.300 OA
ATOM     25  C   UNL d   1      59.258   0.173  28.990  0.00  0.00     0.026 A 
ATOM     26  C   UNL d   1      58.524   0.213  29.355  0.00  0.00     0.004 A 
ENDBRANCH  17  18
ENDBRANCH   2  17
TORSDOF 4
ENDMDL
