MODEL 1
REMARK VINA RESULT:      -8.3      0.000      0.000
REMARK  1 active torsions:
REMARK  status: ('A' for Active; 'I' for Inactive)
REMARK    1  A    between atoms: C_4  and  C_1 
ROOT
ATOM      1  C   UNL d   1      53.538  31.880  53.565  0.00  0.00     0.164 A 
ATOM      2  O   UNL d   1      53.400  32.037  54.363  0.00  0.00    -0.301 OA
ATOM      3  C   UNL d   1      54.174  32.339  53.318  0.00  0.00     0.033 A 
ATOM      4  C   UNL d   1      53.955  32.597  54.610  0.00  0.00     0.100 A 
ATOM      5  C   UNL d   1      54.435  32.784  53.961  0.00  0.00     0.025 A 
ATOM      6  C   UNL d   1      54.088  32.961  55.336  0.00  0.00     0.025 A 
ATOM      7  C   UNL d   1      55.046  33.334  54.042  0.00  0.00     0.002 A 
ATOM      8  C   UNL d   1      55.180  33.703  54.777  0.00  0.00     0.000 A 
ATOM      9  C   UNL d   1      54.702  33.516  55.423  0.00  0.00     0.002 A 
ENDROOT
BRANCH   1  10
ATOM     10  C   UNL d   1      53.107  31.353  53.106  0.00  0.00     0.235 C 
ATOM     11  O   UNL d   1      52.566  31.651  52.547  0.00  0.00    -0.642 OA
ATOM     12  O   UNL d   1      53.206  30.539  53.193  0.00  0.00    -0.642 OA
ENDBRANCH   1  10
TORSDOF 1
ENDMDL
MODEL 2
REMARK VINA RESULT:      -7.8      1.379      2.911
REMARK  1 active torsions:
REMARK  status: ('A' for Active; 'I' for Inactive)
REMARK    1  A    between atoms: C_4  and  C_1 
ROOT
ATOM      1  C   UNL d   1      53.956  33.387  54.550  0.00  0.00     0.164 A 
ATOM      2  O   UNL d   1      53.385  33.463  53.960  0.00  0.00    -0.301 OA
ATOM      3  C   UNL d   1      54.167  32.593  54.602  0.00  0.00     0.033 A 
ATOM      4  C   UNL d   1      53.243  32.713  53.646  0.00  0.00     0.100 A 
ATOM      5  C   UNL d   1      53.729  32.173  54.045  0.00  0.00     0.025 A 
ATOM      6  C   UNL d   1      52.738  32.448  53.053  0.00  0.00     0.025 A 
ATOM      7  C   UNL d   1      53.707  31.371  53.849  0.00  0.00     0.002 A 
ATOM      8  C   UNL d   1      53.195  31.103  53.247  0.00  0.00     0.000 A 
ATOM      9  C   UNL d   1      52.712  31.641  52.850  0.00  0.00     0.002 A 
ENDROOT
BRANCH   1  10
ATOM     10  C   UNL d   1      54.256  34.003  55.001  0.00  0.00     0.235 C 
ATOM     11  O   UNL d   1      55.069  34.018  55.180  0.00  0.00    -0.642 OA
ATOM     12  O   UNL d   1      53.761  34.604  55.277  0.00  0.00    -0.642 OA
ENDBRANCH   1  10
TORSDOF 1
ENDMDL
MODEL 3
REMARK VINA RESULT:      -7.5      1.745      1.997
REMARK  1 active torsions:
REMARK  status: ('A' for Active; 'I' for Inactive)
REMARK    1  A    between atoms: C_4  and  C_1 
ROOT
ATOM      1  C   UNL d   1      52.231  33.524  53.476  0.00  0.00     0.164 A 
ATOM      2  O   UNL d   1      52.491  34.021  54.080  0.00  0.00    -0.301 OA
ATOM      3  C   UNL d   1      52.809  32.954  53.344  0.00  0.00     0.033 A 
ATOM      4  C   UNL d   1      53.234  33.756  54.323  0.00  0.00     0.100 A 
ATOM      5  C   UNL d   1      53.432  33.094  53.866  0.00  0.00     0.025 A 
ATOM      6  C   UNL d   1      53.757  34.028  54.897  0.00  0.00     0.025 A 
ATOM      7  C   UNL d   1      54.151  32.707  53.985  0.00  0.00     0.002 A 
ATOM      8  C   UNL d   1      54.681  32.982  54.567  0.00  0.00     0.000 A 
ATOM      9  C   UNL d   1      54.484  33.642  55.022  0.00  0.00     0.002 A 
ENDROOT
BRANCH   1  10
ATOM     10  C   UNL d   1      51.515  33.595  53.080  0.00  0.00     0.235 C 
ATOM     11  O   UNL d   1      50.840  33.215  53.389  0.00  0.00    -0.642 OA
ATOM     12  O   UNL d   1      51.459  34.035  52.384  0.00  0.00    -0.642 OA
ENDBRANCH   1  10
TORSDOF 1
ENDMDL
MODEL 4
REMARK VINA RESULT:      -7.4      2.088      3.024
REMARK  1 active torsions:
REMARK  status: ('A' for Active; 'I' for Inactive)
REMARK    1  A    between atoms: C_4  and  C_1 
ROOT
ATOM      1  C   UNL d   1      53.846  33.583  54.581  0.00  0.00     0.164 A 
ATOM      2  O   UNL d   1      53.529  34.324  54.405  0.00  0.00    -0.301 OA
ATOM      3  C   UNL d   1      53.456  33.021  54.124  0.00  0.00     0.033 A 
ATOM      4  C   UNL d   1      52.940  34.218  53.836  0.00  0.00     0.100 A 
ATOM      5  C   UNL d   1      52.895  33.409  53.661  0.00  0.00     0.025 A 
ATOM      6  C   UNL d   1      52.440  34.748  53.453  0.00  0.00     0.025 A 
ATOM      7  C   UNL d   1      52.350  33.134  53.105  0.00  0.00     0.002 A 
ATOM      8  C   UNL d   1      51.843  33.671  52.718  0.00  0.00     0.000 A 
ATOM      9  C   UNL d   1      51.888  34.476  52.892  0.00  0.00     0.002 A 
ENDROOT
BRANCH   1  10
ATOM     10  C   UNL d   1      54.448  33.442  55.122  0.00  0.00     0.235 C 
ATOM     11  O   UNL d   1      54.403  32.770  55.612  0.00  0.00    -0.642 OA
ATOM     12  O   UNL d   1      55.090  33.956  55.182  0.00  0.00    -0.642 OA
ENDBRANCH   1  10
TORSDOF 1
ENDMDL
MODEL 5
REMARK VINA RESULT:      -7.4      1.239      1.958
REMARK  1 active torsions:
REMARK  status: ('A' for Active; 'I' for Inactive)
REMARK    1  A    between atoms: C_4  and  C_1 
ROOT
ATOM      1  C   UNL d   1      53.122  30.453  53.540  0.00  0.00     0.164 A 
ATOM      2  O   UNL d   1      53.714  30.838  53.967  0.00  0.00    -0.301 OA
ATOM      3  C   UNL d   1      52.729  31.012  53.083  0.00  0.00     0.033 A 
ATOM      4  C   UNL d   1      53.685  31.640  53.771  0.00  0.00     0.100 A 
ATOM      5  C   UNL d   1      53.073  31.747  53.223  0.00  0.00     0.025 A 
ATOM      6  C   UNL d   1      54.132  32.285  54.018  0.00  0.00     0.025 A 
ATOM      7  C   UNL d   1      52.912  32.500  52.924  0.00  0.00     0.002 A 
ATOM      8  C   UNL d   1      53.365  33.154  53.174  0.00  0.00     0.000 A 
ATOM      9  C   UNL d   1      53.974  33.046  53.721  0.00  0.00     0.002 A 
ENDROOT
BRANCH   1  10
ATOM     10  C   UNL d   1      52.962  29.648  53.574  0.00  0.00     0.235 C 
ATOM     11  O   UNL d   1      53.302  29.191  54.182  0.00  0.00    -0.642 OA
ATOM     12  O   UNL d   1      52.472  29.292  53.014  0.00  0.00    -0.642 OA
ENDBRANCH   1  10
TORSDOF 1
ENDMDL
MODEL 6
REMARK VINA RESULT:      -7.4      1.705      2.166
REMARK  1 active torsions:
REMARK  status: ('A' for Active; 'I' for Inactive)
REMARK    1  A    between atoms: C_4  and  C_1 
ROOT
ATOM      1  C   UNL d   1      52.884  31.910  53.072  0.00  0.00     0.164 A 
ATOM      2  O   UNL d   1      52.234  32.279  52.722  0.00  0.00    -0.301 OA
ATOM      3  C   UNL d   1      53.337  32.486  53.446  0.00  0.00     0.033 A 
ATOM      4  C   UNL d   1      52.286  33.087  52.881  0.00  0.00     0.100 A 
ATOM      5  C   UNL d   1      52.971  33.215  53.331  0.00  0.00     0.025 A 
ATOM      6  C   UNL d   1      51.805  33.723  52.679  0.00  0.00     0.025 A 
ATOM      7  C   UNL d   1      53.170  33.979  53.575  0.00  0.00     0.002 A 
ATOM      8  C   UNL d   1      52.682  34.622  53.369  0.00  0.00     0.000 A 
ATOM      9  C   UNL d   1      52.000  34.494  52.922  0.00  0.00     0.002 A 
ENDROOT
BRANCH   1  10
ATOM     10  C   UNL d   1      53.042  31.104  53.045  0.00  0.00     0.235 C 
ATOM     11  O   UNL d   1      52.898  30.686  52.339  0.00  0.00    -0.642 OA
ATOM     12  O   UNL d   1      53.340  30.710  53.706  0.00  0.00    -0.642 OA
ENDBRANCH   1  10
TORSDOF 1
ENDMDL
