MODEL 1
REMARK VINA RESULT:      -3.6      0.000      0.000
REMARK  3 active torsions:
REMARK  status: ('A' for Active; 'I' for Inactive)
REMARK    1  A    between atoms: C_8  and  C_2 
REMARK    2  A    between atoms: O_11  and  C_8 
REMARK    3  A    between atoms: C_12  and  O_11 
ROOT
ATOM      1  O   UNL d   1      32.890  19.654 -22.174  0.00  0.00    -0.302 OA
ENDROOT
BRANCH   1   2
ATOM      2  C   UNL d   1      32.873  19.411 -22.966  0.00  0.00     0.161 C 
BRANCH   2   3
ATOM      3  C   UNL d   1      32.754  18.615 -23.149  0.00  0.00     0.188 A 
ATOM      4  N   UNL d   1      32.100  18.302 -23.589  0.00  0.00    -0.224 NA
ATOM      5  C   UNL d   1      32.200  17.502 -23.640  0.00  0.00     0.101 A 
ATOM      6  C   UNL d   1      32.922  17.300 -23.230  0.00  0.00     0.101 A 
ATOM      7  C   UNL d   1      31.769  16.877 -23.988  0.00  0.00     0.021 A 
ATOM      8  C   UNL d   1      33.168  16.514 -23.190  0.00  0.00     0.021 A 
ATOM      9  N   UNL d   1      33.240  17.984 -22.942  0.00  0.00    -0.224 NA
ATOM     10  C   UNL d   1      32.717  15.922 -23.546  0.00  0.00     0.002 A 
ATOM     11  C   UNL d   1      32.019  16.116 -23.942  0.00  0.00     0.002 A 
ENDBRANCH   2   3
ENDBRANCH   1   2
BRANCH   1  12
ATOM     12  C   UNL d   1      32.869  20.465 -22.020  0.00  0.00     0.100 A 
ATOM     13  C   UNL d   1      32.520  20.775 -21.365  0.00  0.00     0.025 A 
ATOM     14  C   UNL d   1      32.514  21.590 -21.236  0.00  0.00     0.002 A 
ATOM     15  C   UNL d   1      32.140  21.894 -20.540  0.00  0.00     0.000 A 
ATOM     16  C   UNL d   1      32.856  22.094 -21.760  0.00  0.00     0.000 A 
ATOM     17  C   UNL d   1      32.134  22.709 -20.410  0.00  0.00     0.000 A 
ATOM     18  C   UNL d   1      32.501  23.249 -20.971  0.00  0.00     0.000 A 
ATOM     19  C   UNL d   1      32.850  22.909 -21.630  0.00  0.00     0.000 A 
ATOM     20  C   UNL d   1      33.232  21.791 -22.460  0.00  0.00     0.002 A 
ATOM     21  C   UNL d   1      33.239  20.976 -22.590  0.00  0.00     0.025 A 
ENDBRANCH   1  12
TORSDOF 3
ENDMDL
MODEL 2
REMARK VINA RESULT:      -3.6      1.454      5.086
REMARK  3 active torsions:
REMARK  status: ('A' for Active; 'I' for Inactive)
REMARK    1  A    between atoms: C_8  and  C_2 
REMARK    2  A    between atoms: O_11  and  C_8 
REMARK    3  A    between atoms: C_12  and  O_11 
ROOT
ATOM      1  O   UNL d   1      33.218  20.009 -22.120  0.00  0.00    -0.302 OA
ENDROOT
BRANCH   1   2
ATOM      2  C   UNL d   1      32.525  20.345 -21.812  0.00  0.00     0.161 C 
BRANCH   2   3
ATOM      3  C   UNL d   1      32.573  21.004 -21.317  0.00  0.00     0.188 A 
ATOM      4  N   UNL d   1      32.140  21.726 -21.415  0.00  0.00    -0.224 NA
ATOM      5  C   UNL d   1      32.350  22.221 -20.812  0.00  0.00     0.101 A 
ATOM      6  C   UNL d   1      32.921  21.813 -20.324  0.00  0.00     0.101 A 
ATOM      7  C   UNL d   1      32.136  22.995 -20.585  0.00  0.00     0.021 A 
ATOM      8  C   UNL d   1      33.238  22.187 -19.661  0.00  0.00     0.021 A 
ATOM      9  N   UNL d   1      33.041  21.083 -20.646  0.00  0.00    -0.224 NA
ATOM     10  C   UNL d   1      33.003  22.954 -19.466  0.00  0.00     0.002 A 
ATOM     11  C   UNL d   1      32.451  23.348 -19.938  0.00  0.00     0.002 A 
ENDBRANCH   2   3
ENDBRANCH   1   2
BRANCH   1  12
ATOM     12  C   UNL d   1      33.142  19.457 -22.728  0.00  0.00     0.100 A 
ATOM     13  C   UNL d   1      32.981  18.681 -22.594  0.00  0.00     0.025 A 
ATOM     14  C   UNL d   1      32.909  18.149 -23.221  0.00  0.00     0.002 A 
ATOM     15  C   UNL d   1      32.739  17.336 -23.056  0.00  0.00     0.000 A 
ATOM     16  C   UNL d   1      32.999  18.394 -23.982  0.00  0.00     0.000 A 
ATOM     17  C   UNL d   1      32.668  16.805 -23.683  0.00  0.00     0.000 A 
ATOM     18  C   UNL d   1      32.764  17.067 -24.498  0.00  0.00     0.000 A 
ATOM     19  C   UNL d   1      32.927  17.862 -24.609  0.00  0.00     0.000 A 
ATOM     20  C   UNL d   1      33.170  19.210 -24.150  0.00  0.00     0.002 A 
ATOM     21  C   UNL d   1      33.241  19.742 -23.523  0.00  0.00     0.025 A 
ENDBRANCH   1  12
TORSDOF 3
ENDMDL
MODEL 3
REMARK VINA RESULT:      -3.4      0.835      1.422
REMARK  3 active torsions:
REMARK  status: ('A' for Active; 'I' for Inactive)
REMARK    1  A    between atoms: C_8  and  C_2 
REMARK    2  A    between atoms: O_11  and  C_8 
REMARK    3  A    between atoms: C_12  and  O_11 
ROOT
ATOM      1  O   UNL d   1      32.603  20.170 -21.668  0.00  0.00    -0.302 OA
ENDROOT
BRANCH   1   2
ATOM      2  C   UNL d   1      33.191  19.972 -22.218  0.00  0.00     0.161 C 
BRANCH   2   3
ATOM      3  C   UNL d   1      33.102  19.301 -22.690  0.00  0.00     0.188 A 
ATOM      4  N   UNL d   1      33.241  18.502 -22.443  0.00  0.00    -0.224 NA
ATOM      5  C   UNL d   1      33.089  18.020 -23.074  0.00  0.00     0.101 A 
ATOM      6  C   UNL d   1      32.851  18.514 -23.730  0.00  0.00     0.101 A 
ATOM      7  C   UNL d   1      33.116  17.197 -23.204  0.00  0.00     0.021 A 
ATOM      8  C   UNL d   1      32.660  18.172 -24.455  0.00  0.00     0.021 A 
ATOM      9  N   UNL d   1      32.866  19.281 -23.477  0.00  0.00    -0.224 NA
ATOM     10  C   UNL d   1      32.697  17.353 -24.548  0.00  0.00     0.002 A 
ATOM     11  C   UNL d   1      32.927  16.876 -23.914  0.00  0.00     0.002 A 
ENDBRANCH   2   3
ENDBRANCH   1   2
BRANCH   1  12
ATOM     12  C   UNL d   1      32.689  20.876 -21.249  0.00  0.00     0.100 A 
ATOM     13  C   UNL d   1      32.370  21.571 -21.495  0.00  0.00     0.025 A 
ATOM     14  C   UNL d   1      32.471  22.262 -21.056  0.00  0.00     0.002 A 
ATOM     15  C   UNL d   1      32.126  22.983 -21.335  0.00  0.00     0.000 A 
ATOM     16  C   UNL d   1      32.893  22.259 -20.371  0.00  0.00     0.000 A 
ATOM     17  C   UNL d   1      32.227  23.675 -20.897  0.00  0.00     0.000 A 
ATOM     18  C   UNL d   1      32.679  23.670 -20.163  0.00  0.00     0.000 A 
ATOM     19  C   UNL d   1      32.994  22.950 -19.933  0.00  0.00     0.000 A 
ATOM     20  C   UNL d   1      33.241  21.536 -20.089  0.00  0.00     0.002 A 
ATOM     21  C   UNL d   1      33.139  20.844 -20.528  0.00  0.00     0.025 A 
ENDBRANCH   1  12
TORSDOF 3
ENDMDL
MODEL 4
REMARK VINA RESULT:      -1.6      2.000      3.192
REMARK  3 active torsions:
REMARK  status: ('A' for Active; 'I' for Inactive)
REMARK    1  A    between atoms: C_8  and  C_2 
REMARK    2  A    between atoms: O_11  and  C_8 
REMARK    3  A    between atoms: C_12  and  O_11 
ROOT
ATOM      1  O   UNL d   1      32.438  21.551 -20.351  0.00  0.00    -0.302 OA
ENDROOT
BRANCH   1   2
ATOM      2  C   UNL d   1      33.149  21.346 -20.726  0.00  0.00     0.161 C 
BRANCH   2   3
ATOM      3  C   UNL d   1      33.142  20.818 -21.360  0.00  0.00     0.188 A 
ATOM      4  N   UNL d   1      33.234  21.027 -22.176  0.00  0.00    -0.224 NA
ATOM      5  C   UNL d   1      33.193  20.346 -22.610  0.00  0.00     0.101 A 
ATOM      6  C   UNL d   1      33.074  19.696 -22.068  0.00  0.00     0.101 A 
ATOM      7  C   UNL d   1      33.240  20.163 -23.423  0.00  0.00     0.021 A 
ATOM      8  C   UNL d   1      33.010  18.926 -22.355  0.00  0.00     0.021 A 
ATOM      9  N   UNL d   1      33.046  20.002 -21.321  0.00  0.00    -0.224 NA
ATOM     10  C   UNL d   1      33.061  18.782 -23.166  0.00  0.00     0.002 A 
ATOM     11  C   UNL d   1      33.177  19.410 -23.690  0.00  0.00     0.002 A 
ENDBRANCH   2   3
ENDBRANCH   1   2
BRANCH   1  12
ATOM     12  C   UNL d   1      32.475  22.074 -19.714  0.00  0.00     0.100 A 
ATOM     13  C   UNL d   1      32.823  21.886 -19.015  0.00  0.00     0.025 A 
ATOM     14  C   UNL d   1      32.846  22.428 -18.394  0.00  0.00     0.002 A 
ATOM     15  C   UNL d   1      33.218  22.208 -17.666  0.00  0.00     0.000 A 
ATOM     16  C   UNL d   1      32.521  23.160 -18.472  0.00  0.00     0.000 A 
ATOM     17  C   UNL d   1      33.241  22.751 -17.045  0.00  0.00     0.000 A 
ATOM     18  C   UNL d   1      32.892  23.534 -17.129  0.00  0.00     0.000 A 
ATOM     19  C   UNL d   1      32.543  23.702 -17.851  0.00  0.00     0.000 A 
ATOM     20  C   UNL d   1      32.146  23.383 -19.203  0.00  0.00     0.002 A 
ATOM     21  C   UNL d   1      32.123  22.841 -19.824  0.00  0.00     0.025 A 
ENDBRANCH   1  12
TORSDOF 3
ENDMDL
MODEL 5
REMARK VINA RESULT:      -0.9      2.859      5.687
REMARK  3 active torsions:
REMARK  status: ('A' for Active; 'I' for Inactive)
REMARK    1  A    between atoms: C_8  and  C_2 
REMARK    2  A    between atoms: O_11  and  C_8 
REMARK    3  A    between atoms: C_12  and  O_11 
ROOT
ATOM      1  O   UNL d   1      30.185  17.182 -24.934  0.00  0.00    -0.302 OA
ENDROOT
BRANCH   1   2
ATOM      2  C   UNL d   1      30.928  17.008 -24.611  0.00  0.00     0.161 C 
BRANCH   2   3
ATOM      3  C   UNL d   1      31.468  17.615 -24.472  0.00  0.00     0.188 A 
ATOM      4  N   UNL d   1      31.774  17.839 -23.713  0.00  0.00    -0.224 NA
ATOM      5  C   UNL d   1      32.284  18.456 -23.826  0.00  0.00     0.101 A 
ATOM      6  C   UNL d   1      32.305  18.629 -24.663  0.00  0.00     0.101 A 
ATOM      7  C   UNL d   1      32.759  18.925 -23.326  0.00  0.00     0.021 A 
ATOM      8  C   UNL d   1      32.783  19.238 -24.946  0.00  0.00     0.021 A 
ATOM      9  N   UNL d   1      31.808  18.111 -25.033  0.00  0.00    -0.224 NA
ATOM     10  C   UNL d   1      33.241  19.681 -24.422  0.00  0.00     0.002 A 
ATOM     11  C   UNL d   1      33.220  19.515 -23.614  0.00  0.00     0.002 A 
ENDBRANCH   2   3
ENDBRANCH   1   2
BRANCH   1  12
ATOM     12  C   UNL d   1      29.532  16.765 -24.648  0.00  0.00     0.100 A 
ATOM     13  C   UNL d   1      29.076  17.031 -24.042  0.00  0.00     0.025 A 
ATOM     14  C   UNL d   1      28.429  16.593 -23.776  0.00  0.00     0.002 A 
ATOM     15  C   UNL d   1      27.963  16.893 -23.136  0.00  0.00     0.000 A 
ATOM     16  C   UNL d   1      28.238  15.890 -24.116  0.00  0.00     0.000 A 
ATOM     17  C   UNL d   1      27.317  16.456 -22.870  0.00  0.00     0.000 A 
ATOM     18  C   UNL d   1      27.112  15.703 -23.234  0.00  0.00     0.000 A 
ATOM     19  C   UNL d   1      27.592  15.453 -23.849  0.00  0.00     0.000 A 
ATOM     20  C   UNL d   1      28.705  15.587 -24.759  0.00  0.00     0.002 A 
ATOM     21  C   UNL d   1      29.352  16.024 -25.025  0.00  0.00     0.025 A 
ENDBRANCH   1  12
TORSDOF 3
ENDMDL
