MODEL 1
REMARK VINA RESULT:      22.0      0.000      0.000
REMARK  1 active torsions:
REMARK  status: ('A' for Active; 'I' for Inactive)
REMARK    1  A    between atoms: C_8  and  C_2 
ROOT
ATOM      1  N   UNL d   1     -58.171 -98.756 -45.358  0.00  0.00    -0.191 NA
ATOM      2  C   UNL d   1     -57.972 -98.756 -44.575  0.00  0.00     0.087 A 
ATOM      3  C   UNL d   1     -58.980 -98.756 -45.574  0.00  0.00     0.369 A 
ATOM      4  N   UNL d   1     -59.574 -98.756 -45.001  0.00  0.00    -0.191 NA
ATOM      5  C   UNL d   1     -58.536 -98.756 -43.984  0.00  0.00     0.036 A 
ATOM      6  C   UNL d   1     -59.345 -98.756 -44.199  0.00  0.00     0.088 A 
ATOM      7  O   UNL d   1     -59.210 -98.756 -46.371  0.00  0.00    -0.242 OA
ATOM      8  C   UNL d   1     -58.337 -98.755 -43.201  0.00  0.00     0.003 A 
ATOM      9  C   UNL d   1     -59.939 -98.755 -43.627  0.00  0.00     0.019 A 
ATOM     10  C   UNL d   1     -58.899 -98.755 -42.620  0.00  0.00     0.000 A 
ATOM     11  C   UNL d   1     -59.708 -98.755 -42.835  0.00  0.00     0.002 A 
ENDROOT
BRANCH   2  12
ATOM     12  C   UNL d   1     -57.162 -98.756 -44.360  0.00  0.00     0.018 A 
ATOM     13  C   UNL d   1     -56.600 -98.756 -44.941  0.00  0.00     0.002 A 
ATOM     14  C   UNL d   1     -55.780 -98.756 -44.723  0.00  0.00     0.000 A 
ATOM     15  C   UNL d   1     -55.581 -98.755 -43.939  0.00  0.00     0.000 A 
ATOM     16  C   UNL d   1     -56.146 -98.755 -43.349  0.00  0.00     0.000 A 
ATOM     17  C   UNL d   1     -56.965 -98.755 -43.566  0.00  0.00     0.002 A 
ENDBRANCH   2  12
TORSDOF 1
ENDMDL
