MODEL 1
REMARK VINA RESULT:      -5.3      0.000      0.000
REMARK  4 active torsions:
REMARK  status: ('A' for Active; 'I' for Inactive)
REMARK    1  A    between atoms: N_7  and  S_1 
REMARK    2  A    between atoms: C_11  and  S_1 
REMARK    3  A    between atoms: C_14  and  N_7 
REMARK    4  A    between atoms: C_13  and  C_14 
ROOT
ATOM      1  N   UNL d   1     -41.613-123.046 -54.652  0.00  0.00    -0.304 N 
ATOM      2  C   UNL d   1     -41.878-122.297 -54.888  0.00  0.00     0.064 A 
ATOM      3  C   UNL d   1     -41.475-123.020 -53.835  0.00  0.00     0.064 A 
ATOM      4  C   UNL d   1     -41.653-122.259 -53.572  0.00  0.00     0.018 A 
ATOM      5  C   UNL d   1     -41.900-121.817 -54.219  0.00  0.00     0.019 A 
ATOM      6  C   UNL d   1     -41.210-123.593 -53.305  0.00  0.00     0.018 A 
ATOM      7  C   UNL d   1     -41.566-122.068 -52.769  0.00  0.00     0.003 A 
ATOM      8  C   UNL d   1     -41.301-122.641 -52.240  0.00  0.00     0.020 A 
ATOM      9  C   UNL d   1     -41.123-123.404 -52.509  0.00  0.00     0.003 A 
ATOM     10  C   UNL d   1     -41.507-123.697 -55.137  0.00  0.00     0.099 C 
ATOM     11  C   UNL d   1     -42.079-122.081 -55.659  0.00  0.00     0.019 C 
ENDROOT
BRANCH   8  12
ATOM     12  C   UNL d   1     -41.216-122.445 -51.440  0.00  0.00     0.112 C 
BRANCH  12  13
ATOM     13  N   UNL d   1     -41.762-122.736 -50.887  0.00  0.00    -0.157 NA
BRANCH  13  14
ATOM     14  S   UNL d   1     -41.671-122.562 -50.086  0.00  0.00     0.285 S 
ATOM     15  O   UNL d   1     -41.435-122.242 -49.364  0.00  0.00    -0.198 OA
ATOM     16  O   UNL d   1     -41.150-122.047 -50.477  0.00  0.00    -0.198 OA
BRANCH  14  17
ATOM     17  C   UNL d   1     -42.110-122.971 -49.520  0.00  0.00     0.105 A 
ATOM     18  C   UNL d   1     -41.718-123.404 -48.948  0.00  0.00     0.013 A 
ATOM     19  C   UNL d   1     -42.156-123.816 -48.379  0.00  0.00     0.001 A 
ATOM     20  C   UNL d   1     -42.984-123.786 -48.393  0.00  0.00     0.000 A 
ATOM     21  C   UNL d   1     -43.367-123.346 -48.976  0.00  0.00     0.001 A 
ATOM     22  C   UNL d   1     -42.933-122.939 -49.538  0.00  0.00     0.013 A 
ENDBRANCH  14  17
ENDBRANCH  13  14
ENDBRANCH  12  13
ENDBRANCH   8  12
TORSDOF 4
ENDMDL
MODEL 2
REMARK VINA RESULT:      -2.5      1.250      1.859
REMARK  4 active torsions:
REMARK  status: ('A' for Active; 'I' for Inactive)
REMARK    1  A    between atoms: N_7  and  S_1 
REMARK    2  A    between atoms: C_11  and  S_1 
REMARK    3  A    between atoms: C_14  and  N_7 
REMARK    4  A    between atoms: C_13  and  C_14 
ROOT
ATOM      1  N   UNL d   1     -41.274-122.302 -53.295  0.00  0.00    -0.304 N 
ATOM      2  C   UNL d   1     -41.282-123.010 -53.729  0.00  0.00     0.064 A 
ATOM      3  C   UNL d   1     -41.394-122.493 -52.498  0.00  0.00     0.064 A 
ATOM      4  C   UNL d   1     -41.475-123.312 -52.442  0.00  0.00     0.018 A 
ATOM      5  C   UNL d   1     -41.406-123.626 -53.198  0.00  0.00     0.019 A 
ATOM      6  C   UNL d   1     -41.438-122.023 -51.823  0.00  0.00     0.018 A 
ATOM      7  C   UNL d   1     -41.601-123.665 -51.702  0.00  0.00     0.003 A 
ATOM      8  C   UNL d   1     -41.646-123.195 -51.028  0.00  0.00     0.020 A 
ATOM      9  C   UNL d   1     -41.564-122.372 -51.088  0.00  0.00     0.003 A 
ATOM     10  C   UNL d   1     -41.167-121.550 -53.599  0.00  0.00     0.099 C 
ATOM     11  C   UNL d   1     -41.183-123.071 -54.546  0.00  0.00     0.019 C 
ENDROOT
BRANCH   8  12
ATOM     12  C   UNL d   1     -41.772-123.553 -50.292  0.00  0.00     0.112 C 
BRANCH  12  13
ATOM     13  N   UNL d   1     -41.922-123.079 -49.626  0.00  0.00    -0.157 NA
BRANCH  13  14
ATOM     14  S   UNL d   1     -42.324-123.393 -48.979  0.00  0.00     0.285 S 
ATOM     15  O   UNL d   1     -42.845-123.802 -48.488  0.00  0.00    -0.198 OA
ATOM     16  O   UNL d   1     -42.713-123.703 -49.643  0.00  0.00    -0.198 OA
BRANCH  14  17
ATOM     17  C   UNL d   1     -42.087-123.202 -48.211  0.00  0.00     0.105 A 
ATOM     18  C   UNL d   1     -41.362-123.465 -47.940  0.00  0.00     0.013 A 
ATOM     19  C   UNL d   1     -41.123-123.275 -47.171  0.00  0.00     0.001 A 
ATOM     20  C   UNL d   1     -41.618-122.822 -46.684  0.00  0.00     0.000 A 
ATOM     21  C   UNL d   1     -42.346-122.563 -46.970  0.00  0.00     0.001 A 
ATOM     22  C   UNL d   1     -42.582-122.752 -47.731  0.00  0.00     0.013 A 
ENDBRANCH  14  17
ENDBRANCH  13  14
ENDBRANCH  12  13
ENDBRANCH   8  12
TORSDOF 4
ENDMDL
