MODEL 1
REMARK VINA RESULT:      -9.6      0.000      0.000
REMARK  3 active torsions:
REMARK  status: ('A' for Active; 'I' for Inactive)
REMARK    1  A    between atoms: C_2  and  S_1 
REMARK    2  A    between atoms: N_3  and  S_1 
REMARK    3  A    between atoms: C_8  and  N_3 
ROOT
ATOM      1  S   UNL d   1      53.855  32.286  54.408  0.00  0.00     0.327 S 
ATOM      2  O   UNL d   1      54.356  32.313  53.748  0.00  0.00    -0.186 OA
ATOM      3  O   UNL d   1      53.357  32.260  55.065  0.00  0.00    -0.186 OA
ENDROOT
BRANCH   1   4
ATOM      4  C   UNL d   1      54.065  33.060  54.598  0.00  0.00     0.116 A 
ATOM      5  C   UNL d   1      53.602  33.689  54.338  0.00  0.00     0.013 A 
ATOM      6  C   UNL d   1      53.814  34.471  54.531  0.00  0.00     0.001 A 
ATOM      7  C   UNL d   1      52.924  33.554  53.885  0.00  0.00     0.001 A 
ATOM      8  C   UNL d   1      53.351  35.101  54.271  0.00  0.00     0.000 A 
ATOM      9  C   UNL d   1      54.487  34.618  54.982  0.00  0.00     0.000 A 
ATOM     10  C   UNL d   1      52.678  34.954  53.820  0.00  0.00     0.000 A 
ATOM     11  C   UNL d   1      52.461  34.183  53.625  0.00  0.00     0.000 A 
ATOM     12  C   UNL d   1      54.954  33.987  55.244  0.00  0.00     0.001 A 
ATOM     13  C   UNL d   1      54.742  33.205  55.052  0.00  0.00     0.014 A 
ENDBRANCH   1   4
BRANCH   1  14
ATOM     14  N   UNL d   1      53.645  31.512  54.217  0.00  0.00    -0.318 NA
BRANCH  14  15
ATOM     15  C   UNL d   1      53.435  30.737  54.026  0.00  0.00     0.141 A 
ATOM     16  C   UNL d   1      53.144  30.558  53.285  0.00  0.00     0.028 A 
ATOM     17  C   UNL d   1      52.936  29.791  53.096  0.00  0.00     0.101 A 
ATOM     18  C   UNL d   1      52.720  30.041  52.340  0.00  0.00     0.029 C 
ATOM     19  C   UNL d   1      52.633  29.419  52.422  0.00  0.00     0.029 C 
ATOM     20  N   UNL d   1      53.020  29.193  53.654  0.00  0.00    -0.295 NA
ATOM     21  C   UNL d   1      53.313  29.367  54.404  0.00  0.00     0.101 A 
ATOM     22  C   UNL d   1      53.523  30.142  54.594  0.00  0.00     0.028 A 
ATOM     23  C   UNL d   1      53.532  29.127  55.162  0.00  0.00     0.029 C 
ATOM     24  C   UNL d   1      53.319  28.645  54.807  0.00  0.00     0.029 C 
ENDBRANCH  14  15
ENDBRANCH   1  14
TORSDOF 3
ENDMDL
MODEL 2
REMARK VINA RESULT:      -9.4      3.387      5.249
REMARK  3 active torsions:
REMARK  status: ('A' for Active; 'I' for Inactive)
REMARK    1  A    between atoms: C_2  and  S_1 
REMARK    2  A    between atoms: N_3  and  S_1 
REMARK    3  A    between atoms: C_8  and  N_3 
ROOT
ATOM      1  S   UNL d   1      51.121  33.885  52.827  0.00  0.00     0.327 S 
ATOM      2  O   UNL d   1      51.507  34.262  52.199  0.00  0.00    -0.186 OA
ATOM      3  O   UNL d   1      50.736  33.509  53.453  0.00  0.00    -0.186 OA
ENDROOT
BRANCH   1   4
ATOM      4  C   UNL d   1      51.829  33.526  53.048  0.00  0.00     0.116 A 
ATOM      5  C   UNL d   1      52.374  33.937  53.509  0.00  0.00     0.013 A 
ATOM      6  C   UNL d   1      53.090  33.574  53.731  0.00  0.00     0.001 A 
ATOM      7  C   UNL d   1      52.219  34.710  53.755  0.00  0.00     0.001 A 
ATOM      8  C   UNL d   1      53.635  33.985  54.193  0.00  0.00     0.000 A 
ATOM      9  C   UNL d   1      53.256  32.804  53.492  0.00  0.00     0.000 A 
ATOM     10  C   UNL d   1      53.469  34.755  54.433  0.00  0.00     0.000 A 
ATOM     11  C   UNL d   1      52.763  35.122  54.216  0.00  0.00     0.000 A 
ATOM     12  C   UNL d   1      52.710  32.390  53.028  0.00  0.00     0.001 A 
ATOM     13  C   UNL d   1      51.993  32.752  52.805  0.00  0.00     0.014 A 
ENDBRANCH   1   4
BRANCH   1  14
ATOM     14  N   UNL d   1      50.412  34.243  52.607  0.00  0.00    -0.318 NA
BRANCH  14  15
ATOM     15  C   UNL d   1      49.702  34.602  52.386  0.00  0.00     0.141 A 
ATOM     16  C   UNL d   1      49.307  35.091  52.907  0.00  0.00     0.028 A 
ATOM     17  C   UNL d   1      48.604  35.446  52.688  0.00  0.00     0.101 A 
ATOM     18  C   UNL d   1      48.561  35.806  53.430  0.00  0.00     0.029 C 
ATOM     19  C   UNL d   1      48.069  35.957  53.060  0.00  0.00     0.029 C 
ATOM     20  N   UNL d   1      48.291  35.313  51.939  0.00  0.00    -0.295 NA
ATOM     21  C   UNL d   1      48.686  34.821  51.410  0.00  0.00     0.101 A 
ATOM     22  C   UNL d   1      49.395  34.462  51.631  0.00  0.00     0.028 A 
ATOM     23  C   UNL d   1      48.737  34.457  50.672  0.00  0.00     0.029 C 
ATOM     24  C   UNL d   1      48.218  34.817  50.728  0.00  0.00     0.029 C 
ENDBRANCH  14  15
ENDBRANCH   1  14
TORSDOF 3
ENDMDL
MODEL 3
REMARK VINA RESULT:      -9.4      3.393      5.166
REMARK  3 active torsions:
REMARK  status: ('A' for Active; 'I' for Inactive)
REMARK    1  A    between atoms: C_2  and  S_1 
REMARK    2  A    between atoms: N_3  and  S_1 
REMARK    3  A    between atoms: C_8  and  N_3 
ROOT
ATOM      1  S   UNL d   1      51.116  33.890  52.819  0.00  0.00     0.327 S 
ATOM      2  O   UNL d   1      50.727  33.507  53.442  0.00  0.00    -0.186 OA
ATOM      3  O   UNL d   1      51.503  34.272  52.198  0.00  0.00    -0.186 OA
ENDROOT
BRANCH   1   4
ATOM      4  C   UNL d   1      51.825  33.534  53.041  0.00  0.00     0.116 A 
ATOM      5  C   UNL d   1      52.369  33.947  53.501  0.00  0.00     0.013 A 
ATOM      6  C   UNL d   1      53.085  33.586  53.726  0.00  0.00     0.001 A 
ATOM      7  C   UNL d   1      52.212  34.721  53.744  0.00  0.00     0.001 A 
ATOM      8  C   UNL d   1      53.629  34.000  54.186  0.00  0.00     0.000 A 
ATOM      9  C   UNL d   1      53.252  32.816  53.489  0.00  0.00     0.000 A 
ATOM     10  C   UNL d   1      53.462  34.771  54.423  0.00  0.00     0.000 A 
ATOM     11  C   UNL d   1      52.755  35.135  54.204  0.00  0.00     0.000 A 
ATOM     12  C   UNL d   1      52.707  32.398  53.027  0.00  0.00     0.001 A 
ATOM     13  C   UNL d   1      51.990  32.759  52.802  0.00  0.00     0.014 A 
ENDBRANCH   1   4
BRANCH   1  14
ATOM     14  N   UNL d   1      50.407  34.247  52.596  0.00  0.00    -0.318 NA
BRANCH  14  15
ATOM     15  C   UNL d   1      49.697  34.604  52.373  0.00  0.00     0.141 A 
ATOM     16  C   UNL d   1      49.385  34.474  51.630  0.00  0.00     0.028 A 
ATOM     17  C   UNL d   1      48.682  34.827  51.410  0.00  0.00     0.101 A 
ATOM     18  C   UNL d   1      48.736  34.463  50.672  0.00  0.00     0.029 C 
ATOM     19  C   UNL d   1      48.216  34.821  50.725  0.00  0.00     0.029 C 
ATOM     20  N   UNL d   1      48.284  35.318  51.937  0.00  0.00    -0.295 NA
ATOM     21  C   UNL d   1      48.596  35.453  52.687  0.00  0.00     0.101 A 
ATOM     22  C   UNL d   1      49.305  35.096  52.910  0.00  0.00     0.028 A 
ATOM     23  C   UNL d   1      48.550  35.813  53.428  0.00  0.00     0.029 C 
ATOM     24  C   UNL d   1      48.059  35.963  53.056  0.00  0.00     0.029 C 
ENDBRANCH  14  15
ENDBRANCH   1  14
TORSDOF 3
ENDMDL
MODEL 4
REMARK VINA RESULT:      -9.1      0.903      4.582
REMARK  3 active torsions:
REMARK  status: ('A' for Active; 'I' for Inactive)
REMARK    1  A    between atoms: C_2  and  S_1 
REMARK    2  A    between atoms: N_3  and  S_1 
REMARK    3  A    between atoms: C_8  and  N_3 
ROOT
ATOM      1  S   UNL d   1      53.344  31.598  53.671  0.00  0.00     0.327 S 
ATOM      2  O   UNL d   1      54.136  31.501  53.446  0.00  0.00    -0.186 OA
ATOM      3  O   UNL d   1      52.556  31.694  53.895  0.00  0.00    -0.186 OA
ENDROOT
BRANCH   1   4
ATOM      4  C   UNL d   1      53.173  30.840  53.396  0.00  0.00     0.116 A 
ATOM      5  C   UNL d   1      53.217  30.196  53.906  0.00  0.00     0.013 A 
ATOM      6  C   UNL d   1      53.045  29.430  53.627  0.00  0.00     0.001 A 
ATOM      7  C   UNL d   1      53.433  30.299  54.697  0.00  0.00     0.001 A 
ATOM      8  C   UNL d   1      53.089  28.785  54.138  0.00  0.00     0.000 A 
ATOM      9  C   UNL d   1      52.829  29.315  52.841  0.00  0.00     0.000 A 
ATOM     10  C   UNL d   1      53.305  28.900  54.924  0.00  0.00     0.000 A 
ATOM     11  C   UNL d   1      53.477  29.655  55.208  0.00  0.00     0.000 A 
ATOM     12  C   UNL d   1      52.784  29.961  52.327  0.00  0.00     0.001 A 
ATOM     13  C   UNL d   1      52.957  30.727  52.605  0.00  0.00     0.014 A 
ENDBRANCH   1   4
BRANCH   1  14
ATOM     14  N   UNL d   1      53.515  32.356  53.947  0.00  0.00    -0.318 NA
BRANCH  14  15
ATOM     15  C   UNL d   1      53.686  33.115  54.222  0.00  0.00     0.141 A 
ATOM     16  C   UNL d   1      54.326  33.241  54.713  0.00  0.00     0.028 A 
ATOM     17  C   UNL d   1      54.495  33.992  54.986  0.00  0.00     0.101 A 
ATOM     18  C   UNL d   1      55.143  33.691  55.399  0.00  0.00     0.029 C 
ATOM     19  C   UNL d   1      55.078  34.317  55.476  0.00  0.00     0.029 C 
ATOM     20  N   UNL d   1      54.020  34.627  54.767  0.00  0.00    -0.295 NA
ATOM     21  C   UNL d   1      53.374  34.505  54.271  0.00  0.00     0.101 A 
ATOM     22  C   UNL d   1      53.203  33.747  53.996  0.00  0.00     0.028 A 
ATOM     23  C   UNL d   1      52.724  34.797  53.856  0.00  0.00     0.029 C 
ATOM     24  C   UNL d   1      53.033  35.252  54.172  0.00  0.00     0.029 C 
ENDBRANCH  14  15
ENDBRANCH   1  14
TORSDOF 3
ENDMDL
MODEL 5
REMARK VINA RESULT:      -7.9      3.025      4.618
REMARK  3 active torsions:
REMARK  status: ('A' for Active; 'I' for Inactive)
REMARK    1  A    between atoms: C_2  and  S_1 
REMARK    2  A    between atoms: N_3  and  S_1 
REMARK    3  A    between atoms: C_8  and  N_3 
ROOT
ATOM      1  S   UNL d   1      50.725  34.086  52.519  0.00  0.00     0.327 S 
ATOM      2  O   UNL d   1      51.170  34.637  52.087  0.00  0.00    -0.186 OA
ATOM      3  O   UNL d   1      50.282  33.538  52.948  0.00  0.00    -0.186 OA
ENDROOT
BRANCH   1   4
ATOM      4  C   UNL d   1      50.044  34.325  52.121  0.00  0.00     0.116 A 
ATOM      5  C   UNL d   1      49.498  34.815  52.494  0.00  0.00     0.013 A 
ATOM      6  C   UNL d   1      48.810  35.056  52.091  0.00  0.00     0.001 A 
ATOM      7  C   UNL d   1      49.624  35.073  53.268  0.00  0.00     0.001 A 
ATOM      8  C   UNL d   1      48.263  35.547  52.465  0.00  0.00     0.000 A 
ATOM      9  C   UNL d   1      48.673  34.805  51.319  0.00  0.00     0.000 A 
ATOM     10  C   UNL d   1      48.400  35.797  53.237  0.00  0.00     0.000 A 
ATOM     11  C   UNL d   1      49.079  35.563  53.643  0.00  0.00     0.000 A 
ATOM     12  C   UNL d   1      49.221  34.313  50.942  0.00  0.00     0.001 A 
ATOM     13  C   UNL d   1      49.909  34.071  51.345  0.00  0.00     0.014 A 
ENDBRANCH   1   4
BRANCH   1  14
ATOM     14  N   UNL d   1      51.407  33.847  52.917  0.00  0.00    -0.318 NA
BRANCH  14  15
ATOM     15  C   UNL d   1      52.088  33.608  53.316  0.00  0.00     0.141 A 
ATOM     16  C   UNL d   1      52.440  34.099  53.864  0.00  0.00     0.028 A 
ATOM     17  C   UNL d   1      53.115  33.863  54.259  0.00  0.00     0.101 A 
ATOM     18  C   UNL d   1      53.122  34.580  54.666  0.00  0.00     0.029 C 
ATOM     19  C   UNL d   1      53.605  34.204  54.832  0.00  0.00     0.029 C 
ATOM     20  N   UNL d   1      53.445  33.125  54.105  0.00  0.00    -0.295 NA
ATOM     21  C   UNL d   1      53.094  32.626  53.552  0.00  0.00     0.101 A 
ATOM     22  C   UNL d   1      52.413  32.865  53.153  0.00  0.00     0.028 A 
ATOM     23  C   UNL d   1      53.078  31.911  53.140  0.00  0.00     0.029 C 
ATOM     24  C   UNL d   1      53.568  31.947  53.542  0.00  0.00     0.029 C 
ENDBRANCH  14  15
ENDBRANCH   1  14
TORSDOF 3
ENDMDL
