MODEL 1
REMARK VINA RESULT:      -4.2      0.000      0.000
REMARK  7 active torsions:
REMARK  status: ('A' for Active; 'I' for Inactive)
REMARK    1  A    between atoms: C_6  and  N_1 
REMARK    2  A    between atoms: C_7  and  C_6 
REMARK    3  A    between atoms: O_10  and  C_7 
REMARK    4  A    between atoms: C_13  and  O_10 
REMARK    5  A    between atoms: C_14  and  C_13 
REMARK    6  A    between atoms: C_16  and  C_14 
REMARK    7  A    between atoms: C_15  and  C_16 
ROOT
ATOM      1  N   UNL d   1      59.192  -0.944  29.160  0.00  0.00    -0.246 N 
ATOM      2  C   UNL d   1      59.918  -0.557  29.032  0.00  0.00     0.378 A 
ATOM      3  O   UNL d   1      60.491  -1.134  28.863  0.00  0.00    -0.258 OA
ATOM      4  C   UNL d   1      59.321  -1.756  29.071  0.00  0.00     0.092 A 
ATOM      5  C   UNL d   1      60.123  -1.872  28.887  0.00  0.00     0.121 A 
ATOM      6  O   UNL d   1      60.034   0.257  29.068  0.00  0.00    -0.237 OA
ATOM      7  C   UNL d   1      58.811  -2.406  29.132  0.00  0.00     0.020 A 
ATOM      8  C   UNL d   1      60.407  -2.645  28.767  0.00  0.00     0.026 A 
ATOM      9  C   UNL d   1      59.105  -3.168  29.011  0.00  0.00     0.002 A 
ATOM     10  C   UNL d   1      59.898  -3.286  28.829  0.00  0.00     0.002 A 
ENDROOT
BRANCH   1  11
ATOM     11  C   UNL d   1      58.455  -0.620  29.345  0.00  0.00     0.154 C 
BRANCH  11  12
ATOM     12  C   UNL d   1      58.340  -0.255  30.067  0.00  0.00     0.318 C 
ATOM     13  O   UNL d   1      58.796   0.401  30.278  0.00  0.00    -0.257 OA
BRANCH  12  14
ATOM     14  O   UNL d   1      57.768  -0.542  30.587  0.00  0.00    -0.270 OA
BRANCH  14  15
ATOM     15  C   UNL d   1      57.322  -0.222  31.201  0.00  0.00     0.126 C 
BRANCH  15  16
ATOM     16  C   UNL d   1      56.873  -0.710  31.687  0.00  0.00     0.027 C 
BRANCH  16  17
ATOM     17  C   UNL d   1      56.470  -0.400  32.337  0.00  0.00     0.002 C 
BRANCH  17  18
ATOM     18  C   UNL d   1      55.972  -0.878  32.783  0.00  0.00     0.000 C 
ATOM     19  C   UNL d   1      55.468  -0.540  33.335  0.00  0.00     0.000 C 
ENDBRANCH  17  18
ENDBRANCH  16  17
ENDBRANCH  15  16
ENDBRANCH  14  15
ENDBRANCH  12  14
ENDBRANCH  11  12
ENDBRANCH   1  11
TORSDOF 7
ENDMDL
MODEL 2
REMARK VINA RESULT:      -3.6      1.400      4.714
REMARK  7 active torsions:
REMARK  status: ('A' for Active; 'I' for Inactive)
REMARK    1  A    between atoms: C_6  and  N_1 
REMARK    2  A    between atoms: C_7  and  C_6 
REMARK    3  A    between atoms: O_10  and  C_7 
REMARK    4  A    between atoms: C_13  and  O_10 
REMARK    5  A    between atoms: C_14  and  C_13 
REMARK    6  A    between atoms: C_16  and  C_14 
REMARK    7  A    between atoms: C_15  and  C_16 
ROOT
ATOM      1  N   UNL d   1      57.274  -0.071  32.193  0.00  0.00    -0.246 N 
ATOM      2  C   UNL d   1      57.786   0.448  32.595  0.00  0.00     0.378 A 
ATOM      3  O   UNL d   1      57.415   0.682  33.300  0.00  0.00    -0.258 OA
ATOM      4  C   UNL d   1      56.591  -0.155  32.652  0.00  0.00     0.092 A 
ATOM      5  C   UNL d   1      56.679   0.311  33.335  0.00  0.00     0.121 A 
ATOM      6  O   UNL d   1      58.529   0.682  32.329  0.00  0.00    -0.237 OA
ATOM      7  C   UNL d   1      55.898  -0.594  32.536  0.00  0.00     0.020 A 
ATOM      8  C   UNL d   1      56.067   0.329  33.898  0.00  0.00     0.026 A 
ATOM      9  C   UNL d   1      55.299  -0.568  33.102  0.00  0.00     0.002 A 
ATOM     10  C   UNL d   1      55.383  -0.109  33.779  0.00  0.00     0.002 A 
ENDROOT
BRANCH   1  11
ATOM     11  C   UNL d   1      57.384  -0.454  31.470  0.00  0.00     0.154 C 
BRANCH  11  12
ATOM     12  C   UNL d   1      57.560  -0.020  30.801  0.00  0.00     0.318 C 
ATOM     13  O   UNL d   1      57.114   0.649  30.611  0.00  0.00    -0.257 OA
BRANCH  12  14
ATOM     14  O   UNL d   1      58.185  -0.249  30.314  0.00  0.00    -0.270 OA
BRANCH  14  15
ATOM     15  C   UNL d   1      58.251  -0.654  29.599  0.00  0.00     0.126 C 
BRANCH  15  16
ATOM     16  C   UNL d   1      58.891  -1.151  29.462  0.00  0.00     0.027 C 
BRANCH  16  17
ATOM     17  C   UNL d   1      58.867  -1.709  28.855  0.00  0.00     0.002 C 
BRANCH  17  18
ATOM     18  C   UNL d   1      59.427  -2.310  28.821  0.00  0.00     0.000 C 
ATOM     19  C   UNL d   1      59.203  -3.065  28.588  0.00  0.00     0.000 C 
ENDBRANCH  17  18
ENDBRANCH  16  17
ENDBRANCH  15  16
ENDBRANCH  14  15
ENDBRANCH  12  14
ENDBRANCH  11  12
ENDBRANCH   1  11
TORSDOF 7
ENDMDL
MODEL 3
REMARK VINA RESULT:      -3.6      2.290      5.442
REMARK  7 active torsions:
REMARK  status: ('A' for Active; 'I' for Inactive)
REMARK    1  A    between atoms: C_6  and  N_1 
REMARK    2  A    between atoms: C_7  and  C_6 
REMARK    3  A    between atoms: O_10  and  C_7 
REMARK    4  A    between atoms: C_13  and  O_10 
REMARK    5  A    between atoms: C_14  and  C_13 
REMARK    6  A    between atoms: C_16  and  C_14 
REMARK    7  A    between atoms: C_15  and  C_16 
ROOT
ATOM      1  N   UNL d   1      56.670   0.670  32.982  0.00  0.00    -0.246 N 
ATOM      2  C   UNL d   1      57.340   0.677  33.478  0.00  0.00     0.378 A 
ATOM      3  O   UNL d   1      57.078   0.682  34.265  0.00  0.00    -0.258 OA
ATOM      4  C   UNL d   1      56.000   0.670  33.467  0.00  0.00     0.092 A 
ATOM      5  C   UNL d   1      56.253   0.677  34.258  0.00  0.00     0.121 A 
ATOM      6  O   UNL d   1      58.121   0.679  33.218  0.00  0.00    -0.237 OA
ATOM      7  C   UNL d   1      55.191   0.664  33.290  0.00  0.00     0.020 A 
ATOM      8  C   UNL d   1      55.687   0.679  34.868  0.00  0.00     0.026 A 
ATOM      9  C   UNL d   1      54.639   0.666  33.904  0.00  0.00     0.002 A 
ATOM     10  C   UNL d   1      54.886   0.673  34.688  0.00  0.00     0.002 A 
ENDROOT
BRANCH   1  11
ATOM     11  C   UNL d   1      56.633   0.663  32.158  0.00  0.00     0.154 C 
BRANCH  11  12
ATOM     12  C   UNL d   1      56.941   0.031  31.741  0.00  0.00     0.318 C 
ATOM     13  O   UNL d   1      56.653  -0.732  31.872  0.00  0.00    -0.257 OA
BRANCH  12  14
ATOM     14  O   UNL d   1      57.541   0.155  31.189  0.00  0.00    -0.270 OA
BRANCH  14  15
ATOM     15  C   UNL d   1      57.781  -0.214  30.492  0.00  0.00     0.126 C 
BRANCH  15  16
ATOM     16  C   UNL d   1      58.237   0.192  29.943  0.00  0.00     0.027 C 
BRANCH  16  17
ATOM     17  C   UNL d   1      58.866  -0.181  29.561  0.00  0.00     0.002 C 
BRANCH  17  18
ATOM     18  C   UNL d   1      59.500   0.259  29.279  0.00  0.00     0.000 C 
ATOM     19  C   UNL d   1      59.924  -0.006  28.627  0.00  0.00     0.000 C 
ENDBRANCH  17  18
ENDBRANCH  16  17
ENDBRANCH  15  16
ENDBRANCH  14  15
ENDBRANCH  12  14
ENDBRANCH  11  12
ENDBRANCH   1  11
TORSDOF 7
ENDMDL
MODEL 4
REMARK VINA RESULT:      -3.6      1.919      2.203
REMARK  7 active torsions:
REMARK  status: ('A' for Active; 'I' for Inactive)
REMARK    1  A    between atoms: C_6  and  N_1 
REMARK    2  A    between atoms: C_7  and  C_6 
REMARK    3  A    between atoms: O_10  and  C_7 
REMARK    4  A    between atoms: C_13  and  O_10 
REMARK    5  A    between atoms: C_14  and  C_13 
REMARK    6  A    between atoms: C_16  and  C_14 
REMARK    7  A    between atoms: C_15  and  C_16 
ROOT
ATOM      1  N   UNL d   1      58.614   0.541  29.792  0.00  0.00    -0.246 N 
ATOM      2  C   UNL d   1      58.195   0.561  29.073  0.00  0.00     0.378 A 
ATOM      3  O   UNL d   1      58.738   0.449  28.455  0.00  0.00    -0.258 OA
ATOM      4  C   UNL d   1      59.412   0.416  29.615  0.00  0.00     0.092 A 
ATOM      5  C   UNL d   1      59.487   0.359  28.789  0.00  0.00     0.121 A 
ATOM      6  O   UNL d   1      57.383   0.675  29.000  0.00  0.00    -0.237 OA
ATOM      7  C   UNL d   1      60.081   0.346  30.098  0.00  0.00     0.020 A 
ATOM      8  C   UNL d   1      60.239   0.232  28.455  0.00  0.00     0.026 A 
ATOM      9  C   UNL d   1      60.821   0.220  29.755  0.00  0.00     0.002 A 
ATOM     10  C   UNL d   1      60.899   0.164  28.938  0.00  0.00     0.002 A 
ENDROOT
BRANCH   1  11
ATOM     11  C   UNL d   1      58.329   0.624  30.563  0.00  0.00     0.154 C 
BRANCH  11  12
ATOM     12  C   UNL d   1      57.792   0.084  30.859  0.00  0.00     0.318 C 
ATOM     13  O   UNL d   1      57.687  -0.645  30.485  0.00  0.00    -0.257 OA
BRANCH  12  14
ATOM     14  O   UNL d   1      57.355   0.266  31.535  0.00  0.00    -0.270 OA
BRANCH  14  15
ATOM     15  C   UNL d   1      56.811  -0.135  32.005  0.00  0.00     0.126 C 
BRANCH  15  16
ATOM     16  C   UNL d   1      56.350   0.275  32.548  0.00  0.00     0.027 C 
BRANCH  16  17
ATOM     17  C   UNL d   1      55.708  -0.090  32.915  0.00  0.00     0.002 C 
BRANCH  17  18
ATOM     18  C   UNL d   1      55.607  -0.033  33.728  0.00  0.00     0.000 C 
ATOM     19  C   UNL d   1      54.910   0.275  34.033  0.00  0.00     0.000 C 
ENDBRANCH  17  18
ENDBRANCH  16  17
ENDBRANCH  15  16
ENDBRANCH  14  15
ENDBRANCH  12  14
ENDBRANCH  11  12
ENDBRANCH   1  11
TORSDOF 7
ENDMDL
