MODEL 1
REMARK VINA RESULT:      45.0      0.000      0.000
REMARK  6 active torsions:
REMARK  status: ('A' for Active; 'I' for Inactive)
REMARK    1  A    between atoms: S_2  and  C_1 
REMARK    2  A    between atoms: C_7  and  S_2 
REMARK    3  A    between atoms: N_10  and  C_6 
REMARK    4  A    between atoms: C_18  and  N_10 
REMARK    5  A    between atoms: N_14  and  C_19 
REMARK    6  A    between atoms: C_19  and  C_18 
ROOT
ATOM      1  C   UNL d   1     -51.234  25.224  33.666  0.00  0.00     0.187 A 
ATOM      2  N   UNL d   1     -51.155  25.985  33.870  0.00  0.00    -0.208 NA
ATOM      3  C   UNL d   1     -50.507  24.926  33.539  0.00  0.00     0.118 A 
ATOM      4  S   UNL d   1     -49.979  25.509  33.665  0.00  0.00    -0.035 SA
ATOM      5  C   UNL d   1     -50.380  26.166  33.871  0.00  0.00     0.196 A 
ATOM      6 CL   UNL d   1     -50.331  24.156  33.316  0.00  0.00    -0.073 Cl
ENDROOT
BRANCH   1   7
ATOM      7  S   UNL d   1     -51.938  24.812  33.598  0.00  0.00     0.228 S 
ATOM      8  O   UNL d   1     -51.562  23.965  33.815  0.00  0.00    -0.216 OA
ATOM      9  O   UNL d   1     -52.354  25.623  33.380  0.00  0.00    -0.216 OA
BRANCH   7  10
ATOM     10  C   UNL d   1     -52.653  24.415  33.525  0.00  0.00     0.089 A 
ATOM     11  C   UNL d   1     -52.663  23.594  33.449  0.00  0.00     0.011 A 
ATOM     12  C   UNL d   1     -53.377  23.193  33.376  0.00  0.00     0.001 A 
ATOM     13  C   UNL d   1     -54.086  23.616  33.379  0.00  0.00     0.000 A 
ATOM     14  C   UNL d   1     -54.081  24.441  33.456  0.00  0.00     0.001 A 
ATOM     15  C   UNL d   1     -54.804  23.214  33.306  0.00  0.00     0.000 C 
ATOM     16  C   UNL d   1     -53.357  24.836  33.529  0.00  0.00     0.011 A 
ENDBRANCH   7  10
ENDBRANCH   1   7
BRANCH   5  17
ATOM     17  N   UNL d   1     -50.049  26.898  34.051  0.00  0.00    -0.218 NA
BRANCH  17  18
ATOM     18  C   UNL d   1     -49.397  26.942  34.533  0.00  0.00     0.120 C 
BRANCH  18  19
ATOM     19  C   UNL d   1     -48.784  27.479  34.361  0.00  0.00     0.101 C 
BRANCH  19  20
ATOM     20  N   UNL d   1     -48.602  28.083  34.893  0.00  0.00    -0.299 N 
ATOM     21  C   UNL d   1     -47.973  28.585  34.748  0.00  0.00     0.100 C 
ATOM     22  C   UNL d   1     -49.056  28.182  35.573  0.00  0.00     0.100 C 
ENDBRANCH  19  20
ENDBRANCH  18  19
ENDBRANCH  17  18
ENDBRANCH   5  17
TORSDOF 6
ENDMDL
MODEL 2
REMARK VINA RESULT:      46.3      1.418      2.116
REMARK  6 active torsions:
REMARK  status: ('A' for Active; 'I' for Inactive)
REMARK    1  A    between atoms: S_2  and  C_1 
REMARK    2  A    between atoms: C_7  and  S_2 
REMARK    3  A    between atoms: N_10  and  C_6 
REMARK    4  A    between atoms: C_18  and  N_10 
REMARK    5  A    between atoms: N_14  and  C_19 
REMARK    6  A    between atoms: C_19  and  C_18 
ROOT
ATOM      1  C   UNL d   1     -50.554  26.806  33.867  0.00  0.00     0.187 A 
ATOM      2  N   UNL d   1     -49.784  26.894  34.033  0.00  0.00    -0.208 NA
ATOM      3  C   UNL d   1     -50.880  27.531  33.817  0.00  0.00     0.118 A 
ATOM      4  S   UNL d   1     -50.306  28.066  33.955  0.00  0.00    -0.035 SA
ATOM      5  C   UNL d   1     -49.626  27.671  34.089  0.00  0.00     0.196 A 
ATOM      6 CL   UNL d   1     -51.667  27.697  33.654  0.00  0.00    -0.073 Cl
ENDROOT
BRANCH   1   7
ATOM      7  S   UNL d   1     -50.948  26.096  33.763  0.00  0.00     0.228 S 
ATOM      8  O   UNL d   1     -51.758  26.389  34.168  0.00  0.00    -0.216 OA
ATOM      9  O   UNL d   1     -50.173  25.761  33.356  0.00  0.00    -0.216 OA
BRANCH   7  10
ATOM     10  C   UNL d   1     -51.328  25.377  33.650  0.00  0.00     0.089 A 
ATOM     11  C   UNL d   1     -52.148  25.328  33.724  0.00  0.00     0.011 A 
ATOM     12  C   UNL d   1     -52.533  24.610  33.612  0.00  0.00     0.001 A 
ATOM     13  C   UNL d   1     -52.094  23.936  33.426  0.00  0.00     0.000 A 
ATOM     14  C   UNL d   1     -51.270  23.980  33.351  0.00  0.00     0.001 A 
ATOM     15  C   UNL d   1     -52.479  23.214  33.313  0.00  0.00     0.000 C 
ATOM     16  C   UNL d   1     -50.892  24.708  33.465  0.00  0.00     0.011 A 
ENDBRANCH   7  10
ENDBRANCH   1   7
BRANCH   5  17
ATOM     17  N   UNL d   1     -48.895  28.012  34.254  0.00  0.00    -0.218 NA
BRANCH  17  18
ATOM     18  C   UNL d   1     -48.790  28.437  34.938  0.00  0.00     0.120 C 
BRANCH  18  19
ATOM     19  C   UNL d   1     -48.275  29.091  34.949  0.00  0.00     0.101 C 
BRANCH  19  20
ATOM     20  N   UNL d   1     -47.683  29.141  35.521  0.00  0.00    -0.299 N 
ATOM     21  C   UNL d   1     -46.897  29.044  35.313  0.00  0.00     0.100 C 
ATOM     22  C   UNL d   1     -47.881  29.289  36.307  0.00  0.00     0.100 C 
ENDBRANCH  19  20
ENDBRANCH  18  19
ENDBRANCH  17  18
ENDBRANCH   5  17
TORSDOF 6
ENDMDL
