MODEL 1
REMARK VINA RESULT:      -3.2      0.000      0.000
REMARK  8 active torsions:
REMARK  status: ('A' for Active; 'I' for Inactive)
REMARK    1  A    between atoms: C_2  and  C_1 
REMARK    2  A    between atoms: C_5  and  C_1 
REMARK    3  A    between atoms: O_11  and  C_2 
REMARK    4  A    between atoms: C_13  and  C_3 
REMARK    5  A    between atoms: C_6  and  C_5 
REMARK    6  A    between atoms: C_23  and  O_11 
REMARK    7  A    between atoms: C_12  and  S_14 
REMARK    8  A    between atoms: S_14  and  C_18 
ROOT
ATOM      1  C   UNL d   1      31.907  16.855 -24.011  0.00  0.00     0.134 C 
ATOM      2  C   UNL d   1      32.126  16.158 -23.628  0.00  0.00     0.106 C 
ATOM      3  N   UNL d   1      32.350  15.463 -23.245  0.00  0.00    -0.191 NA
ENDROOT
BRANCH   1   4
ATOM      4  C   UNL d   1      31.135  16.939 -24.294  0.00  0.00     0.310 C 
ATOM      5  O   UNL d   1      31.004  17.185 -25.070  0.00  0.00    -0.258 OA
BRANCH   4   6
ATOM      6  O   UNL d   1      30.491  16.776 -23.801  0.00  0.00    -0.273 OA
BRANCH   6   7
ATOM      7  C   UNL d   1      29.731  16.791 -24.104  0.00  0.00     0.103 C 
ATOM      8  C   UNL d   1      29.240  16.131 -24.031  0.00  0.00     0.027 C 
ATOM      9  C   UNL d   1      29.452  17.469 -24.485  0.00  0.00     0.027 C 
ENDBRANCH   6   7
ENDBRANCH   4   6
ENDBRANCH   1   4
BRANCH   1  10
ATOM     10  C   UNL d   1      32.447  17.464 -24.112  0.00  0.00     0.040 C 
BRANCH  10  11
ATOM     11  C   UNL d   1      32.717  17.878 -23.459  0.00  0.00     0.101 A 
ATOM     12  O   UNL d   1      32.690  18.698 -23.509  0.00  0.00    -0.307 OA
ATOM     13  C   UNL d   1      32.982  19.006 -22.805  0.00  0.00     0.100 A 
ATOM     14  C   UNL d   1      33.190  18.375 -22.317  0.00  0.00     0.027 A 
ATOM     15  C   UNL d   1      33.031  17.683 -22.710  0.00  0.00     0.027 A 
BRANCH  13  16
ATOM     16  C   UNL d   1      33.055  19.799 -22.616  0.00  0.00     0.023 A 
ATOM     17  C   UNL d   1      32.962  19.878 -21.793  0.00  0.00     0.003 A 
ATOM     18  C   UNL d   1      33.009  20.629 -21.443  0.00  0.00     0.007 A 
ATOM     19  C   UNL d   1      33.148  21.293 -21.908  0.00  0.00     0.034 A 
ATOM     20  C   UNL d   1      33.241  21.215 -22.723  0.00  0.00     0.007 A 
ATOM     21  C   UNL d   1      33.195  20.472 -23.081  0.00  0.00     0.003 A 
BRANCH  19  22
ATOM     22  S   UNL d   1      33.195  22.035 -21.557  0.00  0.00    -0.028 SA
BRANCH  22  23
ATOM     23  C   UNL d   1      32.509  22.413 -21.305  0.00  0.00     0.309 C 
ATOM     24  F   UNL d   1      32.220  23.064 -21.721  0.00  0.00    -0.165 F 
ATOM     25  F   UNL d   1      32.110  22.141 -20.638  0.00  0.00    -0.165 F 
ENDBRANCH  22  23
ENDBRANCH  19  22
ENDBRANCH  13  16
ENDBRANCH  10  11
ENDBRANCH   1  10
TORSDOF 8
ENDMDL
MODEL 2
REMARK VINA RESULT:      -0.7      1.137      1.732
REMARK  8 active torsions:
REMARK  status: ('A' for Active; 'I' for Inactive)
REMARK    1  A    between atoms: C_2  and  C_1 
REMARK    2  A    between atoms: C_5  and  C_1 
REMARK    3  A    between atoms: O_11  and  C_2 
REMARK    4  A    between atoms: C_13  and  C_3 
REMARK    5  A    between atoms: C_6  and  C_5 
REMARK    6  A    between atoms: C_23  and  O_11 
REMARK    7  A    between atoms: C_12  and  S_14 
REMARK    8  A    between atoms: S_14  and  C_18 
ROOT
ATOM      1  C   UNL d   1      30.460  16.227 -23.967  0.00  0.00     0.134 C 
ATOM      2  C   UNL d   1      30.761  15.840 -23.304  0.00  0.00     0.106 C 
ATOM      3  N   UNL d   1      31.067  15.453 -22.642  0.00  0.00    -0.191 NA
ENDROOT
BRANCH   1   4
ATOM      4  C   UNL d   1      29.646  16.352 -24.030  0.00  0.00     0.310 C 
ATOM      5  O   UNL d   1      29.322  16.623 -24.740  0.00  0.00    -0.258 OA
BRANCH   4   6
ATOM      6  O   UNL d   1      29.151  16.207 -23.383  0.00  0.00    -0.273 OA
BRANCH   6   7
ATOM      7  C   UNL d   1      28.380  16.483 -23.389  0.00  0.00     0.103 C 
ATOM      8  C   UNL d   1      27.756  15.978 -23.199  0.00  0.00     0.027 C 
ATOM      9  C   UNL d   1      28.226  17.271 -23.585  0.00  0.00     0.027 C 
ENDBRANCH   6   7
ENDBRANCH   4   6
ENDBRANCH   1   4
BRANCH   1  10
ATOM     10  C   UNL d   1      30.961  16.487 -24.562  0.00  0.00     0.040 C 
BRANCH  10  11
ATOM     11  C   UNL d   1      31.677  16.832 -24.366  0.00  0.00     0.101 A 
ATOM     12  O   UNL d   1      31.659  17.628 -24.167  0.00  0.00    -0.307 OA
ATOM     13  C   UNL d   1      32.426  17.866 -23.990  0.00  0.00     0.100 A 
ATOM     14  C   UNL d   1      32.921  17.213 -24.080  0.00  0.00     0.027 A 
ATOM     15  C   UNL d   1      32.472  16.578 -24.309  0.00  0.00     0.027 A 
BRANCH  13  16
ATOM     16  C   UNL d   1      32.661  18.617 -23.764  0.00  0.00     0.023 A 
ATOM     17  C   UNL d   1      32.527  18.694 -22.947  0.00  0.00     0.003 A 
ATOM     18  C   UNL d   1      32.717  19.406 -22.564  0.00  0.00     0.007 A 
ATOM     19  C   UNL d   1      33.036  20.032 -22.991  0.00  0.00     0.034 A 
ATOM     20  C   UNL d   1      33.168  19.955 -23.800  0.00  0.00     0.007 A 
ATOM     21  C   UNL d   1      32.983  19.251 -24.191  0.00  0.00     0.003 A 
BRANCH  19  22
ATOM     22  S   UNL d   1      33.222  20.735 -22.608  0.00  0.00    -0.028 SA
BRANCH  22  23
ATOM     23  C   UNL d   1      32.895  20.899 -21.871  0.00  0.00     0.309 C 
ATOM     24  F   UNL d   1      33.241  20.591 -21.188  0.00  0.00    -0.165 F 
ATOM     25  F   UNL d   1      32.222  21.371 -21.814  0.00  0.00    -0.165 F 
ENDBRANCH  22  23
ENDBRANCH  19  22
ENDBRANCH  13  16
ENDBRANCH  10  11
ENDBRANCH   1  10
TORSDOF 8
ENDMDL
