MODEL 1
REMARK VINA RESULT:       5.7      0.000      0.000
REMARK  3 active torsions:
REMARK  status: ('A' for Active; 'I' for Inactive)
REMARK    1  A    between atoms: C_6  and  C_1 
REMARK    2  A    between atoms: C_10  and  C_3 
REMARK    3  A    between atoms: C_8  and  N_4 
REMARK       I    between atoms: N_7  and  C_6 
ROOT
ATOM      1  C   UNL d   1     -41.762-122.073 -52.553  0.00  0.00     0.095 A 
ATOM      2  N   UNL d   1     -42.015-123.468 -52.714  0.00  0.00    -0.165 NA
ATOM      3  C   UNL d   1     -41.889-122.726 -53.040  0.00  0.00     0.107 A 
ATOM      4  N   UNL d   1     -41.889-122.919 -51.402  0.00  0.00    -0.228 N 
ATOM      5  C   UNL d   1     -41.763-122.176 -51.737  0.00  0.00     0.107 A 
ENDROOT
BRANCH   1   6
ATOM      6  C   UNL d   1     -41.636-121.330 -52.888  0.00  0.00     0.268 C 
ATOM      7  N   UNL d   1     -41.464-120.662 -52.379  0.00  0.00    -0.272 N 
ATOM      8  C   UNL d   1     -41.333-119.889 -52.717  0.00  0.00     0.083 A 
ATOM      9  C   UNL d   1     -41.424-120.768 -51.532  0.00  0.00     0.083 A 
ATOM     10  C   UNL d   1     -41.162-119.224 -52.210  0.00  0.00     0.019 A 
ATOM     11  C   UNL d   1     -41.123-119.336 -51.368  0.00  0.00     0.003 A 
ATOM     12  C   UNL d   1     -41.253-120.103 -51.026  0.00  0.00     0.019 A 
ATOM     13  O   UNL d   1     -41.674-121.227 -53.694  0.00  0.00    -0.267 OA
ENDBRANCH   1   6
BRANCH   3  14
ATOM     14  C   UNL d   1     -41.890-122.632 -53.861  0.00  0.00     0.023 A 
ATOM     15  C   UNL d   1     -41.268-122.942 -54.306  0.00  0.00     0.022 A 
ATOM     16  C   UNL d   1     -41.274-122.846 -55.125  0.00  0.00     0.099 A 
ATOM     17  N   UNL d   1     -41.894-122.444 -55.495  0.00  0.00    -0.242 NA
ATOM     18  C   UNL d   1     -42.511-122.138 -55.041  0.00  0.00     0.099 A 
ATOM     19  C   UNL d   1     -42.508-122.233 -54.225  0.00  0.00     0.022 A 
ENDBRANCH   3  14
BRANCH   4  20
ATOM     20  C   UNL d   1     -41.926-123.217 -50.638  0.00  0.00     0.083 A 
ATOM     21  C   UNL d   1     -41.242-123.464 -50.263  0.00  0.00     0.019 A 
ATOM     22  C   UNL d   1     -41.280-123.762 -49.498  0.00  0.00     0.002 A 
ATOM     23  C   UNL d   1     -42.007-123.813 -49.106  0.00  0.00     0.000 A 
ATOM     24  C   UNL d   1     -42.698-123.562 -49.488  0.00  0.00     0.002 A 
ATOM     25  C   UNL d   1     -42.658-123.262 -50.258  0.00  0.00     0.019 A 
ENDBRANCH   4  20
TORSDOF 3
ENDMDL
MODEL 2
REMARK VINA RESULT:       8.0      1.829      2.861
REMARK  3 active torsions:
REMARK  status: ('A' for Active; 'I' for Inactive)
REMARK    1  A    between atoms: C_6  and  C_1 
REMARK    2  A    between atoms: C_10  and  C_3 
REMARK    3  A    between atoms: C_8  and  N_4 
REMARK       I    between atoms: N_7  and  C_6 
ROOT
ATOM      1  C   UNL d   1     -42.175-122.521 -50.336  0.00  0.00     0.095 A 
ATOM      2  N   UNL d   1     -41.202-123.561 -50.244  0.00  0.00    -0.165 NA
ATOM      3  C   UNL d   1     -41.623-123.018 -50.692  0.00  0.00     0.107 A 
ATOM      4  N   UNL d   1     -41.879-123.119 -49.067  0.00  0.00    -0.228 N 
ATOM      5  C   UNL d   1     -42.298-122.577 -49.524  0.00  0.00     0.107 A 
ENDROOT
BRANCH   1   6
ATOM      6  C   UNL d   1     -42.595-121.979 -50.793  0.00  0.00     0.268 C 
ATOM      7  N   UNL d   1     -43.451-121.962 -50.749  0.00  0.00    -0.272 N 
ATOM      8  C   UNL d   1     -43.894-121.404 -51.219  0.00  0.00     0.083 A 
ATOM      9  C   UNL d   1     -43.863-122.505 -50.233  0.00  0.00     0.083 A 
ATOM     10  C   UNL d   1     -44.746-121.387 -51.174  0.00  0.00     0.019 A 
ATOM     11  C   UNL d   1     -45.151-121.930 -50.660  0.00  0.00     0.003 A 
ATOM     12  C   UNL d   1     -44.715-122.488 -50.189  0.00  0.00     0.019 A 
ATOM     13  O   UNL d   1     -42.205-121.461 -51.285  0.00  0.00    -0.267 OA
ENDBRANCH   1   6
BRANCH   3  14
ATOM     14  C   UNL d   1     -41.493-122.970 -51.508  0.00  0.00     0.023 A 
ATOM     15  C   UNL d   1     -41.608-123.638 -51.978  0.00  0.00     0.022 A 
ATOM     16  C   UNL d   1     -41.477-123.585 -52.790  0.00  0.00     0.099 A 
ATOM     17  N   UNL d   1     -41.234-122.872 -53.128  0.00  0.00    -0.242 NA
ATOM     18  C   UNL d   1     -41.123-122.209 -52.650  0.00  0.00     0.099 A 
ATOM     19  C   UNL d   1     -41.253-122.260 -51.840  0.00  0.00     0.022 A 
ENDBRANCH   3  14
BRANCH   4  20
ATOM     20  C   UNL d   1     -41.859-123.320 -48.271  0.00  0.00     0.083 A 
ATOM     21  C   UNL d   1     -41.142-123.368 -47.880  0.00  0.00     0.019 A 
ATOM     22  C   UNL d   1     -41.123-123.570 -47.084  0.00  0.00     0.002 A 
ATOM     23  C   UNL d   1     -41.826-123.725 -46.676  0.00  0.00     0.000 A 
ATOM     24  C   UNL d   1     -42.551-123.676 -47.074  0.00  0.00     0.002 A 
ATOM     25  C   UNL d   1     -42.568-123.473 -47.876  0.00  0.00     0.019 A 
ENDBRANCH   4  20
TORSDOF 3
ENDMDL
