MODEL 1
REMARK VINA RESULT:      12.2      0.000      0.000
REMARK  1 active torsions:
REMARK  status: ('A' for Active; 'I' for Inactive)
REMARK    1  A    between atoms: C_2  and  C_1 
REMARK       I    between atoms: N_3  and  C_2 
ROOT
ATOM      1  C   UNL d   1      13.378  12.538  -3.153  0.00  0.00     0.109 A 
ATOM      2  C   UNL d   1      13.557  13.320  -3.213  0.00  0.00     0.026 A 
ATOM      3  C   UNL d   1      13.156  12.194  -3.836  0.00  0.00    -0.014 A 
ATOM      4  C   UNL d   1      13.100  11.825  -3.669  0.00  0.00    -0.014 A 
ATOM      5  C   UNL d   1      13.451  13.582  -4.056  0.00  0.00     0.045 A 
ATOM      6  C   UNL d   1      13.010  12.038  -4.372  0.00  0.00    -0.007 A 
ATOM      7  C   UNL d   1      13.047  12.492  -4.736  0.00  0.00    -0.007 A 
ATOM      8  C   UNL d   1      12.769  11.780  -5.251  0.00  0.00    -0.001 A 
ATOM      9  C   UNL d   1      13.218  13.242  -4.794  0.00  0.00    -0.022 A 
ATOM     10  C   UNL d   1      13.230  13.054  -4.509  0.00  0.00    -0.022 A 
ENDROOT
BRANCH   1  11
ATOM     11  C   UNL d   1      13.477  12.141  -2.187  0.00  0.00     0.248 C 
ATOM     12  N   UNL d   1      14.364  12.187  -1.643  0.00  0.00    -0.275 N 
ATOM     13  C   UNL d   1      15.113  12.380  -1.530  0.00  0.00     0.083 A 
ATOM     14  C   UNL d   1      14.118  11.824  -1.005  0.00  0.00     0.083 A 
ATOM     15  C   UNL d   1      15.321  12.129  -0.813  0.00  0.00     0.021 A 
ATOM     16  C   UNL d   1      14.708  11.786  -0.488  0.00  0.00     0.021 A 
ATOM     17  O   UNL d   1      12.769  11.781  -1.896  0.00  0.00    -0.271 OA
ENDBRANCH   1  11
TORSDOF 1
ENDMDL
