MODEL 1
REMARK VINA RESULT:      -6.0      0.000      0.000
REMARK  5 active torsions:
REMARK  status: ('A' for Active; 'I' for Inactive)
REMARK       I    between atoms: N_4  and  C_1 
REMARK       I    between atoms: N_8  and  C_1 
REMARK    1  A    between atoms: C_2  and  C_3 
REMARK    2  A    between atoms: C_5  and  C_2 
REMARK    3  A    between atoms: N_6  and  C_2 
REMARK    4  A    between atoms: C_3  and  N_4 
REMARK    5  A    between atoms: C_12  and  N_8 
ROOT
ATOM      1  C   UNL d   1      53.420  33.552  53.125  0.00  0.00     0.103 C 
ATOM      2  C   UNL d   1      53.880  33.967  52.593  0.00  0.00     0.022 C 
ENDROOT
BRANCH   1   3
ATOM      3  C   UNL d   1      52.787  33.916  53.503  0.00  0.00     0.088 C 
BRANCH   3   4
ATOM      4  C   UNL d   1      52.022  33.790  53.236  0.00  0.00     0.047 A 
ATOM      5  S   UNL d   1      51.717  34.009  52.503  0.00  0.00    -0.085 SA
ATOM      6  C   UNL d   1      50.925  33.773  52.471  0.00  0.00     0.035 A 
ATOM      7  C   UNL d   1      50.735  33.405  53.187  0.00  0.00     0.007 A 
ATOM      8  C   UNL d   1      51.412  33.416  53.657  0.00  0.00     0.009 A 
ENDBRANCH   3   4
BRANCH   3   9
ATOM      9  N   UNL d   1      52.922  34.412  54.154  0.00  0.00    -0.299 N 
ATOM     10  C   UNL d   1      52.990  34.096  54.909  0.00  0.00     0.107 A 
ATOM     11  C   UNL d   1      53.124  34.586  55.555  0.00  0.00     0.142 A 
ATOM     12  O   UNL d   1      53.191  35.409  55.455  0.00  0.00    -0.300 OA
ATOM     13  C   UNL d   1      53.121  35.725  54.689  0.00  0.00     0.142 A 
ATOM     14  C   UNL d   1      52.987  35.232  54.040  0.00  0.00     0.107 A 
ENDBRANCH   3   9
ENDBRANCH   1   3
BRANCH   1  15
ATOM     15  N   UNL d   1      53.592  32.755  53.285  0.00  0.00    -0.190 NA
ATOM     16  C   UNL d   1      54.368  32.487  53.234  0.00  0.00     0.369 C 
ATOM     17  N   UNL d   1      54.537  31.694  53.395  0.00  0.00    -0.191 NA
ATOM     18  O   UNL d   1      54.973  33.000  53.025  0.00  0.00    -0.242 OA
BRANCH  17  19
ATOM     19  C   UNL d   1      53.931  31.175  53.605  0.00  0.00     0.086 A 
ATOM     20  C   UNL d   1      53.528  30.759  53.019  0.00  0.00     0.019 A 
ATOM     21  C   UNL d   1      52.929  30.245  53.225  0.00  0.00     0.002 A 
ATOM     22  C   UNL d   1      52.519  29.823  52.640  0.00  0.00     0.000 C 
ATOM     23  C   UNL d   1      52.721  30.139  54.025  0.00  0.00     0.000 A 
ATOM     24  C   UNL d   1      53.126  30.557  54.609  0.00  0.00     0.002 A 
ATOM     25  C   UNL d   1      53.735  31.079  54.397  0.00  0.00     0.019 A 
ENDBRANCH  17  19
ENDBRANCH   1  15
TORSDOF 5
ENDMDL
MODEL 2
REMARK VINA RESULT:      -5.7      1.114      2.094
REMARK  5 active torsions:
REMARK  status: ('A' for Active; 'I' for Inactive)
REMARK       I    between atoms: N_4  and  C_1 
REMARK       I    between atoms: N_8  and  C_1 
REMARK    1  A    between atoms: C_2  and  C_3 
REMARK    2  A    between atoms: C_5  and  C_2 
REMARK    3  A    between atoms: N_6  and  C_2 
REMARK    4  A    between atoms: C_3  and  N_4 
REMARK    5  A    between atoms: C_12  and  N_8 
ROOT
ATOM      1  C   UNL d   1      53.546  33.354  53.188  0.00  0.00     0.103 C 
ATOM      2  C   UNL d   1      54.074  33.799  52.754  0.00  0.00     0.022 C 
ENDROOT
BRANCH   1   3
ATOM      3  C   UNL d   1      52.924  33.716  53.587  0.00  0.00     0.088 C 
BRANCH   3   4
ATOM      4  C   UNL d   1      53.059  34.092  54.303  0.00  0.00     0.047 A 
ATOM      5  S   UNL d   1      53.153  34.902  54.419  0.00  0.00    -0.085 SA
ATOM      6  C   UNL d   1      53.278  35.035  55.225  0.00  0.00     0.035 A 
ATOM      7  C   UNL d   1      53.261  34.306  55.614  0.00  0.00     0.007 A 
ATOM      8  C   UNL d   1      53.126  33.726  55.043  0.00  0.00     0.009 A 
ENDBRANCH   3   4
BRANCH   3   9
ATOM      9  N   UNL d   1      52.159  33.701  53.265  0.00  0.00    -0.299 N 
ATOM     10  C   UNL d   1      51.546  33.337  53.673  0.00  0.00     0.107 A 
ATOM     11  C   UNL d   1      50.787  33.321  53.355  0.00  0.00     0.142 A 
ATOM     12  O   UNL d   1      50.630  33.673  52.617  0.00  0.00    -0.300 OA
ATOM     13  C   UNL d   1      51.254  34.039  52.209  0.00  0.00     0.142 A 
ATOM     14  C   UNL d   1      52.015  34.055  52.528  0.00  0.00     0.107 A 
ENDBRANCH   3   9
ENDBRANCH   1   3
BRANCH   1  15
ATOM     15  N   UNL d   1      53.635  32.529  53.228  0.00  0.00    -0.190 NA
ATOM     16  C   UNL d   1      54.381  32.196  53.134  0.00  0.00     0.369 C 
ATOM     17  N   UNL d   1      54.468  31.374  53.175  0.00  0.00    -0.191 NA
ATOM     18  O   UNL d   1      55.037  32.671  53.002  0.00  0.00    -0.242 OA
BRANCH  17  19
ATOM     19  C   UNL d   1      53.811  30.893  53.307  0.00  0.00     0.086 A 
ATOM     20  C   UNL d   1      53.691  30.563  54.052  0.00  0.00     0.019 A 
ATOM     21  C   UNL d   1      53.041  30.087  54.185  0.00  0.00     0.002 A 
ATOM     22  C   UNL d   1      52.915  29.751  54.933  0.00  0.00     0.000 C 
ATOM     23  C   UNL d   1      52.500  29.933  53.572  0.00  0.00     0.000 A 
ATOM     24  C   UNL d   1      52.622  30.265  52.827  0.00  0.00     0.002 A 
ATOM     25  C   UNL d   1      53.284  30.749  52.695  0.00  0.00     0.019 A 
ENDBRANCH  17  19
ENDBRANCH   1  15
TORSDOF 5
ENDMDL
MODEL 3
REMARK VINA RESULT:      -5.1      1.411      3.932
REMARK  5 active torsions:
REMARK  status: ('A' for Active; 'I' for Inactive)
REMARK       I    between atoms: N_4  and  C_1 
REMARK       I    between atoms: N_8  and  C_1 
REMARK    1  A    between atoms: C_2  and  C_3 
REMARK    2  A    between atoms: C_5  and  C_2 
REMARK    3  A    between atoms: N_6  and  C_2 
REMARK    4  A    between atoms: C_3  and  N_4 
REMARK    5  A    between atoms: C_12  and  N_8 
ROOT
ATOM      1  C   UNL d   1      53.455  33.381  54.573  0.00  0.00     0.103 C 
ATOM      2  C   UNL d   1      53.523  33.482  55.380  0.00  0.00     0.022 C 
ENDROOT
BRANCH   1   3
ATOM      3  C   UNL d   1      53.919  32.825  54.182  0.00  0.00     0.088 C 
BRANCH   3   4
ATOM      4  C   UNL d   1      54.671  33.026  53.923  0.00  0.00     0.047 A 
ATOM      5  S   UNL d   1      55.279  33.335  54.384  0.00  0.00    -0.085 SA
ATOM      6  C   UNL d   1      55.937  33.455  53.898  0.00  0.00     0.035 A 
ATOM      7  C   UNL d   1      55.739  33.219  53.131  0.00  0.00     0.007 A 
ATOM      8  C   UNL d   1      54.958  32.955  53.149  0.00  0.00     0.009 A 
ENDBRANCH   3   4
BRANCH   3   9
ATOM      9  N   UNL d   1      53.626  32.060  54.048  0.00  0.00    -0.299 N 
ATOM     10  C   UNL d   1      53.374  31.838  53.299  0.00  0.00     0.107 A 
ATOM     11  C   UNL d   1      53.084  31.081  53.165  0.00  0.00     0.142 A 
ATOM     12  O   UNL d   1      53.042  30.528  53.785  0.00  0.00    -0.300 OA
ATOM     13  C   UNL d   1      53.299  30.757  54.542  0.00  0.00     0.142 A 
ATOM     14  C   UNL d   1      53.590  31.518  54.676  0.00  0.00     0.107 A 
ENDBRANCH   3   9
ENDBRANCH   1   3
BRANCH   1  15
ATOM     15  N   UNL d   1      52.915  33.841  54.142  0.00  0.00    -0.190 NA
ATOM     16  C   UNL d   1      52.700  34.585  54.421  0.00  0.00     0.369 C 
ATOM     17  N   UNL d   1      52.161  35.041  53.991  0.00  0.00    -0.191 NA
ATOM     18  O   UNL d   1      53.015  34.874  55.121  0.00  0.00    -0.242 OA
BRANCH  17  19
ATOM     19  C   UNL d   1      51.842  34.753  53.287  0.00  0.00     0.086 A 
ATOM     20  C   UNL d   1      51.097  34.403  53.290  0.00  0.00     0.019 A 
ATOM     21  C   UNL d   1      50.779  34.117  52.595  0.00  0.00     0.002 A 
ATOM     22  C   UNL d   1      50.029  33.763  52.591  0.00  0.00     0.000 C 
ATOM     23  C   UNL d   1      51.204  34.178  51.881  0.00  0.00     0.000 A 
ATOM     24  C   UNL d   1      51.950  34.530  51.881  0.00  0.00     0.002 A 
ATOM     25  C   UNL d   1      52.271  34.819  52.590  0.00  0.00     0.019 A 
ENDBRANCH  17  19
ENDBRANCH   1  15
TORSDOF 5
ENDMDL
MODEL 4
REMARK VINA RESULT:      -4.5      1.245      1.611
REMARK  5 active torsions:
REMARK  status: ('A' for Active; 'I' for Inactive)
REMARK       I    between atoms: N_4  and  C_1 
REMARK       I    between atoms: N_8  and  C_1 
REMARK    1  A    between atoms: C_2  and  C_3 
REMARK    2  A    between atoms: C_5  and  C_2 
REMARK    3  A    between atoms: N_6  and  C_2 
REMARK    4  A    between atoms: C_3  and  N_4 
REMARK    5  A    between atoms: C_12  and  N_8 
ROOT
ATOM      1  C   UNL d   1      54.117  32.691  53.344  0.00  0.00     0.103 C 
ATOM      2  C   UNL d   1      54.641  33.010  52.806  0.00  0.00     0.022 C 
ENDROOT
BRANCH   1   3
ATOM      3  C   UNL d   1      53.757  33.169  53.909  0.00  0.00     0.088 C 
BRANCH   3   4
ATOM      4  C   UNL d   1      53.024  33.503  53.757  0.00  0.00     0.047 A 
ATOM      5  S   UNL d   1      52.867  34.120  53.235  0.00  0.00    -0.085 SA
ATOM      6  C   UNL d   1      52.056  34.278  53.256  0.00  0.00     0.035 A 
ATOM      7  C   UNL d   1      51.704  33.757  53.794  0.00  0.00     0.007 A 
ATOM      8  C   UNL d   1      52.303  33.280  54.101  0.00  0.00     0.009 A 
ENDBRANCH   3   4
BRANCH   3   9
ATOM      9  N   UNL d   1      54.135  33.313  54.634  0.00  0.00    -0.299 N 
ATOM     10  C   UNL d   1      53.914  32.896  55.306  0.00  0.00     0.107 A 
ATOM     11  C   UNL d   1      54.287  33.038  56.025  0.00  0.00     0.142 A 
ATOM     12  O   UNL d   1      54.895  33.604  56.082  0.00  0.00    -0.300 OA
ATOM     13  C   UNL d   1      55.115  34.023  55.398  0.00  0.00     0.142 A 
ATOM     14  C   UNL d   1      54.739  33.880  54.677  0.00  0.00     0.107 A 
ENDBRANCH   3   9
ENDBRANCH   1   3
BRANCH   1  15
ATOM     15  N   UNL d   1      53.946  31.879  53.323  0.00  0.00    -0.190 NA
ATOM     16  C   UNL d   1      54.450  31.367  52.921  0.00  0.00     0.369 C 
ATOM     17  N   UNL d   1      54.277  30.559  52.901  0.00  0.00    -0.191 NA
ATOM     18  O   UNL d   1      55.119  31.652  52.542  0.00  0.00    -0.242 OA
BRANCH  17  19
ATOM     19  C   UNL d   1      53.605  30.268  53.281  0.00  0.00     0.086 A 
ATOM     20  C   UNL d   1      53.678  29.897  54.013  0.00  0.00     0.019 A 
ATOM     21  C   UNL d   1      53.014  29.609  54.391  0.00  0.00     0.002 A 
ATOM     22  C   UNL d   1      53.082  29.235  55.128  0.00  0.00     0.000 C 
ATOM     23  C   UNL d   1      52.264  29.687  54.040  0.00  0.00     0.000 A 
ATOM     24  C   UNL d   1      52.193  30.058  53.307  0.00  0.00     0.002 A 
ATOM     25  C   UNL d   1      52.870  30.350  52.925  0.00  0.00     0.019 A 
ENDBRANCH  17  19
ENDBRANCH   1  15
TORSDOF 5
ENDMDL
MODEL 5
REMARK VINA RESULT:      -4.4      1.486      2.362
REMARK  5 active torsions:
REMARK  status: ('A' for Active; 'I' for Inactive)
REMARK       I    between atoms: N_4  and  C_1 
REMARK       I    between atoms: N_8  and  C_1 
REMARK    1  A    between atoms: C_2  and  C_3 
REMARK    2  A    between atoms: C_5  and  C_2 
REMARK    3  A    between atoms: N_6  and  C_2 
REMARK    4  A    between atoms: C_3  and  N_4 
REMARK    5  A    between atoms: C_12  and  N_8 
ROOT
ATOM      1  C   UNL d   1      51.820  33.281  53.504  0.00  0.00     0.103 C 
ATOM      2  C   UNL d   1      51.161  32.836  53.685  0.00  0.00     0.022 C 
ENDROOT
BRANCH   1   3
ATOM      3  C   UNL d   1      51.740  34.045  53.210  0.00  0.00     0.088 C 
BRANCH   3   4
ATOM      4  C   UNL d   1      51.325  34.177  52.516  0.00  0.00     0.047 A 
ATOM      5  S   UNL d   1      50.510  34.271  52.444  0.00  0.00    -0.085 SA
ATOM      6  C   UNL d   1      50.332  34.391  51.646  0.00  0.00     0.035 A 
ATOM      7  C   UNL d   1      51.039  34.372  51.217  0.00  0.00     0.007 A 
ATOM      8  C   UNL d   1      51.650  34.240  51.755  0.00  0.00     0.009 A 
ENDBRANCH   3   4
BRANCH   3   9
ATOM      9  N   UNL d   1      52.080  34.684  53.617  0.00  0.00    -0.299 N 
ATOM     10  C   UNL d   1      52.659  35.142  53.259  0.00  0.00     0.107 A 
ATOM     11  C   UNL d   1      52.997  35.775  53.660  0.00  0.00     0.142 A 
ATOM     12  O   UNL d   1      52.756  35.961  54.435  0.00  0.00    -0.300 OA
ATOM     13  C   UNL d   1      52.169  35.495  54.794  0.00  0.00     0.142 A 
ATOM     14  C   UNL d   1      51.831  34.859  54.390  0.00  0.00     0.107 A 
ENDBRANCH   3   9
ENDBRANCH   1   3
BRANCH   1  15
ATOM     15  N   UNL d   1      52.578  32.961  53.615  0.00  0.00    -0.190 NA
ATOM     16  C   UNL d   1      52.689  32.147  53.562  0.00  0.00     0.369 C 
ATOM     17  N   UNL d   1      53.445  31.830  53.673  0.00  0.00    -0.191 NA
ATOM     18  O   UNL d   1      52.057  31.650  53.399  0.00  0.00    -0.242 OA
BRANCH  17  19
ATOM     19  C   UNL d   1      54.083  32.327  53.837  0.00  0.00     0.086 A 
ATOM     20  C   UNL d   1      54.213  32.583  54.609  0.00  0.00     0.019 A 
ATOM     21  C   UNL d   1      54.844  33.074  54.773  0.00  0.00     0.002 A 
ATOM     22  C   UNL d   1      54.981  33.335  55.548  0.00  0.00     0.000 C 
ATOM     23  C   UNL d   1      55.357  33.318  54.164  0.00  0.00     0.000 A 
ATOM     24  C   UNL d   1      55.224  33.060  53.392  0.00  0.00     0.002 A 
ATOM     25  C   UNL d   1      54.582  32.560  53.228  0.00  0.00     0.019 A 
ENDBRANCH  17  19
ENDBRANCH   1  15
TORSDOF 5
ENDMDL
MODEL 6
REMARK VINA RESULT:      -3.8      1.253      3.592
REMARK  5 active torsions:
REMARK  status: ('A' for Active; 'I' for Inactive)
REMARK       I    between atoms: N_4  and  C_1 
REMARK       I    between atoms: N_8  and  C_1 
REMARK    1  A    between atoms: C_2  and  C_3 
REMARK    2  A    between atoms: C_5  and  C_2 
REMARK    3  A    between atoms: N_6  and  C_2 
REMARK    4  A    between atoms: C_3  and  N_4 
REMARK    5  A    between atoms: C_12  and  N_8 
ROOT
ATOM      1  C   UNL d   1      53.225  33.162  54.445  0.00  0.00     0.103 C 
ATOM      2  C   UNL d   1      53.270  33.206  55.259  0.00  0.00     0.022 C 
ENDROOT
BRANCH   1   3
ATOM      3  C   UNL d   1      53.700  32.635  54.029  0.00  0.00     0.088 C 
BRANCH   3   4
ATOM      4  C   UNL d   1      53.437  31.871  53.885  0.00  0.00     0.047 A 
ATOM      5  S   UNL d   1      53.441  31.244  54.419  0.00  0.00    -0.085 SA
ATOM      6  C   UNL d   1      53.127  30.580  54.041  0.00  0.00     0.035 A 
ATOM      7  C   UNL d   1      52.926  30.792  53.267  0.00  0.00     0.007 A 
ATOM      8  C   UNL d   1      53.118  31.589  53.173  0.00  0.00     0.009 A 
ENDBRANCH   3   4
BRANCH   3   9
ATOM      9  N   UNL d   1      54.445  32.875  53.753  0.00  0.00    -0.299 N 
ATOM     10  C   UNL d   1      54.636  32.801  52.958  0.00  0.00     0.107 A 
ATOM     11  C   UNL d   1      55.374  33.038  52.684  0.00  0.00     0.142 A 
ATOM     12  O   UNL d   1      55.938  33.356  53.208  0.00  0.00    -0.300 OA
ATOM     13  C   UNL d   1      55.740  33.428  54.012  0.00  0.00     0.142 A 
ATOM     14  C   UNL d   1      54.998  33.190  54.286  0.00  0.00     0.107 A 
ENDBRANCH   3   9
ENDBRANCH   1   3
BRANCH   1  15
ATOM     15  N   UNL d   1      52.697  33.653  54.033  0.00  0.00    -0.190 NA
ATOM     16  C   UNL d   1      52.481  34.379  54.354  0.00  0.00     0.369 C 
ATOM     17  N   UNL d   1      51.955  34.866  53.942  0.00  0.00    -0.191 NA
ATOM     18  O   UNL d   1      52.784  34.622  55.076  0.00  0.00    -0.242 OA
BRANCH  17  19
ATOM     19  C   UNL d   1      51.648  34.625  53.215  0.00  0.00     0.086 A 
ATOM     20  C   UNL d   1      50.895  34.294  53.180  0.00  0.00     0.019 A 
ATOM     21  C   UNL d   1      50.590  34.055  52.461  0.00  0.00     0.002 A 
ATOM     22  C   UNL d   1      49.832  33.720  52.419  0.00  0.00     0.000 C 
ATOM     23  C   UNL d   1      51.036  34.144  51.764  0.00  0.00     0.000 A 
ATOM     24  C   UNL d   1      51.789  34.476  51.802  0.00  0.00     0.002 A 
ATOM     25  C   UNL d   1      52.097  34.719  52.534  0.00  0.00     0.019 A 
ENDBRANCH  17  19
ENDBRANCH   1  15
TORSDOF 5
ENDMDL
MODEL 7
REMARK VINA RESULT:      -3.8      1.772      3.084
REMARK  5 active torsions:
REMARK  status: ('A' for Active; 'I' for Inactive)
REMARK       I    between atoms: N_4  and  C_1 
REMARK       I    between atoms: N_8  and  C_1 
REMARK    1  A    between atoms: C_2  and  C_3 
REMARK    2  A    between atoms: C_5  and  C_2 
REMARK    3  A    between atoms: N_6  and  C_2 
REMARK    4  A    between atoms: C_3  and  N_4 
REMARK    5  A    between atoms: C_12  and  N_8 
ROOT
ATOM      1  C   UNL d   1      51.777  33.271  53.522  0.00  0.00     0.103 C 
ATOM      2  C   UNL d   1      51.125  32.823  53.722  0.00  0.00     0.022 C 
ENDROOT
BRANCH   1   3
ATOM      3  C   UNL d   1      51.686  34.036  53.233  0.00  0.00     0.088 C 
BRANCH   3   4
ATOM      4  C   UNL d   1      52.005  34.670  53.644  0.00  0.00     0.047 A 
ATOM      5  S   UNL d   1      51.795  34.917  54.401  0.00  0.00    -0.085 SA
ATOM      6  C   UNL d   1      52.255  35.575  54.596  0.00  0.00     0.035 A 
ATOM      7  C   UNL d   1      52.755  35.740  53.958  0.00  0.00     0.007 A 
ATOM      8  C   UNL d   1      52.599  35.181  53.372  0.00  0.00     0.009 A 
ENDBRANCH   3   4
BRANCH   3   9
ATOM      9  N   UNL d   1      51.272  34.167  52.526  0.00  0.00    -0.299 N 
ATOM     10  C   UNL d   1      51.677  34.232  51.815  0.00  0.00     0.107 A 
ATOM     11  C   UNL d   1      51.269  34.362  51.114  0.00  0.00     0.142 A 
ATOM     12  O   UNL d   1      50.439  34.429  51.114  0.00  0.00    -0.300 OA
ATOM     13  C   UNL d   1      50.033  34.362  51.836  0.00  0.00     0.142 A 
ATOM     14  C   UNL d   1      50.445  34.232  52.540  0.00  0.00     0.107 A 
ENDBRANCH   3   9
ENDBRANCH   1   3
BRANCH   1  15
ATOM     15  N   UNL d   1      52.539  32.952  53.609  0.00  0.00    -0.190 NA
ATOM     16  C   UNL d   1      52.653  32.141  53.530  0.00  0.00     0.369 C 
ATOM     17  N   UNL d   1      53.413  31.826  53.618  0.00  0.00    -0.191 NA
ATOM     18  O   UNL d   1      52.021  31.645  53.366  0.00  0.00    -0.242 OA
BRANCH  17  19
ATOM     19  C   UNL d   1      54.051  32.322  53.784  0.00  0.00     0.086 A 
ATOM     20  C   UNL d   1      54.196  32.557  54.560  0.00  0.00     0.019 A 
ATOM     21  C   UNL d   1      54.827  33.047  54.725  0.00  0.00     0.002 A 
ATOM     22  C   UNL d   1      54.977  33.287  55.505  0.00  0.00     0.000 C 
ATOM     23  C   UNL d   1      55.326  33.312  54.114  0.00  0.00     0.000 A 
ATOM     24  C   UNL d   1      55.180  33.075  53.338  0.00  0.00     0.002 A 
ATOM     25  C   UNL d   1      54.537  32.576  53.172  0.00  0.00     0.019 A 
ENDBRANCH  17  19
ENDBRANCH   1  15
TORSDOF 5
ENDMDL
MODEL 8
REMARK VINA RESULT:      -3.6      1.366      3.549
REMARK  5 active torsions:
REMARK  status: ('A' for Active; 'I' for Inactive)
REMARK       I    between atoms: N_4  and  C_1 
REMARK       I    between atoms: N_8  and  C_1 
REMARK    1  A    between atoms: C_2  and  C_3 
REMARK    2  A    between atoms: C_5  and  C_2 
REMARK    3  A    between atoms: N_6  and  C_2 
REMARK    4  A    between atoms: C_3  and  N_4 
REMARK    5  A    between atoms: C_12  and  N_8 
ROOT
ATOM      1  C   UNL d   1      53.840  32.032  53.221  0.00  0.00     0.103 C 
ATOM      2  C   UNL d   1      54.370  31.761  52.662  0.00  0.00     0.022 C 
ENDROOT
BRANCH   1   3
ATOM      3  C   UNL d   1      53.109  31.666  53.314  0.00  0.00     0.088 C 
BRANCH   3   4
ATOM      4  C   UNL d   1      52.420  32.073  53.130  0.00  0.00     0.047 A 
ATOM      5  S   UNL d   1      52.255  32.458  52.421  0.00  0.00    -0.085 SA
ATOM      6  C   UNL d   1      51.501  32.791  52.478  0.00  0.00     0.035 A 
ATOM      7  C   UNL d   1      51.194  32.614  53.225  0.00  0.00     0.007 A 
ATOM      8  C   UNL d   1      51.763  32.171  53.626  0.00  0.00     0.009 A 
ENDBRANCH   3   4
BRANCH   3   9
ATOM      9  N   UNL d   1      53.067  30.886  53.594  0.00  0.00    -0.299 N 
ATOM     10  C   UNL d   1      53.127  30.731  54.398  0.00  0.00     0.107 A 
ATOM     11  C   UNL d   1      53.086  29.959  54.677  0.00  0.00     0.142 A 
ATOM     12  O   UNL d   1      52.982  29.324  54.150  0.00  0.00    -0.300 OA
ATOM     13  C   UNL d   1      52.921  29.486  53.337  0.00  0.00     0.142 A 
ATOM     14  C   UNL d   1      52.963  30.262  53.057  0.00  0.00     0.107 A 
ENDBRANCH   3   9
ENDBRANCH   1   3
BRANCH   1  15
ATOM     15  N   UNL d   1      54.039  32.681  53.700  0.00  0.00    -0.190 NA
ATOM     16  C   UNL d   1      54.817  32.946  53.723  0.00  0.00     0.369 C 
ATOM     17  N   UNL d   1      55.014  33.592  54.200  0.00  0.00    -0.191 NA
ATOM     18  O   UNL d   1      55.398  32.575  53.278  0.00  0.00    -0.242 OA
BRANCH  17  19
ATOM     19  C   UNL d   1      54.433  33.968  54.649  0.00  0.00     0.086 A 
ATOM     20  C   UNL d   1      54.031  34.616  54.338  0.00  0.00     0.019 A 
ATOM     21  C   UNL d   1      53.456  34.989  54.781  0.00  0.00     0.002 A 
ATOM     22  C   UNL d   1      53.048  35.643  54.472  0.00  0.00     0.000 C 
ATOM     23  C   UNL d   1      53.273  34.718  55.546  0.00  0.00     0.000 A 
ATOM     24  C   UNL d   1      53.676  34.069  55.856  0.00  0.00     0.002 A 
ATOM     25  C   UNL d   1      54.260  33.692  55.403  0.00  0.00     0.019 A 
ENDBRANCH  17  19
ENDBRANCH   1  15
TORSDOF 5
ENDMDL
MODEL 9
REMARK VINA RESULT:      -3.5      1.353      2.221
REMARK  5 active torsions:
REMARK  status: ('A' for Active; 'I' for Inactive)
REMARK       I    between atoms: N_4  and  C_1 
REMARK       I    between atoms: N_8  and  C_1 
REMARK    1  A    between atoms: C_2  and  C_3 
REMARK    2  A    between atoms: C_5  and  C_2 
REMARK    3  A    between atoms: N_6  and  C_2 
REMARK    4  A    between atoms: C_3  and  N_4 
REMARK    5  A    between atoms: C_12  and  N_8 
ROOT
ATOM      1  C   UNL d   1      52.921  33.263  53.132  0.00  0.00     0.103 C 
ATOM      2  C   UNL d   1      52.534  33.741  52.595  0.00  0.00     0.022 C 
ENDROOT
BRANCH   1   3
ATOM      3  C   UNL d   1      53.497  33.574  53.630  0.00  0.00     0.088 C 
BRANCH   3   4
ATOM      4  C   UNL d   1      54.280  33.344  53.546  0.00  0.00     0.047 A 
ATOM      5  S   UNL d   1      54.735  33.399  52.861  0.00  0.00    -0.085 SA
ATOM      6  C   UNL d   1      55.489  33.104  53.028  0.00  0.00     0.035 A 
ATOM      7  C   UNL d   1      55.506  32.865  53.819  0.00  0.00     0.007 A 
ATOM      8  C   UNL d   1      54.759  33.014  54.137  0.00  0.00     0.009 A 
ENDBRANCH   3   4
BRANCH   3   9
ATOM      9  N   UNL d   1      53.287  34.122  54.217  0.00  0.00    -0.299 N 
ATOM     10  C   UNL d   1      53.266  33.895  55.006  0.00  0.00     0.107 A 
ATOM     11  C   UNL d   1      53.058  34.436  55.589  0.00  0.00     0.142 A 
ATOM     12  O   UNL d   1      52.866  35.220  55.389  0.00  0.00    -0.300 OA
ATOM     13  C   UNL d   1      52.888  35.445  54.589  0.00  0.00     0.142 A 
ATOM     14  C   UNL d   1      53.097  34.901  54.004  0.00  0.00     0.107 A 
ENDBRANCH   3   9
ENDBRANCH   1   3
BRANCH   1  15
ATOM     15  N   UNL d   1      52.732  32.455  53.177  0.00  0.00    -0.190 NA
ATOM     16  C   UNL d   1      51.954  32.212  53.066  0.00  0.00     0.369 C 
ATOM     17  N   UNL d   1      51.768  31.408  53.111  0.00  0.00    -0.191 NA
ATOM     18  O   UNL d   1      51.364  32.761  52.911  0.00  0.00    -0.242 OA
BRANCH  17  19
ATOM     19  C   UNL d   1      52.359  30.853  53.266  0.00  0.00     0.086 A 
ATOM     20  C   UNL d   1      52.465  30.574  54.034  0.00  0.00     0.019 A 
ATOM     21  C   UNL d   1      53.049  30.025  54.189  0.00  0.00     0.002 A 
ATOM     22  C   UNL d   1      53.161  29.740  54.960  0.00  0.00     0.000 C 
ATOM     23  C   UNL d   1      53.538  29.746  53.576  0.00  0.00     0.000 A 
ATOM     24  C   UNL d   1      53.429  30.027  52.809  0.00  0.00     0.002 A 
ATOM     25  C   UNL d   1      52.835  30.585  52.653  0.00  0.00     0.019 A 
ENDBRANCH  17  19
ENDBRANCH   1  15
TORSDOF 5
ENDMDL
