MODEL 1
REMARK VINA RESULT:      -7.8      0.000      0.000
REMARK  8 active torsions:
REMARK  status: ('A' for Active; 'I' for Inactive)
REMARK    1  A    between atoms: C_2  and  C_1 
REMARK    2  A    between atoms: C_12  and  C_5 
REMARK    3  A    between atoms: C_14  and  C_6 
REMARK    4  A    between atoms: O_20  and  C_13 
REMARK    5  A    between atoms: O_21  and  C_14 
REMARK    6  A    between atoms: O_23  and  C_15 
REMARK    7  A    between atoms: O_22  and  C_16 
REMARK    8  A    between atoms: C_26  and  O_21 
ROOT
ATOM      1  C   UNL d   1      51.912  34.038  52.976  0.00  0.00     0.206 A 
ATOM      2  O   UNL d   1      51.162  34.364  53.248  0.00  0.00    -0.268 OA
ATOM      3  N   UNL d   1      51.866  33.951  52.117  0.00  0.00    -0.121 NA
ATOM      4  C   UNL d   1      50.649  34.479  52.561  0.00  0.00     0.205 A 
ATOM      5  N   UNL d   1      51.089  34.221  51.852  0.00  0.00    -0.121 NA
ENDROOT
BRANCH   1   6
ATOM      6  C   UNL d   1      52.549  33.849  53.454  0.00  0.00     0.061 A 
ATOM      7  C   UNL d   1      52.705  33.067  53.621  0.00  0.00     0.012 A 
ATOM      8  C   UNL d   1      53.332  32.865  54.092  0.00  0.00     0.081 A 
ATOM      9  C   UNL d   1      53.812  33.450  54.405  0.00  0.00     0.086 A 
ATOM     10  N   UNL d   1      53.659  34.229  54.241  0.00  0.00    -0.245 NA
ATOM     11  C   UNL d   1      54.439  33.249  54.877  0.00  0.00     0.021 C 
ATOM     12  C   UNL d   1      53.029  34.434  53.767  0.00  0.00     0.085 A 
ATOM     13  C   UNL d   1      52.880  35.217  53.605  0.00  0.00     0.021 C 
BRANCH   8  14
ATOM     14  C   UNL d   1      53.481  32.092  54.254  0.00  0.00     0.302 C 
ATOM     15  O   UNL d   1      53.666  31.861  55.012  0.00  0.00    -0.259 OA
BRANCH  14  16
ATOM     16  O   UNL d   1      53.451  31.533  53.666  0.00  0.00    -0.271 OA
BRANCH  16  17
ATOM     17  C   UNL d   1      53.566  30.751  53.845  0.00  0.00     0.126 C 
ATOM     18  C   UNL d   1      53.408  30.171  53.278  0.00  0.00     0.029 C 
ENDBRANCH  16  17
ENDBRANCH  14  16
ENDBRANCH   8  14
ENDBRANCH   1   6
BRANCH   4  19
ATOM     19  C   UNL d   1      49.833  34.798  52.570  0.00  0.00     0.047 A 
ATOM     20  C   UNL d   1      49.557  35.237  53.256  0.00  0.00     0.030 A 
ATOM     21  C   UNL d   1      48.753  35.553  53.269  0.00  0.00     0.118 A 
ATOM     22  C   UNL d   1      48.222  35.425  52.585  0.00  0.00     0.138 A 
ATOM     23  C   UNL d   1      48.509  34.980  51.898  0.00  0.00     0.118 A 
ATOM     24  C   UNL d   1      49.315  34.667  51.891  0.00  0.00     0.030 A 
BRANCH  21  25
ATOM     25  O   UNL d   1      48.176  36.006  53.742  0.00  0.00    -0.326 OA
ATOM     26  C   UNL d   1      48.416  36.380  54.486  0.00  0.00     0.181 C 
ENDBRANCH  21  25
BRANCH  22  27
ATOM     27  O   UNL d   1      47.418  35.741  52.598  0.00  0.00    -0.324 OA
ATOM     28  C   UNL d   1      47.257  36.520  52.257  0.00  0.00     0.182 C 
ENDBRANCH  22  27
BRANCH  23  29
ATOM     29  O   UNL d   1      47.986  34.852  51.220  0.00  0.00    -0.326 OA
ATOM     30  C   UNL d   1      48.134  34.197  50.675  0.00  0.00     0.181 C 
ENDBRANCH  23  29
ENDBRANCH   4  19
TORSDOF 8
ENDMDL
MODEL 2
REMARK VINA RESULT:      -7.5      1.128      5.758
REMARK  8 active torsions:
REMARK  status: ('A' for Active; 'I' for Inactive)
REMARK    1  A    between atoms: C_2  and  C_1 
REMARK    2  A    between atoms: C_12  and  C_5 
REMARK    3  A    between atoms: C_14  and  C_6 
REMARK    4  A    between atoms: O_20  and  C_13 
REMARK    5  A    between atoms: O_21  and  C_14 
REMARK    6  A    between atoms: O_23  and  C_15 
REMARK    7  A    between atoms: O_22  and  C_16 
REMARK    8  A    between atoms: C_26  and  O_21 
ROOT
ATOM      1  C   UNL d   1      49.971  34.573  52.022  0.00  0.00     0.206 A 
ATOM      2  O   UNL d   1      50.422  34.317  52.711  0.00  0.00    -0.268 OA
ATOM      3  N   UNL d   1      50.457  34.429  51.321  0.00  0.00    -0.121 NA
ATOM      4  C   UNL d   1      51.186  34.016  52.441  0.00  0.00     0.205 A 
ATOM      5  N   UNL d   1      51.209  34.085  51.571  0.00  0.00    -0.121 NA
ENDROOT
BRANCH   1   6
ATOM      6  C   UNL d   1      49.218  34.893  52.039  0.00  0.00     0.061 A 
ATOM      7  C   UNL d   1      48.969  35.294  52.702  0.00  0.00     0.012 A 
ATOM      8  C   UNL d   1      48.227  35.616  52.733  0.00  0.00     0.081 A 
ATOM      9  C   UNL d   1      47.721  35.538  52.093  0.00  0.00     0.086 A 
ATOM     10  N   UNL d   1      47.966  35.140  51.432  0.00  0.00    -0.245 NA
ATOM     11  C   UNL d   1      46.979  35.860  52.124  0.00  0.00     0.021 C 
ATOM     12  C   UNL d   1      48.713  34.815  51.399  0.00  0.00     0.085 A 
ATOM     13  C   UNL d   1      48.953  34.416  50.732  0.00  0.00     0.021 C 
BRANCH   8  14
ATOM     14  C   UNL d   1      47.986  36.011  53.391  0.00  0.00     0.302 C 
ATOM     15  O   UNL d   1      48.346  36.710  53.602  0.00  0.00    -0.259 OA
BRANCH  14  16
ATOM     16  O   UNL d   1      47.383  35.720  53.851  0.00  0.00    -0.271 OA
BRANCH  16  17
ATOM     17  C   UNL d   1      47.256  36.026  54.591  0.00  0.00     0.126 C 
ATOM     18  C   UNL d   1      46.514  35.952  54.945  0.00  0.00     0.029 C 
ENDBRANCH  16  17
ENDBRANCH  14  16
ENDBRANCH   8  14
ENDBRANCH   1   6
BRANCH   4  19
ATOM     19  C   UNL d   1      51.825  33.696  52.947  0.00  0.00     0.047 A 
ATOM     20  C   UNL d   1      52.046  32.868  52.881  0.00  0.00     0.030 A 
ATOM     21  C   UNL d   1      52.676  32.549  53.379  0.00  0.00     0.118 A 
ATOM     22  C   UNL d   1      53.088  33.070  53.949  0.00  0.00     0.138 A 
ATOM     23  C   UNL d   1      52.859  33.904  54.008  0.00  0.00     0.118 A 
ATOM     24  C   UNL d   1      52.228  34.217  53.508  0.00  0.00     0.030 A 
BRANCH  21  25
ATOM     25  O   UNL d   1      53.131  31.831  53.575  0.00  0.00    -0.326 OA
ATOM     26  C   UNL d   1      52.948  31.076  53.189  0.00  0.00     0.181 C 
ENDBRANCH  21  25
BRANCH  22  27
ATOM     27  O   UNL d   1      53.718  32.751  54.446  0.00  0.00    -0.324 OA
ATOM     28  C   UNL d   1      54.539  32.989  54.306  0.00  0.00     0.182 C 
ENDBRANCH  22  27
BRANCH  23  29
ATOM     29  O   UNL d   1      53.265  34.422  54.572  0.00  0.00    -0.326 OA
ATOM     30  C   UNL d   1      52.969  35.221  54.718  0.00  0.00     0.181 C 
ENDBRANCH  23  29
ENDBRANCH   4  19
TORSDOF 8
ENDMDL
MODEL 3
REMARK VINA RESULT:      -7.4      1.170      5.616
REMARK  8 active torsions:
REMARK  status: ('A' for Active; 'I' for Inactive)
REMARK    1  A    between atoms: C_2  and  C_1 
REMARK    2  A    between atoms: C_12  and  C_5 
REMARK    3  A    between atoms: C_14  and  C_6 
REMARK    4  A    between atoms: O_20  and  C_13 
REMARK    5  A    between atoms: O_21  and  C_14 
REMARK    6  A    between atoms: O_23  and  C_15 
REMARK    7  A    between atoms: O_22  and  C_16 
REMARK    8  A    between atoms: C_26  and  O_21 
ROOT
ATOM      1  C   UNL d   1      49.963  34.570  52.009  0.00  0.00     0.206 A 
ATOM      2  O   UNL d   1      50.418  34.366  52.711  0.00  0.00    -0.268 OA
ATOM      3  N   UNL d   1      50.443  34.374  51.317  0.00  0.00    -0.121 NA
ATOM      4  C   UNL d   1      51.180  34.042  52.459  0.00  0.00     0.205 A 
ATOM      5  N   UNL d   1      51.196  34.047  51.586  0.00  0.00    -0.121 NA
ENDROOT
BRANCH   1   6
ATOM      6  C   UNL d   1      49.210  34.893  52.008  0.00  0.00     0.061 A 
ATOM      7  C   UNL d   1      48.944  35.288  52.668  0.00  0.00     0.012 A 
ATOM      8  C   UNL d   1      48.202  35.612  52.681  0.00  0.00     0.081 A 
ATOM      9  C   UNL d   1      47.715  35.543  52.027  0.00  0.00     0.086 A 
ATOM     10  N   UNL d   1      47.977  35.150  51.368  0.00  0.00    -0.245 NA
ATOM     11  C   UNL d   1      46.973  35.867  52.039  0.00  0.00     0.021 C 
ATOM     12  C   UNL d   1      48.723  34.823  51.353  0.00  0.00     0.085 A 
ATOM     13  C   UNL d   1      48.981  34.430  50.690  0.00  0.00     0.021 C 
BRANCH   8  14
ATOM     14  C   UNL d   1      47.944  36.002  53.336  0.00  0.00     0.302 C 
ATOM     15  O   UNL d   1      48.285  36.709  53.550  0.00  0.00    -0.259 OA
BRANCH  14  16
ATOM     16  O   UNL d   1      47.344  35.697  53.789  0.00  0.00    -0.271 OA
BRANCH  16  17
ATOM     17  C   UNL d   1      47.182  36.019  54.515  0.00  0.00     0.126 C 
ATOM     18  C   UNL d   1      46.476  35.832  54.900  0.00  0.00     0.029 C 
ENDBRANCH  16  17
ENDBRANCH  14  16
ENDBRANCH   8  14
ENDBRANCH   1   6
BRANCH   4  19
ATOM     19  C   UNL d   1      51.822  33.760  52.982  0.00  0.00     0.047 A 
ATOM     20  C   UNL d   1      52.163  34.295  53.564  0.00  0.00     0.030 A 
ATOM     21  C   UNL d   1      52.796  34.020  54.082  0.00  0.00     0.118 A 
ATOM     22  C   UNL d   1      53.091  33.199  54.015  0.00  0.00     0.138 A 
ATOM     23  C   UNL d   1      52.742  32.667  53.426  0.00  0.00     0.118 A 
ATOM     24  C   UNL d   1      52.107  32.947  52.909  0.00  0.00     0.030 A 
BRANCH  21  25
ATOM     25  O   UNL d   1      53.335  34.250  54.729  0.00  0.00    -0.326 OA
ATOM     26  C   UNL d   1      53.263  35.029  55.103  0.00  0.00     0.181 C 
ENDBRANCH  21  25
BRANCH  22  27
ATOM     27  O   UNL d   1      53.725  32.923  54.533  0.00  0.00    -0.324 OA
ATOM     28  C   UNL d   1      54.538  32.890  54.237  0.00  0.00     0.182 C 
ENDBRANCH  22  27
BRANCH  23  29
ATOM     29  O   UNL d   1      53.031  31.852  53.356  0.00  0.00    -0.326 OA
ATOM     30  C   UNL d   1      52.547  31.252  52.967  0.00  0.00     0.181 C 
ENDBRANCH  23  29
ENDBRANCH   4  19
TORSDOF 8
ENDMDL
MODEL 4
REMARK VINA RESULT:      -6.5      0.935      1.670
REMARK  8 active torsions:
REMARK  status: ('A' for Active; 'I' for Inactive)
REMARK    1  A    between atoms: C_2  and  C_1 
REMARK    2  A    between atoms: C_12  and  C_5 
REMARK    3  A    between atoms: C_14  and  C_6 
REMARK    4  A    between atoms: O_20  and  C_13 
REMARK    5  A    between atoms: O_21  and  C_14 
REMARK    6  A    between atoms: O_23  and  C_15 
REMARK    7  A    between atoms: O_22  and  C_16 
REMARK    8  A    between atoms: C_26  and  O_21 
ROOT
ATOM      1  C   UNL d   1      51.739  33.549  52.662  0.00  0.00     0.206 A 
ATOM      2  O   UNL d   1      50.931  33.725  52.905  0.00  0.00    -0.268 OA
ATOM      3  N   UNL d   1      51.936  34.073  52.003  0.00  0.00    -0.121 NA
ATOM      4  C   UNL d   1      50.625  34.357  52.399  0.00  0.00     0.205 A 
ATOM      5  N   UNL d   1      51.254  34.575  51.834  0.00  0.00    -0.121 NA
ENDROOT
BRANCH   1   6
ATOM      6  C   UNL d   1      52.225  32.985  53.002  0.00  0.00     0.061 A 
ATOM      7  C   UNL d   1      52.958  33.204  53.282  0.00  0.00     0.012 A 
ATOM      8  C   UNL d   1      53.449  32.656  53.620  0.00  0.00     0.081 A 
ATOM      9  C   UNL d   1      53.208  31.876  53.682  0.00  0.00     0.086 A 
ATOM     10  N   UNL d   1      52.480  31.654  53.404  0.00  0.00    -0.245 NA
ATOM     11  C   UNL d   1      53.699  31.327  54.020  0.00  0.00     0.021 C 
ATOM     12  C   UNL d   1      51.984  32.204  53.063  0.00  0.00     0.085 A 
ATOM     13  C   UNL d   1      51.255  31.977  52.785  0.00  0.00     0.021 C 
BRANCH   8  14
ATOM     14  C   UNL d   1      54.171  32.878  53.895  0.00  0.00     0.302 C 
ATOM     15  O   UNL d   1      54.841  32.712  53.464  0.00  0.00    -0.259 OA
BRANCH  14  16
ATOM     16  O   UNL d   1      54.242  33.269  54.603  0.00  0.00    -0.271 OA
BRANCH  16  17
ATOM     17  C   UNL d   1      54.912  33.695  54.764  0.00  0.00     0.126 C 
ATOM     18  C   UNL d   1      55.108  33.874  55.546  0.00  0.00     0.029 C 
ENDBRANCH  16  17
ENDBRANCH  14  16
ENDBRANCH   8  14
ENDBRANCH   1   6
BRANCH   4  19
ATOM     19  C   UNL d   1      49.828  34.716  52.443  0.00  0.00     0.047 A 
ATOM     20  C   UNL d   1      49.612  35.188  53.129  0.00  0.00     0.030 A 
ATOM     21  C   UNL d   1      48.826  35.544  53.176  0.00  0.00     0.118 A 
ATOM     22  C   UNL d   1      48.252  35.423  52.527  0.00  0.00     0.138 A 
ATOM     23  C   UNL d   1      48.478  34.945  51.840  0.00  0.00     0.118 A 
ATOM     24  C   UNL d   1      49.266  34.591  51.798  0.00  0.00     0.030 A 
BRANCH  21  25
ATOM     25  O   UNL d   1      48.298  36.038  53.665  0.00  0.00    -0.326 OA
ATOM     26  C   UNL d   1      48.541  36.284  54.460  0.00  0.00     0.181 C 
ENDBRANCH  21  25
BRANCH  22  27
ATOM     27  O   UNL d   1      47.466  35.778  52.574  0.00  0.00    -0.324 OA
ATOM     28  C   UNL d   1      47.238  36.394  52.009  0.00  0.00     0.182 C 
ENDBRANCH  22  27
BRANCH  23  29
ATOM     29  O   UNL d   1      47.912  34.823  51.195  0.00  0.00    -0.326 OA
ATOM     30  C   UNL d   1      47.982  34.131  50.681  0.00  0.00     0.181 C 
ENDBRANCH  23  29
ENDBRANCH   4  19
TORSDOF 8
ENDMDL
MODEL 5
REMARK VINA RESULT:      -5.9      1.365      5.942
REMARK  8 active torsions:
REMARK  status: ('A' for Active; 'I' for Inactive)
REMARK    1  A    between atoms: C_2  and  C_1 
REMARK    2  A    between atoms: C_12  and  C_5 
REMARK    3  A    between atoms: C_14  and  C_6 
REMARK    4  A    between atoms: O_20  and  C_13 
REMARK    5  A    between atoms: O_21  and  C_14 
REMARK    6  A    between atoms: O_23  and  C_15 
REMARK    7  A    between atoms: O_22  and  C_16 
REMARK    8  A    between atoms: C_26  and  O_21 
ROOT
ATOM      1  C   UNL d   1      49.416  34.894  52.526  0.00  0.00     0.206 A 
ATOM      2  O   UNL d   1      50.067  34.713  53.061  0.00  0.00    -0.268 OA
ATOM      3  N   UNL d   1      49.590  34.524  51.764  0.00  0.00    -0.121 NA
ATOM      4  C   UNL d   1      50.646  34.232  52.634  0.00  0.00     0.205 A 
ATOM      5  N   UNL d   1      50.348  34.113  51.822  0.00  0.00    -0.121 NA
ENDROOT
BRANCH   1   6
ATOM      6  C   UNL d   1      48.754  35.337  52.716  0.00  0.00     0.061 A 
ATOM      7  C   UNL d   1      48.182  35.464  52.150  0.00  0.00     0.012 A 
ATOM      8  C   UNL d   1      47.523  35.901  52.324  0.00  0.00     0.081 A 
ATOM      9  C   UNL d   1      47.429  36.218  53.073  0.00  0.00     0.086 A 
ATOM     10  N   UNL d   1      47.996  36.093  53.638  0.00  0.00    -0.245 NA
ATOM     11  C   UNL d   1      46.770  36.654  53.247  0.00  0.00     0.021 C 
ATOM     12  C   UNL d   1      48.661  35.654  53.465  0.00  0.00     0.085 A 
ATOM     13  C   UNL d   1      49.227  35.532  54.036  0.00  0.00     0.021 C 
BRANCH   8  14
ATOM     14  C   UNL d   1      46.961  36.023  51.761  0.00  0.00     0.302 C 
ATOM     15  O   UNL d   1      46.965  36.709  51.324  0.00  0.00    -0.259 OA
BRANCH  14  16
ATOM     16  O   UNL d   1      46.386  35.467  51.623  0.00  0.00    -0.271 OA
BRANCH  16  17
ATOM     17  C   UNL d   1      45.888  35.550  50.989  0.00  0.00     0.126 C 
ATOM     18  C   UNL d   1      45.185  35.118  50.959  0.00  0.00     0.029 C 
ENDBRANCH  16  17
ENDBRANCH  14  16
ENDBRANCH   8  14
ENDBRANCH   1   6
BRANCH   4  19
ATOM     19  C   UNL d   1      51.398  33.919  52.955  0.00  0.00     0.047 A 
ATOM     20  C   UNL d   1      51.576  33.081  52.879  0.00  0.00     0.030 A 
ATOM     21  C   UNL d   1      52.317  32.769  53.195  0.00  0.00     0.118 A 
ATOM     22  C   UNL d   1      52.883  33.305  53.592  0.00  0.00     0.138 A 
ATOM     23  C   UNL d   1      52.695  34.148  53.664  0.00  0.00     0.118 A 
ATOM     24  C   UNL d   1      51.952  34.455  53.346  0.00  0.00     0.030 A 
BRANCH  21  25
ATOM     25  O   UNL d   1      52.797  32.047  53.297  0.00  0.00    -0.326 OA
ATOM     26  C   UNL d   1      52.564  31.307  52.909  0.00  0.00     0.181 C 
ENDBRANCH  21  25
BRANCH  22  27
ATOM     27  O   UNL d   1      53.624  32.992  53.908  0.00  0.00    -0.324 OA
ATOM     28  C   UNL d   1      53.729  32.917  54.764  0.00  0.00     0.182 C 
ENDBRANCH  22  27
BRANCH  23  29
ATOM     29  O   UNL d   1      53.255  34.682  54.056  0.00  0.00    -0.326 OA
ATOM     30  C   UNL d   1      53.038  35.505  54.203  0.00  0.00     0.181 C 
ENDBRANCH  23  29
ENDBRANCH   4  19
TORSDOF 8
ENDMDL
MODEL 6
REMARK VINA RESULT:      -4.8      9.997     11.286
REMARK  8 active torsions:
REMARK  status: ('A' for Active; 'I' for Inactive)
REMARK    1  A    between atoms: C_2  and  C_1 
REMARK    2  A    between atoms: C_12  and  C_5 
REMARK    3  A    between atoms: C_14  and  C_6 
REMARK    4  A    between atoms: O_20  and  C_13 
REMARK    5  A    between atoms: O_21  and  C_14 
REMARK    6  A    between atoms: O_23  and  C_15 
REMARK    7  A    between atoms: O_22  and  C_16 
REMARK    8  A    between atoms: C_26  and  O_21 
ROOT
ATOM      1  C   UNL d   1      45.325  28.118  57.747  0.00  0.00     0.206 A 
ATOM      2  O   UNL d   1      44.857  27.490  57.385  0.00  0.00    -0.268 OA
ATOM      3  N   UNL d   1      46.078  27.774  57.996  0.00  0.00    -0.121 NA
ATOM      4  C   UNL d   1      45.317  26.758  57.409  0.00  0.00     0.205 A 
ATOM      5  N   UNL d   1      46.082  26.935  57.792  0.00  0.00    -0.121 NA
ENDROOT
BRANCH   1   6
ATOM      6  C   UNL d   1      45.089  28.897  57.834  0.00  0.00     0.061 A 
ATOM      7  C   UNL d   1      44.982  29.201  58.581  0.00  0.00     0.012 A 
ATOM      8  C   UNL d   1      44.749  29.970  58.682  0.00  0.00     0.081 A 
ATOM      9  C   UNL d   1      44.619  30.446  58.029  0.00  0.00     0.086 A 
ATOM     10  N   UNL d   1      44.724  30.146  57.284  0.00  0.00    -0.245 NA
ATOM     11  C   UNL d   1      44.385  31.215  58.129  0.00  0.00     0.021 C 
ATOM     12  C   UNL d   1      44.959  29.372  57.180  0.00  0.00     0.085 A 
ATOM     13  C   UNL d   1      45.063  29.076  56.430  0.00  0.00     0.021 C 
BRANCH   8  14
ATOM     14  C   UNL d   1      44.645  30.265  59.423  0.00  0.00     0.302 C 
ATOM     15  O   UNL d   1      44.873  31.028  59.593  0.00  0.00    -0.259 OA
BRANCH  14  16
ATOM     16  O   UNL d   1      44.314  29.810  60.008  0.00  0.00    -0.271 OA
BRANCH  16  17
ATOM     17  C   UNL d   1      44.336  30.062  60.778  0.00  0.00     0.126 C 
ATOM     18  C   UNL d   1      44.360  29.510  61.391  0.00  0.00     0.029 C 
ENDBRANCH  16  17
ENDBRANCH  14  16
ENDBRANCH   8  14
ENDBRANCH   1   6
BRANCH   4  19
ATOM     19  C   UNL d   1      45.064  25.977  57.105  0.00  0.00     0.047 A 
ATOM     20  C   UNL d   1      44.951  25.866  56.260  0.00  0.00     0.030 A 
ATOM     21  C   UNL d   1      44.702  25.097  55.956  0.00  0.00     0.118 A 
ATOM     22  C   UNL d   1      44.564  24.433  56.509  0.00  0.00     0.138 A 
ATOM     23  C   UNL d   1      44.680  24.554  57.360  0.00  0.00     0.118 A 
ATOM     24  C   UNL d   1      44.930  25.326  57.658  0.00  0.00     0.030 A 
BRANCH  21  25
ATOM     25  O   UNL d   1      44.504  24.649  55.234  0.00  0.00    -0.326 OA
ATOM     26  C   UNL d   1      44.392  25.061  54.479  0.00  0.00     0.181 C 
ENDBRANCH  21  25
BRANCH  22  27
ATOM     27  O   UNL d   1      44.314  23.664  56.205  0.00  0.00    -0.324 OA
ATOM     28  C   UNL d   1      44.909  23.074  55.987  0.00  0.00     0.182 C 
ENDBRANCH  22  27
BRANCH  23  29
ATOM     29  O   UNL d   1      44.544  23.897  57.909  0.00  0.00    -0.326 OA
ATOM     30  C   UNL d   1      44.820  23.953  58.727  0.00  0.00     0.181 C 
ENDBRANCH  23  29
ENDBRANCH   4  19
TORSDOF 8
ENDMDL
