MODEL 1
REMARK VINA RESULT:      -7.8      0.000      0.000
REMARK  4 active torsions:
REMARK  status: ('A' for Active; 'I' for Inactive)
REMARK    1  A    between atoms: N_4  and  S_1 
REMARK    2  A    between atoms: C_5  and  S_1 
REMARK    3  A    between atoms: C_3  and  C_9 
REMARK    4  A    between atoms: C_14  and  N_4 
ROOT
ATOM      1  S   UNL d   1     -47.767  13.308  22.592  0.00  0.00     0.285 S 
ATOM      2  O   UNL d   1     -47.643  13.152  21.794  0.00  0.00    -0.198 OA
ATOM      3  O   UNL d   1     -47.686  13.421  23.406  0.00  0.00    -0.198 OA
ENDROOT
BRANCH   1   4
ATOM      4  N   UNL d   1     -47.149  13.254  23.131  0.00  0.00    -0.158 NA
BRANCH   4   5
ATOM      5  C   UNL d   1     -46.392  13.052  22.870  0.00  0.00     0.094 A 
ATOM      6  C   UNL d   1     -46.039  12.347  23.121  0.00  0.00     0.021 A 
ATOM      7  C   UNL d   1     -45.287  12.151  22.858  0.00  0.00     0.020 A 
ATOM      8  C   UNL d   1     -44.879  12.656  22.341  0.00  0.00     0.002 A 
ATOM      9  C   UNL d   1     -45.226  13.351  22.093  0.00  0.00     0.002 A 
ATOM     10  C   UNL d   1     -45.983  13.556  22.353  0.00  0.00     0.020 A 
BRANCH   7  11
ATOM     11  C   UNL d   1     -44.934  11.446  23.109  0.00  0.00     0.088 A 
ATOM     12  N   UNL d   1     -43.591  10.963  23.185  0.00  0.00    -0.238 NA
ATOM     13  C   UNL d   1     -43.869  10.238  23.499  0.00  0.00     0.111 A 
ATOM     14  C   UNL d   1     -43.336   9.641  23.691  0.00  0.00     0.028 C 
ATOM     15  S   UNL d   1     -44.678  10.114  23.619  0.00  0.00    -0.066 SA
ATOM     16  C   UNL d   1     -45.211  10.725  23.421  0.00  0.00     0.056 A 
ENDBRANCH   7  11
ENDBRANCH   4   5
ENDBRANCH   1   4
BRANCH   1  17
ATOM     17  C   UNL d   1     -48.522  13.522  22.849  0.00  0.00     0.105 A 
ATOM     18  C   UNL d   1     -48.747  14.316  22.840  0.00  0.00     0.013 A 
ATOM     19  C   UNL d   1     -49.509  14.528  23.100  0.00  0.00     0.001 A 
ATOM     20  C   UNL d   1     -49.730  15.326  23.089  0.00  0.00     0.000 A 
ATOM     21  C   UNL d   1     -50.033  13.951  23.363  0.00  0.00     0.000 A 
ATOM     22  C   UNL d   1     -50.485  15.534  23.347  0.00  0.00     0.000 A 
ATOM     23  C   UNL d   1     -51.012  14.957  23.612  0.00  0.00     0.000 A 
ATOM     24  C   UNL d   1     -50.788  14.168  23.620  0.00  0.00     0.000 A 
ATOM     25  C   UNL d   1     -49.801  13.162  23.369  0.00  0.00     0.001 A 
ATOM     26  C   UNL d   1     -49.049  12.944  23.113  0.00  0.00     0.013 A 
ENDBRANCH   1  17
TORSDOF 4
ENDMDL
MODEL 2
REMARK VINA RESULT:      -7.3      1.476      5.345
REMARK  4 active torsions:
REMARK  status: ('A' for Active; 'I' for Inactive)
REMARK    1  A    between atoms: N_4  and  S_1 
REMARK    2  A    between atoms: C_5  and  S_1 
REMARK    3  A    between atoms: C_3  and  C_9 
REMARK    4  A    between atoms: C_14  and  N_4 
ROOT
ATOM      1  S   UNL d   1     -45.908  12.785  22.727  0.00  0.00     0.285 S 
ATOM      2  O   UNL d   1     -45.789  13.034  21.952  0.00  0.00    -0.198 OA
ATOM      3  O   UNL d   1     -46.130  12.719  23.520  0.00  0.00    -0.198 OA
ENDROOT
BRANCH   1   4
ATOM      4  N   UNL d   1     -46.327  13.252  23.258  0.00  0.00    -0.158 NA
BRANCH   4   5
ATOM      5  C   UNL d   1     -46.801  13.869  22.978  0.00  0.00     0.094 A 
ATOM      6  C   UNL d   1     -47.605  13.742  22.828  0.00  0.00     0.021 A 
ATOM      7  C   UNL d   1     -48.070  14.357  22.550  0.00  0.00     0.020 A 
ATOM      8  C   UNL d   1     -47.739  15.106  22.417  0.00  0.00     0.002 A 
ATOM      9  C   UNL d   1     -46.947  15.233  22.565  0.00  0.00     0.002 A 
ATOM     10  C   UNL d   1     -46.470  14.618  22.845  0.00  0.00     0.020 A 
BRANCH   7  11
ATOM     11  C   UNL d   1     -48.874  14.229  22.400  0.00  0.00     0.088 A 
ATOM     12  N   UNL d   1     -49.634  13.168  21.820  0.00  0.00    -0.238 NA
ATOM     13  C   UNL d   1     -50.339  13.605  21.944  0.00  0.00     0.111 A 
ATOM     14  C   UNL d   1     -51.064  13.290  21.716  0.00  0.00     0.028 C 
ATOM     15  S   UNL d   1     -50.313  14.353  22.296  0.00  0.00    -0.066 SA
ATOM     16  C   UNL d   1     -49.574  14.663  22.524  0.00  0.00     0.056 A 
ENDBRANCH   7  11
ENDBRANCH   4   5
ENDBRANCH   1   4
BRANCH   1  17
ATOM     17  C   UNL d   1     -45.602  12.057  22.970  0.00  0.00     0.105 A 
ATOM     18  C   UNL d   1     -44.791  11.917  22.914  0.00  0.00     0.013 A 
ATOM     19  C   UNL d   1     -44.484  11.182  23.160  0.00  0.00     0.001 A 
ATOM     20  C   UNL d   1     -43.670  11.046  23.103  0.00  0.00     0.000 A 
ATOM     21  C   UNL d   1     -44.988  10.602  23.455  0.00  0.00     0.000 A 
ATOM     22  C   UNL d   1     -43.369  10.318  23.346  0.00  0.00     0.000 A 
ATOM     23  C   UNL d   1     -43.871   9.735  23.643  0.00  0.00     0.000 A 
ATOM     24  C   UNL d   1     -44.677   9.875  23.697  0.00  0.00     0.000 A 
ATOM     25  C   UNL d   1     -45.795  10.750  23.507  0.00  0.00     0.001 A 
ATOM     26  C   UNL d   1     -46.105  11.474  23.266  0.00  0.00     0.013 A 
ENDBRANCH   1  17
TORSDOF 4
ENDMDL
MODEL 3
REMARK VINA RESULT:      -6.1      1.481      5.502
REMARK  4 active torsions:
REMARK  status: ('A' for Active; 'I' for Inactive)
REMARK    1  A    between atoms: N_4  and  S_1 
REMARK    2  A    between atoms: C_5  and  S_1 
REMARK    3  A    between atoms: C_3  and  C_9 
REMARK    4  A    between atoms: C_14  and  N_4 
ROOT
ATOM      1  S   UNL d   1     -46.545  12.795  22.890  0.00  0.00     0.285 S 
ATOM      2  O   UNL d   1     -46.619  12.929  23.698  0.00  0.00    -0.198 OA
ATOM      3  O   UNL d   1     -46.673  12.604  22.096  0.00  0.00    -0.198 OA
ENDROOT
BRANCH   1   4
ATOM      4  N   UNL d   1     -47.185  12.525  22.448  0.00  0.00    -0.158 NA
BRANCH   4   5
ATOM      5  C   UNL d   1     -47.910  12.385  22.819  0.00  0.00     0.094 A 
ATOM      6  C   UNL d   1     -48.454  13.001  22.916  0.00  0.00     0.021 A 
ATOM      7  C   UNL d   1     -49.172  12.856  23.285  0.00  0.00     0.020 A 
ATOM      8  C   UNL d   1     -49.356  12.096  23.562  0.00  0.00     0.002 A 
ATOM      9  C   UNL d   1     -48.819  11.488  23.468  0.00  0.00     0.002 A 
ATOM     10  C   UNL d   1     -48.093  11.625  23.097  0.00  0.00     0.020 A 
BRANCH   7  11
ATOM     11  C   UNL d   1     -49.717  13.471  23.381  0.00  0.00     0.088 A 
ATOM     12  N   UNL d   1     -49.719  14.869  23.085  0.00  0.00    -0.238 NA
ATOM     13  C   UNL d   1     -50.495  14.934  23.395  0.00  0.00     0.111 A 
ATOM     14  C   UNL d   1     -50.877  15.663  23.399  0.00  0.00     0.028 C 
ATOM     15  S   UNL d   1     -50.884  14.269  23.698  0.00  0.00    -0.066 SA
ATOM     16  C   UNL d   1     -50.488  13.535  23.689  0.00  0.00     0.056 A 
ENDBRANCH   7  11
ENDBRANCH   4   5
ENDBRANCH   1   4
BRANCH   1  17
ATOM     17  C   UNL d   1     -45.819  12.932  22.522  0.00  0.00     0.105 A 
ATOM     18  C   UNL d   1     -45.224  12.362  22.567  0.00  0.00     0.013 A 
ATOM     19  C   UNL d   1     -44.492  12.504  22.195  0.00  0.00     0.001 A 
ATOM     20  C   UNL d   1     -43.898  11.929  22.243  0.00  0.00     0.000 A 
ATOM     21  C   UNL d   1     -44.365  13.207  21.787  0.00  0.00     0.000 A 
ATOM     22  C   UNL d   1     -43.175  12.071  21.874  0.00  0.00     0.000 A 
ATOM     23  C   UNL d   1     -43.044  12.775  21.464  0.00  0.00     0.000 A 
ATOM     24  C   UNL d   1     -43.636  13.341  21.420  0.00  0.00     0.000 A 
ATOM     25  C   UNL d   1     -44.963  13.770  21.747  0.00  0.00     0.001 A 
ATOM     26  C   UNL d   1     -45.688  13.637  22.112  0.00  0.00     0.013 A 
ENDBRANCH   1  17
TORSDOF 4
ENDMDL
MODEL 4
REMARK VINA RESULT:      -5.5      1.195      1.666
REMARK  4 active torsions:
REMARK  status: ('A' for Active; 'I' for Inactive)
REMARK    1  A    between atoms: N_4  and  S_1 
REMARK    2  A    between atoms: C_5  and  S_1 
REMARK    3  A    between atoms: C_3  and  C_9 
REMARK    4  A    between atoms: C_14  and  N_4 
ROOT
ATOM      1  S   UNL d   1     -48.258  12.973  22.975  0.00  0.00     0.285 S 
ATOM      2  O   UNL d   1     -48.229  12.535  22.280  0.00  0.00    -0.198 OA
ATOM      3  O   UNL d   1     -48.093  13.338  23.698  0.00  0.00    -0.198 OA
ENDROOT
BRANCH   1   4
ATOM      4  N   UNL d   1     -47.616  12.990  23.489  0.00  0.00    -0.158 NA
BRANCH   4   5
ATOM      5  C   UNL d   1     -46.982  12.473  23.370  0.00  0.00     0.094 A 
ATOM      6  C   UNL d   1     -46.324  12.714  22.930  0.00  0.00     0.021 A 
ATOM      7  C   UNL d   1     -45.698  12.197  22.815  0.00  0.00     0.020 A 
ATOM      8  C   UNL d   1     -45.721  11.434  23.139  0.00  0.00     0.002 A 
ATOM      9  C   UNL d   1     -46.369  11.195  23.574  0.00  0.00     0.002 A 
ATOM     10  C   UNL d   1     -47.004  11.710  23.694  0.00  0.00     0.020 A 
BRANCH   7  11
ATOM     11  C   UNL d   1     -45.041  12.438  22.375  0.00  0.00     0.088 A 
ATOM     12  N   UNL d   1     -43.675  12.025  22.296  0.00  0.00    -0.238 NA
ATOM     13  C   UNL d   1     -43.532  12.610  21.713  0.00  0.00     0.111 A 
ATOM     14  C   UNL d   1     -42.780  12.691  21.387  0.00  0.00     0.028 C 
ATOM     15  S   UNL d   1     -44.140  13.110  21.460  0.00  0.00    -0.066 SA
ATOM     16  C   UNL d   1     -44.898  13.020  21.796  0.00  0.00     0.056 A 
ENDBRANCH   7  11
ENDBRANCH   4   5
ENDBRANCH   1   4
BRANCH   1  17
ATOM     17  C   UNL d   1     -48.942  13.399  23.156  0.00  0.00     0.105 A 
ATOM     18  C   UNL d   1     -48.951  14.218  23.057  0.00  0.00     0.013 A 
ATOM     19  C   UNL d   1     -49.643  14.645  23.241  0.00  0.00     0.001 A 
ATOM     20  C   UNL d   1     -49.647  15.467  23.140  0.00  0.00     0.000 A 
ATOM     21  C   UNL d   1     -50.310  14.252  23.518  0.00  0.00     0.000 A 
ATOM     22  C   UNL d   1     -50.332  15.888  23.322  0.00  0.00     0.000 A 
ATOM     23  C   UNL d   1     -51.003  15.496  23.600  0.00  0.00     0.000 A 
ATOM     24  C   UNL d   1     -50.993  14.682  23.698  0.00  0.00     0.000 A 
ATOM     25  C   UNL d   1     -50.293  13.436  23.613  0.00  0.00     0.001 A 
ATOM     26  C   UNL d   1     -49.613  13.007  23.434  0.00  0.00     0.013 A 
ENDBRANCH   1  17
TORSDOF 4
ENDMDL
MODEL 5
REMARK VINA RESULT:      -5.4      1.626      2.319
REMARK  4 active torsions:
REMARK  status: ('A' for Active; 'I' for Inactive)
REMARK    1  A    between atoms: N_4  and  S_1 
REMARK    2  A    between atoms: C_5  and  S_1 
REMARK    3  A    between atoms: C_3  and  C_9 
REMARK    4  A    between atoms: C_14  and  N_4 
ROOT
ATOM      1  S   UNL d   1     -46.888  13.893  22.902  0.00  0.00     0.285 S 
ATOM      2  O   UNL d   1     -46.447  13.982  23.591  0.00  0.00    -0.198 OA
ATOM      3  O   UNL d   1     -47.168  13.682  22.154  0.00  0.00    -0.198 OA
ENDROOT
BRANCH   1   4
ATOM      4  N   UNL d   1     -46.612  13.425  22.284  0.00  0.00    -0.158 NA
BRANCH   4   5
ATOM      5  C   UNL d   1     -45.950  12.944  22.398  0.00  0.00     0.094 A 
ATOM      6  C   UNL d   1     -45.228  13.137  22.042  0.00  0.00     0.021 A 
ATOM      7  C   UNL d   1     -44.575  12.656  22.158  0.00  0.00     0.020 A 
ATOM      8  C   UNL d   1     -44.633  11.977  22.630  0.00  0.00     0.002 A 
ATOM      9  C   UNL d   1     -45.343  11.785  22.982  0.00  0.00     0.002 A 
ATOM     10  C   UNL d   1     -46.008  12.264  22.870  0.00  0.00     0.020 A 
BRANCH   7  11
ATOM     11  C   UNL d   1     -43.853  12.850  21.802  0.00  0.00     0.088 A 
ATOM     12  N   UNL d   1     -43.135  14.064  21.577  0.00  0.00    -0.238 NA
ATOM     13  C   UNL d   1     -42.524  13.633  21.199  0.00  0.00     0.111 A 
ATOM     14  C   UNL d   1     -41.865  14.027  20.902  0.00  0.00     0.028 C 
ATOM     15  S   UNL d   1     -42.574  12.811  21.122  0.00  0.00    -0.066 SA
ATOM     16  C   UNL d   1     -43.246  12.421  21.426  0.00  0.00     0.056 A 
ENDBRANCH   7  11
ENDBRANCH   4   5
ENDBRANCH   1   4
BRANCH   1  17
ATOM     17  C   UNL d   1     -47.615  14.279  22.835  0.00  0.00     0.105 A 
ATOM     18  C   UNL d   1     -48.288  13.943  23.175  0.00  0.00     0.013 A 
ATOM     19  C   UNL d   1     -49.020  14.335  23.105  0.00  0.00     0.001 A 
ATOM     20  C   UNL d   1     -49.693  13.995  23.448  0.00  0.00     0.000 A 
ATOM     21  C   UNL d   1     -49.070  15.050  22.701  0.00  0.00     0.000 A 
ATOM     22  C   UNL d   1     -50.416  14.384  23.378  0.00  0.00     0.000 A 
ATOM     23  C   UNL d   1     -50.469  15.101  22.973  0.00  0.00     0.000 A 
ATOM     24  C   UNL d   1     -49.800  15.433  22.636  0.00  0.00     0.000 A 
ATOM     25  C   UNL d   1     -48.395  15.377  22.365  0.00  0.00     0.001 A 
ATOM     26  C   UNL d   1     -47.668  14.996  22.430  0.00  0.00     0.013 A 
ENDBRANCH   1  17
TORSDOF 4
ENDMDL
