MODEL 1
REMARK VINA RESULT:      12.7      0.000      0.000
REMARK  4 active torsions:
REMARK  status: ('A' for Active; 'I' for Inactive)
REMARK    1  A    between atoms: N_3  and  S_1 
REMARK    2  A    between atoms: N_4  and  S_1 
REMARK    3  A    between atoms: N_2  and  C_7 
REMARK    4  A    between atoms: C_10  and  N_4 
ROOT
ATOM      1  N   UNL d   1      45.892 -16.953  44.804  0.00  0.00    -0.144 NA
ENDROOT
BRANCH   1   2
ATOM      2  S   UNL d   1      46.057 -17.381  44.117  0.00  0.00     0.351 S 
ATOM      3  O   UNL d   1      45.930 -16.703  43.665  0.00  0.00    -0.180 OA
ATOM      4  O   UNL d   1      46.135 -17.412  43.297  0.00  0.00    -0.180 OA
BRANCH   2   5
ATOM      5  N   UNL d   1      46.248 -18.182  44.167  0.00  0.00    -0.215 N 
ATOM      6  C   UNL d   1      46.359 -18.622  43.478  0.00  0.00     0.093 A 
ATOM      7  C   UNL d   1      46.550 -19.423  43.527  0.00  0.00     0.020 A 
ATOM      8  C   UNL d   1      46.631 -19.779  44.264  0.00  0.00     0.003 A 
ATOM      9  C   UNL d   1      46.521 -19.342  44.954  0.00  0.00     0.020 A 
ATOM     10  C   UNL d   1      46.330 -18.542  44.905  0.00  0.00     0.093 A 
ENDBRANCH   2   5
ENDBRANCH   1   2
BRANCH   1  11
ATOM     11  C   UNL d   1      45.765 -16.139  44.762  0.00  0.00     0.095 A 
ATOM     12  C   UNL d   1      46.389 -15.634  44.570  0.00  0.00     0.022 A 
ATOM     13  C   UNL d   1      46.262 -14.820  44.528  0.00  0.00     0.025 A 
ATOM     14  C   UNL d   1      45.511 -14.511  44.678  0.00  0.00     0.127 A 
ATOM     15  C   UNL d   1      44.884 -15.017  44.871  0.00  0.00     0.025 A 
ATOM     16  C   UNL d   1      45.011 -15.831  44.913  0.00  0.00     0.022 A 
BRANCH  14  17
ATOM     17  N   UNL d   1      45.384 -13.696  44.637  0.00  0.00    -0.114 N 
ATOM     18  O   UNL d   1      44.684 -13.405  44.302  0.00  0.00    -0.532 OA
ATOM     19  O   UNL d   1      45.954 -13.175  44.928  0.00  0.00    -0.532 OA
ENDBRANCH  14  17
ENDBRANCH   1  11
TORSDOF 4
ENDMDL
MODEL 2
REMARK VINA RESULT:      13.6      1.624      4.441
REMARK  4 active torsions:
REMARK  status: ('A' for Active; 'I' for Inactive)
REMARK    1  A    between atoms: N_3  and  S_1 
REMARK    2  A    between atoms: N_4  and  S_1 
REMARK    3  A    between atoms: N_2  and  C_7 
REMARK    4  A    between atoms: C_10  and  N_4 
ROOT
ATOM      1  N   UNL d   1      45.767 -14.876  44.897  0.00  0.00    -0.144 NA
ENDROOT
BRANCH   1   2
ATOM      2  S   UNL d   1      45.156 -14.384  44.640  0.00  0.00     0.351 S 
ATOM      3  O   UNL d   1      44.611 -14.987  44.781  0.00  0.00    -0.180 OA
ATOM      4  O   UNL d   1      44.355 -14.259  44.488  0.00  0.00    -0.180 OA
BRANCH   2   5
ATOM      5  N   UNL d   1      45.324 -13.615  44.390  0.00  0.00    -0.215 N 
ATOM      6  C   UNL d   1      45.800 -13.126  44.852  0.00  0.00     0.093 A 
ATOM      7  C   UNL d   1      45.968 -12.358  44.602  0.00  0.00     0.020 A 
ATOM      8  C   UNL d   1      45.657 -12.084  43.892  0.00  0.00     0.003 A 
ATOM      9  C   UNL d   1      45.180 -12.569  43.428  0.00  0.00     0.020 A 
ATOM     10  C   UNL d   1      45.013 -13.337  43.678  0.00  0.00     0.093 A 
ENDBRANCH   2   5
ENDBRANCH   1   2
BRANCH   1  11
ATOM     11  C   UNL d   1      45.856 -15.628  44.569  0.00  0.00     0.095 A 
ATOM     12  C   UNL d   1      46.267 -15.723  43.860  0.00  0.00     0.022 A 
ATOM     13  C   UNL d   1      46.355 -16.475  43.532  0.00  0.00     0.025 A 
ATOM     14  C   UNL d   1      46.033 -17.132  43.914  0.00  0.00     0.127 A 
ATOM     15  C   UNL d   1      45.620 -17.038  44.627  0.00  0.00     0.025 A 
ATOM     16  C   UNL d   1      45.531 -16.287  44.954  0.00  0.00     0.022 A 
BRANCH  14  17
ATOM     17  N   UNL d   1      46.122 -17.884  43.586  0.00  0.00    -0.114 N 
ATOM     18  O   UNL d   1      46.401 -18.508  44.055  0.00  0.00    -0.532 OA
ATOM     19  O   UNL d   1      45.933 -18.013  42.793  0.00  0.00    -0.532 OA
ENDBRANCH  14  17
ENDBRANCH   1  11
TORSDOF 4
ENDMDL
MODEL 3
REMARK VINA RESULT:      14.0      1.403      4.261
REMARK  4 active torsions:
REMARK  status: ('A' for Active; 'I' for Inactive)
REMARK    1  A    between atoms: N_3  and  S_1 
REMARK    2  A    between atoms: N_4  and  S_1 
REMARK    3  A    between atoms: N_2  and  C_7 
REMARK    4  A    between atoms: C_10  and  N_4 
ROOT
ATOM      1  N   UNL d   1      46.277 -16.411  44.684  0.00  0.00    -0.144 NA
ENDROOT
BRANCH   1   2
ATOM      2  S   UNL d   1      45.574 -15.991  44.786  0.00  0.00     0.351 S 
ATOM      3  O   UNL d   1      45.177 -16.696  44.946  0.00  0.00    -0.180 OA
ATOM      4  O   UNL d   1      44.766 -15.980  44.955  0.00  0.00    -0.180 OA
BRANCH   2   5
ATOM      5  N   UNL d   1      45.566 -15.170  44.699  0.00  0.00    -0.215 N 
ATOM      6  C   UNL d   1      46.276 -14.753  44.670  0.00  0.00     0.093 A 
ATOM      7  C   UNL d   1      46.269 -13.932  44.582  0.00  0.00     0.020 A 
ATOM      8  C   UNL d   1      45.551 -13.535  44.524  0.00  0.00     0.003 A 
ATOM      9  C   UNL d   1      44.840 -13.949  44.553  0.00  0.00     0.020 A 
ATOM     10  C   UNL d   1      44.848 -14.769  44.640  0.00  0.00     0.093 A 
ENDBRANCH   2   5
ENDBRANCH   1   2
BRANCH   1  11
ATOM     11  C   UNL d   1      46.259 -17.183  44.395  0.00  0.00     0.095 A 
ATOM     12  C   UNL d   1      46.249 -17.319  43.581  0.00  0.00     0.022 A 
ATOM     13  C   UNL d   1      46.230 -18.091  43.293  0.00  0.00     0.025 A 
ATOM     14  C   UNL d   1      46.221 -18.728  43.818  0.00  0.00     0.127 A 
ATOM     15  C   UNL d   1      46.231 -18.593  44.636  0.00  0.00     0.025 A 
ATOM     16  C   UNL d   1      46.250 -17.821  44.925  0.00  0.00     0.022 A 
BRANCH  14  17
ATOM     17  N   UNL d   1      46.203 -19.501  43.529  0.00  0.00    -0.114 N 
ATOM     18  O   UNL d   1      46.198 -20.139  44.058  0.00  0.00    -0.532 OA
ATOM     19  O   UNL d   1      46.189 -19.636  42.715  0.00  0.00    -0.532 OA
ENDBRANCH  14  17
ENDBRANCH   1  11
TORSDOF 4
ENDMDL
