MODEL 1
REMARK VINA RESULT:      42.8      0.000      0.000
REMARK  2 active torsions:
REMARK  status: ('A' for Active; 'I' for Inactive)
REMARK    1  A    between atoms: C_10  and  C_3 
REMARK    2  A    between atoms: O_20  and  C_16 
ROOT
ATOM      1  C   UNL d   1      14.106  13.429  -2.631  0.00  0.00     0.203 A 
ATOM      2  C   UNL d   1      13.771  13.011  -3.264  0.00  0.00     0.101 A 
ATOM      3  C   UNL d   1      14.146  14.262  -2.644  0.00  0.00     0.064 A 
ATOM      4  C   UNL d   1      13.471  13.436  -3.921  0.00  0.00     0.109 A 
ATOM      5  C   UNL d   1      13.844  14.680  -3.305  0.00  0.00     0.126 A 
ATOM      6  C   UNL d   1      13.733  12.191  -3.248  0.00  0.00     0.204 A 
ATOM      7  O   UNL d   1      13.507  14.265  -3.943  0.00  0.00    -0.305 OA
ATOM      8  C   UNL d   1      13.136  13.018  -4.556  0.00  0.00     0.067 A 
ATOM      9  C   UNL d   1      13.400  11.780  -3.879  0.00  0.00     0.084 A 
ATOM     10  O   UNL d   1      14.403  13.017  -1.980  0.00  0.00    -0.286 OA
ATOM     11  C   UNL d   1      13.102  12.192  -4.530  0.00  0.00     0.201 A 
ATOM     12  O   UNL d   1      14.030  11.779  -2.598  0.00  0.00    -0.286 OA
ATOM     13  O   UNL d   1      12.769  11.781  -5.160  0.00  0.00    -0.286 OA
ENDROOT
BRANCH   3  14
ATOM     14  C   UNL d   1      14.479  14.673  -2.014  0.00  0.00     0.005 A 
ATOM     15  C   UNL d   1      14.645  15.477  -2.096  0.00  0.00     0.002 A 
ATOM     16  C   UNL d   1      14.979  15.889  -1.467  0.00  0.00     0.024 A 
ATOM     17  C   UNL d   1      15.145  15.506  -0.762  0.00  0.00     0.094 A 
ATOM     18  C   UNL d   1      14.974  14.693  -0.686  0.00  0.00     0.024 A 
ATOM     19  C   UNL d   1      14.641  14.281  -1.317  0.00  0.00     0.002 A 
BRANCH  17  20
ATOM     20  O   UNL d   1      15.478  15.917  -0.132  0.00  0.00    -0.328 OA
ATOM     21  C   UNL d   1      15.742  16.697  -0.236  0.00  0.00     0.181 C 
ENDBRANCH  17  20
ENDBRANCH   3  14
TORSDOF 2
ENDMDL
MODEL 2
REMARK VINA RESULT:      44.6      1.544      3.635
REMARK  2 active torsions:
REMARK  status: ('A' for Active; 'I' for Inactive)
REMARK    1  A    between atoms: C_10  and  C_3 
REMARK    2  A    between atoms: O_20  and  C_16 
ROOT
ATOM      1  C   UNL d   1      14.142  13.682  -2.540  0.00  0.00     0.203 A 
ATOM      2  C   UNL d   1      14.383  13.207  -1.904  0.00  0.00     0.101 A 
ATOM      3  C   UNL d   1      13.711  13.355  -3.175  0.00  0.00     0.064 A 
ATOM      4  C   UNL d   1      14.188  12.392  -1.904  0.00  0.00     0.109 A 
ATOM      5  C   UNL d   1      13.520  12.539  -3.168  0.00  0.00     0.126 A 
ATOM      6  C   UNL d   1      14.808  13.531  -1.280  0.00  0.00     0.204 A 
ATOM      7  O   UNL d   1      13.760  12.059  -2.532  0.00  0.00    -0.305 OA
ATOM      8  C   UNL d   1      14.429  11.917  -1.267  0.00  0.00     0.067 A 
ATOM      9  C   UNL d   1      15.045  13.057  -0.650  0.00  0.00     0.084 A 
ATOM     10  O   UNL d   1      14.331  14.485  -2.546  0.00  0.00    -0.286 OA
ATOM     11  C   UNL d   1      14.856  12.253  -0.644  0.00  0.00     0.201 A 
ATOM     12  O   UNL d   1      14.996  14.335  -1.286  0.00  0.00    -0.286 OA
ATOM     13  O   UNL d   1      15.094  11.779  -0.014  0.00  0.00    -0.286 OA
ENDROOT
BRANCH   3  14
ATOM     14  C   UNL d   1      13.474  13.829  -3.805  0.00  0.00     0.005 A 
ATOM     15  C   UNL d   1      13.683  14.627  -3.813  0.00  0.00     0.002 A 
ATOM     16  C   UNL d   1      13.446  15.102  -4.443  0.00  0.00     0.024 A 
ATOM     17  C   UNL d   1      13.006  14.785  -5.057  0.00  0.00     0.094 A 
ATOM     18  C   UNL d   1      12.798  13.978  -5.041  0.00  0.00     0.024 A 
ATOM     19  C   UNL d   1      13.036  13.504  -4.411  0.00  0.00     0.002 A 
BRANCH  17  20
ATOM     20  O   UNL d   1      12.769  15.259  -5.686  0.00  0.00    -0.328 OA
ATOM     21  C   UNL d   1      13.212  15.930  -5.894  0.00  0.00     0.181 C 
ENDBRANCH  17  20
ENDBRANCH   3  14
TORSDOF 2
ENDMDL
