MODEL 1
REMARK VINA RESULT:       3.6      0.000      0.000
REMARK  1 active torsions:
REMARK  status: ('A' for Active; 'I' for Inactive)
REMARK    1  A    between atoms: C_6  and  C_1 
ROOT
ATOM      1  C   UNL d   1      46.449 -19.090  43.540  0.00  0.00     0.085 A 
ATOM      2  C   UNL d   1      46.544 -19.899  43.688  0.00  0.00     0.137 A 
ATOM      3  C   UNL d   1      46.478 -18.965  42.742  0.00  0.00     0.013 A 
ATOM      4  C   UNL d   1      46.593 -19.696  42.390  0.00  0.00     0.031 A 
ATOM      5  S   UNL d   1      46.632 -20.266  42.986  0.00  0.00    -0.066 SA
ATOM      6  C   UNL d   1      46.417 -18.283  42.279  0.00  0.00     0.001 A 
ATOM      7  C   UNL d   1      46.646 -19.754  41.589  0.00  0.00     0.006 A 
ATOM      8  N   UNL d   1      46.550 -20.289  44.459  0.00  0.00    -0.141 N 
ATOM      9  C   UNL d   1      46.468 -18.328  41.480  0.00  0.00     0.000 A 
ATOM     10  C   UNL d   1      46.588 -19.096  41.123  0.00  0.00     0.001 A 
ATOM     11  C   UNL d   1      46.646 -19.162  40.259  0.00  0.00     0.000 C 
ENDROOT
BRANCH   1  12
ATOM     12  C   UNL d   1      46.339 -18.507  44.138  0.00  0.00     0.299 C 
ATOM     13  O   UNL d   1      46.298 -17.713  43.936  0.00  0.00    -0.264 OA
ATOM     14  N   UNL d   1      46.270 -18.732  44.955  0.00  0.00    -0.102 N 
ENDBRANCH   1  12
TORSDOF 1
ENDMDL
MODEL 2
REMARK VINA RESULT:       5.0      5.147      6.062
REMARK  1 active torsions:
REMARK  status: ('A' for Active; 'I' for Inactive)
REMARK    1  A    between atoms: C_6  and  C_1 
ROOT
ATOM      1  C   UNL d   1      45.437 -13.140  44.041  0.00  0.00     0.085 A 
ATOM      2  C   UNL d   1      46.066 -12.886  44.516  0.00  0.00     0.137 A 
ATOM      3  C   UNL d   1      45.319 -13.930  44.163  0.00  0.00     0.013 A 
ATOM      4  C   UNL d   1      45.874 -14.171  44.715  0.00  0.00     0.031 A 
ATOM      5  S   UNL d   1      46.330 -13.516  44.926  0.00  0.00    -0.066 SA
ATOM      6  C   UNL d   1      44.779 -14.471  43.848  0.00  0.00     0.001 A 
ATOM      7  C   UNL d   1      45.898 -14.939  44.954  0.00  0.00     0.006 A 
ATOM      8  N   UNL d   1      46.388 -12.086  44.569  0.00  0.00    -0.141 N 
ATOM      9  C   UNL d   1      44.793 -15.239  44.078  0.00  0.00     0.000 A 
ATOM     10  C   UNL d   1      45.376 -15.481  44.655  0.00  0.00     0.001 A 
ATOM     11  C   UNL d   1      45.404 -16.309  44.915  0.00  0.00     0.000 C 
ENDROOT
BRANCH   1  12
ATOM     12  C   UNL d   1      45.002 -12.639  43.521  0.00  0.00     0.299 C 
ATOM     13  O   UNL d   1      45.161 -12.646  42.716  0.00  0.00    -0.264 OA
ATOM     14  N   UNL d   1      44.397 -12.123  43.820  0.00  0.00    -0.102 N 
ENDBRANCH   1  12
TORSDOF 1
ENDMDL
MODEL 3
REMARK VINA RESULT:       6.3      7.373      7.627
REMARK  1 active torsions:
REMARK  status: ('A' for Active; 'I' for Inactive)
REMARK    1  A    between atoms: C_6  and  C_1 
ROOT
ATOM      1  C   UNL d   1      43.626 -15.704  36.804  0.00  0.00     0.085 A 
ATOM      2  C   UNL d   1      43.833 -16.454  36.518  0.00  0.00     0.137 A 
ATOM      3  C   UNL d   1      44.299 -15.268  36.903  0.00  0.00     0.013 A 
ATOM      4  C   UNL d   1      44.927 -15.745  36.679  0.00  0.00     0.031 A 
ATOM      5  S   UNL d   1      44.625 -16.476  36.443  0.00  0.00    -0.066 SA
ATOM      6  C   UNL d   1      44.432 -14.497  37.168  0.00  0.00     0.001 A 
ATOM      7  C   UNL d   1      45.680 -15.463  36.716  0.00  0.00     0.006 A 
ATOM      8  N   UNL d   1      43.296 -17.104  36.331  0.00  0.00    -0.141 N 
ATOM      9  C   UNL d   1      45.178 -14.205  37.209  0.00  0.00     0.000 A 
ATOM     10  C   UNL d   1      45.826 -14.710  36.974  0.00  0.00     0.001 A 
ATOM     11  C   UNL d   1      46.640 -14.409  37.012  0.00  0.00     0.000 C 
ENDROOT
BRANCH   1  12
ATOM     12  C   UNL d   1      42.836 -15.456  36.959  0.00  0.00     0.299 C 
ATOM     13  O   UNL d   1      42.611 -15.254  37.721  0.00  0.00    -0.264 OA
ATOM     14  N   UNL d   1      42.264 -15.412  36.332  0.00  0.00    -0.102 N 
ENDBRANCH   1  12
TORSDOF 1
ENDMDL
