MODEL 1
REMARK VINA RESULT:      59.9      0.000      0.000
REMARK  6 active torsions:
REMARK  status: ('A' for Active; 'I' for Inactive)
REMARK    1  A    between atoms: C_3  and  N_4 
REMARK       I    between atoms: N_4  and  C_6 
REMARK    2  A    between atoms: C_9  and  C_5 
REMARK    3  A    between atoms: C_6  and  C_16 
REMARK    4  A    between atoms: S_12  and  C_7 
REMARK    5  A    between atoms: O_20  and  C_8 
REMARK    6  A    between atoms: C_16  and  S_12 
ROOT
ATOM      1  S   UNL d   1     -50.624  27.303  34.274  0.00  0.00    -0.061 SA
ENDROOT
BRANCH   1   2
ATOM      2  C   UNL d   1     -49.972  27.744  34.528  0.00  0.00     0.133 A 
ATOM      3  N   UNL d   1     -49.947  28.561  34.413  0.00  0.00    -0.141 NA
ATOM      4  N   UNL d   1     -49.295  29.001  34.667  0.00  0.00    -0.146 NA
ATOM      5  C   UNL d   1     -48.657  28.617  35.043  0.00  0.00     0.121 A 
ATOM      6  C   UNL d   1     -48.681  27.800  35.158  0.00  0.00     0.025 A 
ATOM      7  C   UNL d   1     -49.329  27.360  34.906  0.00  0.00     0.029 A 
BRANCH   5   8
ATOM      8  C   UNL d   1     -48.004  29.065  35.296  0.00  0.00     0.101 A 
ATOM      9  N   UNL d   1     -48.095  29.628  35.891  0.00  0.00    -0.242 NA
ATOM     10  C   UNL d   1     -47.453  30.060  36.131  0.00  0.00     0.099 A 
ATOM     11  C   UNL d   1     -46.705  29.940  35.783  0.00  0.00     0.021 A 
ATOM     12  C   UNL d   1     -46.618  29.378  35.190  0.00  0.00     0.003 A 
ATOM     13  C   UNL d   1     -47.266  28.934  34.939  0.00  0.00     0.021 A 
ENDBRANCH   5   8
ENDBRANCH   1   2
BRANCH   1  14
ATOM     14  C   UNL d   1     -50.566  26.813  33.621  0.00  0.00     0.099 C 
BRANCH  14  15
ATOM     15  C   UNL d   1     -51.105  26.202  33.523  0.00  0.00     0.286 C 
ATOM     16  N   UNL d   1     -50.878  25.424  33.638  0.00  0.00    -0.206 NA
ATOM     17  O   UNL d   1     -51.885  26.365  33.307  0.00  0.00    -0.265 OA
BRANCH  16  18
ATOM     18  C   UNL d   1     -51.425  24.804  33.539  0.00  0.00     0.107 A 
ATOM     19  C   UNL d   1     -51.160  24.036  33.407  0.00  0.00     0.112 A 
ATOM     20  C   UNL d   1     -51.695  23.428  33.310  0.00  0.00     0.026 A 
ATOM     21  C   UNL d   1     -52.512  23.578  33.343  0.00  0.00     0.002 A 
ATOM     22  C   UNL d   1     -52.785  24.350  33.476  0.00  0.00     0.002 A 
ATOM     23  C   UNL d   1     -52.237  24.960  33.573  0.00  0.00     0.021 A 
ATOM     24  C   UNL d   1     -53.587  24.499  33.509  0.00  0.00     0.000 C 
BRANCH  19  25
ATOM     25  O   UNL d   1     -50.415  23.817  33.363  0.00  0.00    -0.327 OA
ATOM     26  C   UNL d   1     -50.091  23.239  33.837  0.00  0.00     0.181 C 
ENDBRANCH  19  25
ENDBRANCH  16  18
ENDBRANCH  14  15
ENDBRANCH   1  14
TORSDOF 6
ENDMDL
