MODEL 1
REMARK VINA RESULT:      -2.6      0.000      0.000
REMARK  3 active torsions:
REMARK  status: ('A' for Active; 'I' for Inactive)
REMARK    1  A    between atoms: N_2  and  C_1 
REMARK    2  A    between atoms: C_5  and  C_4 
REMARK       I    between atoms: N_6  and  C_5 
REMARK    3  A    between atoms: C_9  and  N_6 
ROOT
ATOM      1  C   UNL d   1      32.012  16.166 -23.531  0.00  0.00     0.285 C 
ATOM      2  N   UNL d   1      32.671  16.653 -23.423  0.00  0.00    -0.205 NA
ATOM      3  O   UNL d   1      31.952  15.453 -23.155  0.00  0.00    -0.265 OA
ENDROOT
BRANCH   1   4
ATOM      4  C   UNL d   1      31.400  16.397 -24.025  0.00  0.00     0.089 A 
ATOM      5  S   UNL d   1      30.694  16.672 -23.770  0.00  0.00    -0.059 SA
ATOM      6  C   UNL d   1      30.212  16.851 -24.396  0.00  0.00     0.156 A 
ATOM      7  C   UNL d   1      30.648  16.674 -25.097  0.00  0.00     0.031 A 
ATOM      8  C   UNL d   1      31.392  16.390 -24.862  0.00  0.00     0.014 A 
BRANCH   6   9
ATOM      9  N   UNL d   1      29.462  17.141 -24.343  0.00  0.00    -0.107 N 
ATOM     10  O   UNL d   1      28.837  16.807 -23.915  0.00  0.00    -0.531 OA
ATOM     11  O   UNL d   1      29.223  17.808 -24.708  0.00  0.00    -0.531 OA
ENDBRANCH   6   9
ENDBRANCH   1   4
BRANCH   2  12
ATOM     12  C   UNL d   1      32.712  17.368 -23.811  0.00  0.00     0.112 A 
ATOM     13  C   UNL d   1      32.658  18.070 -23.381  0.00  0.00     0.158 A 
ATOM     14  F   UNL d   1      32.561  18.055 -22.555  0.00  0.00    -0.203 F 
ATOM     15  C   UNL d   1      32.699  18.785 -23.769  0.00  0.00     0.031 A 
ATOM     16  C   UNL d   1      32.796  18.803 -24.588  0.00  0.00     0.002 A 
ATOM     17  C   UNL d   1      32.850  18.119 -25.019  0.00  0.00     0.002 A 
ATOM     18  C   UNL d   1      32.808  17.386 -24.630  0.00  0.00     0.021 A 
ENDBRANCH   2  12
TORSDOF 3
ENDMDL
MODEL 2
REMARK VINA RESULT:      -2.6      1.870      2.895
REMARK  3 active torsions:
REMARK  status: ('A' for Active; 'I' for Inactive)
REMARK    1  A    between atoms: N_2  and  C_1 
REMARK    2  A    between atoms: C_5  and  C_4 
REMARK       I    between atoms: N_6  and  C_5 
REMARK    3  A    between atoms: C_9  and  N_6 
ROOT
ATOM      1  C   UNL d   1      31.915  15.964 -24.531  0.00  0.00     0.285 C 
ATOM      2  N   UNL d   1      31.134  15.702 -24.599  0.00  0.00    -0.205 NA
ATOM      3  O   UNL d   1      32.537  15.453 -24.612  0.00  0.00    -0.265 OA
ENDROOT
BRANCH   1   4
ATOM      4  C   UNL d   1      32.079  16.752 -24.378  0.00  0.00     0.089 A 
ATOM      5  S   UNL d   1      32.329  17.032 -23.673  0.00  0.00    -0.059 SA
ATOM      6  C   UNL d   1      32.441  17.834 -23.705  0.00  0.00     0.156 A 
ATOM      7  C   UNL d   1      32.245  18.075 -24.490  0.00  0.00     0.031 A 
ATOM      8  C   UNL d   1      32.019  17.396 -24.910  0.00  0.00     0.014 A 
BRANCH   6   9
ATOM      9  N   UNL d   1      32.691  18.297 -23.096  0.00  0.00    -0.107 N 
ATOM     10  O   UNL d   1      33.181  18.063 -22.471  0.00  0.00    -0.531 OA
ATOM     11  O   UNL d   1      32.489  19.065 -23.017  0.00  0.00    -0.531 OA
ENDBRANCH   6   9
ENDBRANCH   1   4
BRANCH   2  12
ATOM     12  C   UNL d   1      30.522  16.232 -24.514  0.00  0.00     0.112 A 
ATOM     13  C   UNL d   1      30.035  16.192 -23.849  0.00  0.00     0.158 A 
ATOM     14  F   UNL d   1      30.163  15.615 -23.264  0.00  0.00    -0.203 F 
ATOM     15  C   UNL d   1      29.423  16.722 -23.764  0.00  0.00     0.031 A 
ATOM     16  C   UNL d   1      29.293  17.296 -24.342  0.00  0.00     0.002 A 
ATOM     17  C   UNL d   1      29.766  17.344 -24.998  0.00  0.00     0.002 A 
ATOM     18  C   UNL d   1      30.392  16.807 -25.092  0.00  0.00     0.021 A 
ENDBRANCH   2  12
TORSDOF 3
ENDMDL
MODEL 3
REMARK VINA RESULT:      -2.5      1.393      2.033
REMARK  3 active torsions:
REMARK  status: ('A' for Active; 'I' for Inactive)
REMARK    1  A    between atoms: N_2  and  C_1 
REMARK    2  A    between atoms: C_5  and  C_4 
REMARK       I    between atoms: N_6  and  C_5 
REMARK    3  A    between atoms: C_9  and  N_6 
ROOT
ATOM      1  C   UNL d   1      30.514  17.517 -24.796  0.00  0.00     0.285 C 
ATOM      2  N   UNL d   1      31.327  17.644 -24.727  0.00  0.00    -0.205 NA
ATOM      3  O   UNL d   1      30.023  18.087 -25.094  0.00  0.00    -0.265 OA
ENDROOT
BRANCH   1   4
ATOM      4  C   UNL d   1      30.182  16.804 -24.562  0.00  0.00     0.089 A 
ATOM      5  S   UNL d   1      29.753  16.705 -23.895  0.00  0.00    -0.059 SA
ATOM      6  C   UNL d   1      29.506  15.937 -23.825  0.00  0.00     0.156 A 
ATOM      7  C   UNL d   1      29.801  15.523 -24.499  0.00  0.00     0.031 A 
ATOM      8  C   UNL d   1      30.225  16.069 -24.959  0.00  0.00     0.014 A 
BRANCH   6   9
ATOM      9  N   UNL d   1      29.062  15.640 -23.221  0.00  0.00    -0.107 N 
ATOM     10  O   UNL d   1      29.329  15.463 -22.458  0.00  0.00    -0.531 OA
ATOM     11  O   UNL d   1      28.284  15.475 -23.289  0.00  0.00    -0.531 OA
ENDBRANCH   6   9
ENDBRANCH   1   4
BRANCH   2  12
ATOM     12  C   UNL d   1      31.803  17.058 -24.425  0.00  0.00     0.112 A 
ATOM     13  C   UNL d   1      32.155  17.157 -23.684  0.00  0.00     0.158 A 
ATOM     14  F   UNL d   1      32.027  17.851 -23.244  0.00  0.00    -0.203 F 
ATOM     15  C   UNL d   1      32.631  16.570 -23.382  0.00  0.00     0.031 A 
ATOM     16  C   UNL d   1      32.760  15.881 -23.816  0.00  0.00     0.002 A 
ATOM     17  C   UNL d   1      32.420  15.774 -24.543  0.00  0.00     0.002 A 
ATOM     18  C   UNL d   1      31.933  16.368 -24.859  0.00  0.00     0.021 A 
ENDBRANCH   2  12
TORSDOF 3
ENDMDL
MODEL 4
REMARK VINA RESULT:      -2.4      1.885      3.629
REMARK  3 active torsions:
REMARK  status: ('A' for Active; 'I' for Inactive)
REMARK    1  A    between atoms: N_2  and  C_1 
REMARK    2  A    between atoms: C_5  and  C_4 
REMARK       I    between atoms: N_6  and  C_5 
REMARK    3  A    between atoms: C_9  and  N_6 
ROOT
ATOM      1  C   UNL d   1      29.950  17.623 -24.821  0.00  0.00     0.285 C 
ATOM      2  N   UNL d   1      29.134  17.553 -24.714  0.00  0.00    -0.205 NA
ATOM      3  O   UNL d   1      30.280  18.308 -25.097  0.00  0.00    -0.265 OA
ENDROOT
BRANCH   1   4
ATOM      4  C   UNL d   1      30.448  16.995 -24.651  0.00  0.00     0.089 A 
ATOM      5  S   UNL d   1      30.924  16.958 -24.009  0.00  0.00    -0.059 SA
ATOM      6  C   UNL d   1      31.344  16.266 -24.003  0.00  0.00     0.156 A 
ATOM      7  C   UNL d   1      31.116  15.835 -24.692  0.00  0.00     0.031 A 
ATOM      8  C   UNL d   1      30.554  16.294 -25.097  0.00  0.00     0.014 A 
BRANCH   6   9
ATOM      9  N   UNL d   1      31.875  16.045 -23.439  0.00  0.00    -0.107 N 
ATOM     10  O   UNL d   1      32.657  16.310 -23.371  0.00  0.00    -0.531 OA
ATOM     11  O   UNL d   1      31.707  15.526 -22.857  0.00  0.00    -0.531 OA
ENDBRANCH   6   9
ENDBRANCH   1   4
BRANCH   2  12
ATOM     12  C   UNL d   1      28.822  16.854 -24.436  0.00  0.00     0.112 A 
ATOM     13  C   UNL d   1      28.488  16.827 -23.681  0.00  0.00     0.158 A 
ATOM     14  F   UNL d   1      28.467  17.506 -23.202  0.00  0.00    -0.203 F 
ATOM     15  C   UNL d   1      28.176  16.128 -23.403  0.00  0.00     0.031 A 
ATOM     16  C   UNL d   1      28.195  15.453 -23.876  0.00  0.00     0.002 A 
ATOM     17  C   UNL d   1      28.520  15.469 -24.618  0.00  0.00     0.002 A 
ATOM     18  C   UNL d   1      28.841  16.179 -24.908  0.00  0.00     0.021 A 
ENDBRANCH   2  12
TORSDOF 3
ENDMDL
MODEL 5
REMARK VINA RESULT:      -2.4      1.676      2.190
REMARK  3 active torsions:
REMARK  status: ('A' for Active; 'I' for Inactive)
REMARK    1  A    between atoms: N_2  and  C_1 
REMARK    2  A    between atoms: C_5  and  C_4 
REMARK       I    between atoms: N_6  and  C_5 
REMARK    3  A    between atoms: C_9  and  N_6 
ROOT
ATOM      1  C   UNL d   1      29.606  15.717 -23.134  0.00  0.00     0.285 C 
ATOM      2  N   UNL d   1      30.407  15.514 -23.136  0.00  0.00    -0.205 NA
ATOM      3  O   UNL d   1      29.109  15.461 -22.550  0.00  0.00    -0.265 OA
ENDROOT
BRANCH   1   4
ATOM      4  C   UNL d   1      29.295  16.188 -23.729  0.00  0.00     0.089 A 
ATOM      5  S   UNL d   1      29.145  16.970 -23.655  0.00  0.00    -0.059 SA
ATOM      6  C   UNL d   1      28.840  17.270 -24.342  0.00  0.00     0.156 A 
ATOM      7  C   UNL d   1      28.794  16.630 -24.889  0.00  0.00     0.031 A 
ATOM      8  C   UNL d   1      29.079  15.952 -24.503  0.00  0.00     0.014 A 
BRANCH   6   9
ATOM      9  N   UNL d   1      28.626  18.037 -24.463  0.00  0.00    -0.107 N 
ATOM     10  O   UNL d   1      28.146  18.497 -23.968  0.00  0.00    -0.531 OA
ATOM     11  O   UNL d   1      28.858  18.463 -25.097  0.00  0.00    -0.531 OA
ENDBRANCH   6   9
ENDBRANCH   1   4
BRANCH   2  12
ATOM     12  C   UNL d   1      30.891  15.782 -23.733  0.00  0.00     0.112 A 
ATOM     13  C   UNL d   1      31.443  16.375 -23.577  0.00  0.00     0.158 A 
ATOM     14  F   UNL d   1      31.510  16.702 -22.815  0.00  0.00    -0.203 F 
ATOM     15  C   UNL d   1      31.926  16.644 -24.174  0.00  0.00     0.031 A 
ATOM     16  C   UNL d   1      31.863  16.322 -24.931  0.00  0.00     0.002 A 
ATOM     17  C   UNL d   1      31.324  15.739 -25.094  0.00  0.00     0.002 A 
ATOM     18  C   UNL d   1      30.827  15.460 -24.490  0.00  0.00     0.021 A 
ENDBRANCH   2  12
TORSDOF 3
ENDMDL
MODEL 6
REMARK VINA RESULT:      -2.2      1.889      2.893
REMARK  3 active torsions:
REMARK  status: ('A' for Active; 'I' for Inactive)
REMARK    1  A    between atoms: N_2  and  C_1 
REMARK    2  A    between atoms: C_5  and  C_4 
REMARK       I    between atoms: N_6  and  C_5 
REMARK    3  A    between atoms: C_9  and  N_6 
ROOT
ATOM      1  C   UNL d   1      31.000  17.344 -24.449  0.00  0.00     0.285 C 
ATOM      2  N   UNL d   1      31.054  16.520 -24.405  0.00  0.00    -0.205 NA
ATOM      3  O   UNL d   1      30.288  17.711 -24.559  0.00  0.00    -0.265 OA
ENDROOT
BRANCH   1   4
ATOM      4  C   UNL d   1      31.670  17.810 -24.380  0.00  0.00     0.089 A 
ATOM      5  S   UNL d   1      31.885  18.197 -23.714  0.00  0.00    -0.059 SA
ATOM      6  C   UNL d   1      32.573  18.607 -23.829  0.00  0.00     0.156 A 
ATOM      7  C   UNL d   1      32.809  18.469 -24.627  0.00  0.00     0.031 A 
ATOM      8  C   UNL d   1      32.242  17.969 -24.971  0.00  0.00     0.014 A 
BRANCH   6   9
ATOM      9  N   UNL d   1      32.948  19.057 -23.276  0.00  0.00    -0.107 N 
ATOM     10  O   UNL d   1      33.164  18.818 -22.513  0.00  0.00    -0.531 OA
ATOM     11  O   UNL d   1      33.164  19.815 -23.401  0.00  0.00    -0.531 OA
ENDBRANCH   6   9
ENDBRANCH   1   4
BRANCH   2  12
ATOM     12  C   UNL d   1      31.780  16.169 -24.294  0.00  0.00     0.112 A 
ATOM     13  C   UNL d   1      31.953  15.807 -23.572  0.00  0.00     0.158 A 
ATOM     14  F   UNL d   1      31.392  15.797 -22.959  0.00  0.00    -0.203 F 
ATOM     15  C   UNL d   1      32.679  15.456 -23.461  0.00  0.00     0.031 A 
ATOM     16  C   UNL d   1      33.237  15.464 -24.068  0.00  0.00     0.002 A 
ATOM     17  C   UNL d   1      33.078  15.817 -24.779  0.00  0.00     0.002 A 
ATOM     18  C   UNL d   1      32.339  16.178 -24.901  0.00  0.00     0.021 A 
ENDBRANCH   2  12
TORSDOF 3
ENDMDL
