MODEL 1
REMARK VINA RESULT:      -7.8      0.000      0.000
REMARK  5 active torsions:
REMARK  status: ('A' for Active; 'I' for Inactive)
REMARK    1  A    between atoms: N_10  and  C_3 
REMARK    2  A    between atoms: C_11  and  C_5 
REMARK    3  A    between atoms: C_16  and  C_7 
REMARK    4  A    between atoms: C_15  and  N_10 
REMARK       I    between atoms: C_12  and  N_13 
REMARK    5  A    between atoms: N_13  and  C_17 
ROOT
ATOM      1  N   UNL d   1     -48.078  13.439  23.035  0.00  0.00    -0.184 N 
ATOM      2  C   UNL d   1     -48.820  13.799  23.062  0.00  0.00     0.168 A 
ATOM      3  C   UNL d   1     -48.003  12.666  23.225  0.00  0.00     0.217 A 
ATOM      4  N   UNL d   1     -47.513  14.635  22.629  0.00  0.00    -0.162 NA
ATOM      5  C   UNL d   1     -48.894  14.563  22.875  0.00  0.00     0.055 A 
ATOM      6  N   UNL d   1     -49.457  13.370  23.279  0.00  0.00    -0.227 NA
ATOM      7  C   UNL d   1     -48.646  12.236  23.443  0.00  0.00     0.066 A 
ATOM      8  C   UNL d   1     -48.243  14.989  22.657  0.00  0.00     0.104 A 
ATOM      9  C   UNL d   1     -49.388  12.596  23.470  0.00  0.00     0.087 A 
ATOM     10  C   UNL d   1     -48.327  15.763  22.468  0.00  0.00     0.023 C 
ATOM     11  C   UNL d   1     -50.062  12.149  23.698  0.00  0.00     0.021 C 
ENDROOT
BRANCH   3  12
ATOM     12  N   UNL d   1     -47.255  12.311  23.194  0.00  0.00    -0.383 NA
BRANCH  12  13
ATOM     13  C   UNL d   1     -46.472  12.044  23.159  0.00  0.00     0.134 A 
ATOM     14  C   UNL d   1     -46.205  11.478  23.698  0.00  0.00     0.034 A 
ATOM     15  C   UNL d   1     -45.418  11.216  23.655  0.00  0.00     0.022 A 
ATOM     16  C   UNL d   1     -44.908  11.518  23.082  0.00  0.00     0.085 A 
ATOM     17  C   UNL d   1     -45.171  12.086  22.540  0.00  0.00     0.022 A 
ATOM     18  C   UNL d   1     -45.961  12.354  22.576  0.00  0.00     0.034 A 
BRANCH  16  19
ATOM     19  N   UNL d   1     -44.122  11.244  23.053  0.00  0.00    -0.208 NA
ATOM     20  C   UNL d   1     -43.961  10.459  23.280  0.00  0.00     0.279 C 
ATOM     21  O   UNL d   1     -43.193  10.180  23.255  0.00  0.00    -0.265 OA
ATOM     22  C   UNL d   1     -44.568   9.958  23.529  0.00  0.00     0.068 C 
ENDBRANCH  16  19
ENDBRANCH  12  13
ENDBRANCH   3  12
BRANCH   7  23
ATOM     23  C   UNL d   1     -48.586  11.433  23.642  0.00  0.00     0.006 C 
ATOM     24  C   UNL d   1     -49.101  10.864  23.307  0.00  0.00     0.000 C 
ENDBRANCH   7  23
BRANCH   5  25
ATOM     25  C   UNL d   1     -49.613  14.911  22.902  0.00  0.00     0.004 A 
ATOM     26  C   UNL d   1     -49.821  15.366  23.523  0.00  0.00     0.000 A 
ATOM     27  C   UNL d   1     -50.551  15.720  23.550  0.00  0.00     0.000 A 
ATOM     28  C   UNL d   1     -51.063  15.615  22.956  0.00  0.00     0.000 A 
ATOM     29  C   UNL d   1     -50.858  15.155  22.325  0.00  0.00     0.000 A 
ATOM     30  C   UNL d   1     -50.138  14.806  22.298  0.00  0.00     0.000 A 
ENDBRANCH   5  25
TORSDOF 5
ENDMDL
MODEL 2
REMARK VINA RESULT:      -7.4      0.993      1.282
REMARK  5 active torsions:
REMARK  status: ('A' for Active; 'I' for Inactive)
REMARK    1  A    between atoms: N_10  and  C_3 
REMARK    2  A    between atoms: C_11  and  C_5 
REMARK    3  A    between atoms: C_16  and  C_7 
REMARK    4  A    between atoms: C_15  and  N_10 
REMARK       I    between atoms: C_12  and  N_13 
REMARK    5  A    between atoms: N_13  and  C_17 
ROOT
ATOM      1  N   UNL d   1     -47.805  13.664  22.749  0.00  0.00    -0.184 N 
ATOM      2  C   UNL d   1     -48.580  13.903  22.901  0.00  0.00     0.168 A 
ATOM      3  C   UNL d   1     -47.583  12.911  22.902  0.00  0.00     0.217 A 
ATOM      4  N   UNL d   1     -47.503  14.935  22.296  0.00  0.00    -0.162 NA
ATOM      5  C   UNL d   1     -48.799  14.646  22.750  0.00  0.00     0.055 A 
ATOM      6  N   UNL d   1     -49.101  13.378  23.202  0.00  0.00    -0.227 NA
ATOM      7  C   UNL d   1     -48.109  12.384  23.205  0.00  0.00     0.066 A 
ATOM      8  C   UNL d   1     -48.265  15.170  22.446  0.00  0.00     0.104 A 
ATOM      9  C   UNL d   1     -48.884  12.623  23.358  0.00  0.00     0.087 A 
ATOM     10  C   UNL d   1     -48.496  15.922  22.295  0.00  0.00     0.023 C 
ATOM     11  C   UNL d   1     -49.437  12.075  23.674  0.00  0.00     0.021 C 
ENDROOT
BRANCH   3  12
ATOM     12  N   UNL d   1     -46.803  12.678  22.746  0.00  0.00    -0.383 NA
BRANCH  12  13
ATOM     13  C   UNL d   1     -46.010  12.533  22.557  0.00  0.00     0.134 A 
ATOM     14  C   UNL d   1     -45.512  12.179  23.113  0.00  0.00     0.034 A 
ATOM     15  C   UNL d   1     -44.719  12.037  22.915  0.00  0.00     0.022 A 
ATOM     16  C   UNL d   1     -44.429  12.248  22.171  0.00  0.00     0.085 A 
ATOM     17  C   UNL d   1     -44.925  12.604  21.611  0.00  0.00     0.022 A 
ATOM     18  C   UNL d   1     -45.724  12.750  21.803  0.00  0.00     0.034 A 
BRANCH  16  19
ATOM     19  N   UNL d   1     -43.631  12.099  21.989  0.00  0.00    -0.208 NA
ATOM     20  C   UNL d   1     -43.191  12.688  21.598  0.00  0.00     0.279 C 
ATOM     21  O   UNL d   1     -42.405  12.553  21.414  0.00  0.00    -0.265 OA
ATOM     22  C   UNL d   1     -43.537  13.409  21.393  0.00  0.00     0.068 C 
ENDBRANCH  16  19
ENDBRANCH  12  13
ENDBRANCH   3  12
BRANCH   7  23
ATOM     23  C   UNL d   1     -47.895  11.600  23.369  0.00  0.00     0.006 C 
ATOM     24  C   UNL d   1     -48.463  11.043  23.631  0.00  0.00     0.000 C 
ENDBRANCH   7  23
BRANCH   5  25
ATOM     25  C   UNL d   1     -49.551  14.877  22.898  0.00  0.00     0.004 A 
ATOM     26  C   UNL d   1     -49.722  15.307  23.547  0.00  0.00     0.000 A 
ATOM     27  C   UNL d   1     -50.485  15.542  23.698  0.00  0.00     0.000 A 
ATOM     28  C   UNL d   1     -51.064  15.344  23.197  0.00  0.00     0.000 A 
ATOM     29  C   UNL d   1     -50.896  14.909  22.537  0.00  0.00     0.000 A 
ATOM     30  C   UNL d   1     -50.145  14.678  22.389  0.00  0.00     0.000 A 
ENDBRANCH   5  25
TORSDOF 5
ENDMDL
MODEL 3
REMARK VINA RESULT:      -7.1      0.984      2.144
REMARK  5 active torsions:
REMARK  status: ('A' for Active; 'I' for Inactive)
REMARK    1  A    between atoms: N_10  and  C_3 
REMARK    2  A    between atoms: C_11  and  C_5 
REMARK    3  A    between atoms: C_16  and  C_7 
REMARK    4  A    between atoms: C_15  and  N_10 
REMARK       I    between atoms: C_12  and  N_13 
REMARK    5  A    between atoms: N_13  and  C_17 
ROOT
ATOM      1  N   UNL d   1     -48.124  12.894  22.949  0.00  0.00    -0.184 N 
ATOM      2  C   UNL d   1     -48.677  13.474  22.756  0.00  0.00     0.168 A 
ATOM      3  C   UNL d   1     -47.346  13.080  22.979  0.00  0.00     0.217 A 
ATOM      4  N   UNL d   1     -49.141  11.965  23.074  0.00  0.00    -0.162 NA
ATOM      5  C   UNL d   1     -49.445  13.290  22.726  0.00  0.00     0.055 A 
ATOM      6  N   UNL d   1     -48.431  14.217  22.601  0.00  0.00    -0.227 NA
ATOM      7  C   UNL d   1     -47.100  13.828  22.823  0.00  0.00     0.066 A 
ATOM      8  C   UNL d   1     -49.686  12.536  22.884  0.00  0.00     0.104 A 
ATOM      9  C   UNL d   1     -47.654  14.409  22.630  0.00  0.00     0.087 A 
ATOM     10  C   UNL d   1     -50.466  12.358  22.852  0.00  0.00     0.023 C 
ATOM     11  C   UNL d   1     -47.400  15.193  22.466  0.00  0.00     0.021 C 
ENDROOT
BRANCH   3  12
ATOM     12  N   UNL d   1     -46.796  12.491  23.174  0.00  0.00    -0.383 NA
BRANCH  12  13
ATOM     13  C   UNL d   1     -46.290  11.850  23.304  0.00  0.00     0.134 A 
ATOM     14  C   UNL d   1     -45.478  11.933  23.177  0.00  0.00     0.034 A 
ATOM     15  C   UNL d   1     -44.977  11.284  23.310  0.00  0.00     0.022 A 
ATOM     16  C   UNL d   1     -45.286  10.563  23.567  0.00  0.00     0.085 A 
ATOM     17  C   UNL d   1     -46.100  10.475  23.696  0.00  0.00     0.022 A 
ATOM     18  C   UNL d   1     -46.610  11.123  23.564  0.00  0.00     0.034 A 
BRANCH  16  19
ATOM     19  N   UNL d   1     -44.771   9.923  23.696  0.00  0.00    -0.208 NA
ATOM     20  C   UNL d   1     -43.965  10.010  23.503  0.00  0.00     0.279 C 
ATOM     21  O   UNL d   1     -43.449   9.387  23.625  0.00  0.00    -0.265 OA
ATOM     22  C   UNL d   1     -43.680  10.718  23.190  0.00  0.00     0.068 C 
ENDBRANCH  16  19
ENDBRANCH  12  13
ENDBRANCH   3  12
BRANCH   7  23
ATOM     23  C   UNL d   1     -46.298  14.037  22.850  0.00  0.00     0.006 C 
ATOM     24  C   UNL d   1     -46.027  14.754  22.512  0.00  0.00     0.000 C 
ENDBRANCH   7  23
BRANCH   5  25
ATOM     25  C   UNL d   1     -49.982  13.853  22.539  0.00  0.00     0.004 A 
ATOM     26  C   UNL d   1     -50.208  13.963  21.783  0.00  0.00     0.000 A 
ATOM     27  C   UNL d   1     -50.753  14.535  21.593  0.00  0.00     0.000 A 
ATOM     28  C   UNL d   1     -51.064  14.987  22.162  0.00  0.00     0.000 A 
ATOM     29  C   UNL d   1     -50.839  14.880  22.930  0.00  0.00     0.000 A 
ATOM     30  C   UNL d   1     -50.302  14.317  23.117  0.00  0.00     0.000 A 
ENDBRANCH   5  25
TORSDOF 5
ENDMDL
