MODEL 1
REMARK VINA RESULT:      -3.4      0.000      0.000
REMARK  3 active torsions:
REMARK  status: ('A' for Active; 'I' for Inactive)
REMARK    1  A    between atoms: C_8  and  N_1 
REMARK    2  A    between atoms: C_9  and  C_14 
REMARK       I    between atoms: N_10  and  C_9 
REMARK    3  A    between atoms: C_16  and  N_12 
ROOT
ATOM      1  C   UNL d   1      33.045  20.167 -23.300  0.00  0.00     0.066 A 
ATOM      2  C   UNL d   1      32.881  18.786 -23.627  0.00  0.00     0.058 A 
ATOM      3  C   UNL d   1      32.872  19.398 -23.072  0.00  0.00     0.022 A 
ATOM      4  C   UNL d   1      33.230  20.336 -24.091  0.00  0.00     0.017 A 
ATOM      5  C   UNL d   1      33.067  18.955 -24.419  0.00  0.00     0.005 A 
ATOM      6  C   UNL d   1      33.240  19.728 -24.645  0.00  0.00     0.002 A 
ENDROOT
BRANCH   1   7
ATOM      7  N   UNL d   1      33.035  20.775 -22.746  0.00  0.00    -0.261 N 
ATOM      8  C   UNL d   1      33.138  20.503 -21.975  0.00  0.00     0.174 A 
ATOM      9  O   UNL d   1      33.172  20.865 -21.228  0.00  0.00    -0.316 OA
ATOM     10  C   UNL d   1      32.974  21.664 -22.419  0.00  0.00     0.079 A 
ATOM     11  C   UNL d   1      33.240  19.715 -21.769  0.00  0.00     0.055 C 
ATOM     12  C   UNL d   1      33.119  21.638 -20.948  0.00  0.00     0.094 A 
ATOM     13  C   UNL d   1      33.204  21.587 -20.122  0.00  0.00     0.024 A 
ATOM     14  C   UNL d   1      33.008  22.379 -21.297  0.00  0.00     0.022 A 
ATOM     15  C   UNL d   1      33.178  22.270 -19.659  0.00  0.00     0.002 A 
ATOM     16  C   UNL d   1      33.067  23.007 -20.016  0.00  0.00    -0.000 A 
ATOM     17  C   UNL d   1      32.982  23.062 -20.835  0.00  0.00    -0.001 A 
ATOM     18  C   UNL d   1      32.905  22.652 -22.068  0.00  0.00     0.137 A 
ATOM     19  N   UNL d   1      32.869  22.295 -22.822  0.00  0.00    -0.216 NA
ATOM     20  C   UNL d   1      32.923  21.522 -23.102  0.00  0.00     0.348 A 
ATOM     21  O   UNL d   1      32.848  21.481 -23.920  0.00  0.00    -0.245 OA
ENDBRANCH   1   7
BRANCH   2  22
ATOM     22  C   UNL d   1      32.707  18.013 -23.392  0.00  0.00     0.265 C 
ATOM     23  N   UNL d   1      32.007  17.658 -23.637  0.00  0.00    -0.269 N 
ATOM     24  C   UNL d   1      31.472  18.065 -24.117  0.00  0.00     0.102 A 
ATOM     25  C   UNL d   1      31.833  16.881 -23.400  0.00  0.00     0.102 A 
ATOM     26  C   UNL d   1      30.774  17.702 -24.357  0.00  0.00     0.100 A 
ATOM     27  N   UNL d   1      30.601  16.927 -24.120  0.00  0.00    -0.299 N 
ATOM     28  C   UNL d   1      31.136  16.520 -23.640  0.00  0.00     0.100 A 
ATOM     29  O   UNL d   1      33.240  17.601 -22.910  0.00  0.00    -0.267 OA
BRANCH  27  30
ATOM     30  C   UNL d   1      29.902  16.568 -24.363  0.00  0.00     0.092 A 
ATOM     31  C   UNL d   1      29.932  15.869 -24.799  0.00  0.00     0.156 A 
ATOM     32  F   UNL d   1      30.663  15.535 -24.990  0.00  0.00    -0.203 F 
ATOM     33  C   UNL d   1      29.230  15.503 -25.047  0.00  0.00     0.031 A 
ATOM     34  C   UNL d   1      28.500  15.848 -24.849  0.00  0.00     0.002 A 
ATOM     35  C   UNL d   1      28.476  16.551 -24.410  0.00  0.00     0.002 A 
ATOM     36  C   UNL d   1      29.178  16.907 -24.169  0.00  0.00     0.020 A 
ENDBRANCH  27  30
ENDBRANCH   2  22
TORSDOF 3
ENDMDL
MODEL 2
REMARK VINA RESULT:      -2.3      0.913      1.396
REMARK  3 active torsions:
REMARK  status: ('A' for Active; 'I' for Inactive)
REMARK    1  A    between atoms: C_8  and  N_1 
REMARK    2  A    between atoms: C_9  and  C_14 
REMARK       I    between atoms: N_10  and  C_9 
REMARK    3  A    between atoms: C_16  and  N_12 
ROOT
ATOM      1  C   UNL d   1      32.781  20.185 -22.604  0.00  0.00     0.066 A 
ATOM      2  C   UNL d   1      32.739  18.837 -23.078  0.00  0.00     0.058 A 
ATOM      3  C   UNL d   1      32.651  19.386 -22.467  0.00  0.00     0.022 A 
ATOM      4  C   UNL d   1      33.002  20.448 -23.359  0.00  0.00     0.017 A 
ATOM      5  C   UNL d   1      32.961  19.101 -23.834  0.00  0.00     0.005 A 
ATOM      6  C   UNL d   1      33.091  19.903 -23.969  0.00  0.00     0.002 A 
ENDROOT
BRANCH   1   7
ATOM      7  N   UNL d   1      32.692  20.729 -21.994  0.00  0.00    -0.261 N 
ATOM      8  C   UNL d   1      32.368  21.442 -22.251  0.00  0.00     0.174 A 
ATOM      9  O   UNL d   1      32.167  22.159 -21.881  0.00  0.00    -0.316 OA
ATOM     10  C   UNL d   1      32.734  21.072 -21.111  0.00  0.00     0.079 A 
ATOM     11  C   UNL d   1      32.154  21.604 -23.027  0.00  0.00     0.055 C 
ATOM     12  C   UNL d   1      32.205  22.453 -21.112  0.00  0.00     0.094 A 
ATOM     13  C   UNL d   1      31.902  23.226 -21.150  0.00  0.00     0.024 A 
ATOM     14  C   UNL d   1      32.462  22.155 -20.385  0.00  0.00     0.022 A 
ATOM     15  C   UNL d   1      31.859  23.688 -20.468  0.00  0.00     0.002 A 
ATOM     16  C   UNL d   1      32.118  23.383 -19.744  0.00  0.00    -0.000 A 
ATOM     17  C   UNL d   1      32.420  22.616 -19.703  0.00  0.00    -0.001 A 
ATOM     18  C   UNL d   1      32.786  21.442 -20.129  0.00  0.00     0.137 A 
ATOM     19  N   UNL d   1      32.991  20.719 -20.493  0.00  0.00    -0.216 NA
ATOM     20  C   UNL d   1      32.952  20.425 -21.262  0.00  0.00     0.348 A 
ATOM     21  O   UNL d   1      33.237  19.655 -21.315  0.00  0.00    -0.245 OA
ENDBRANCH   1   7
BRANCH   2  22
ATOM     22  C   UNL d   1      32.607  18.035 -22.935  0.00  0.00     0.265 C 
ATOM     23  N   UNL d   1      31.929  17.672 -23.226  0.00  0.00    -0.269 N 
ATOM     24  C   UNL d   1      31.374  18.101 -23.661  0.00  0.00     0.102 A 
ATOM     25  C   UNL d   1      31.798  16.865 -23.080  0.00  0.00     0.102 A 
ATOM     26  C   UNL d   1      30.698  17.730 -23.948  0.00  0.00     0.100 A 
ATOM     27  N   UNL d   1      30.568  16.924 -23.803  0.00  0.00    -0.299 N 
ATOM     28  C   UNL d   1      31.122  16.495 -23.367  0.00  0.00     0.100 A 
ATOM     29  O   UNL d   1      33.161  17.599 -22.498  0.00  0.00    -0.267 OA
BRANCH  27  30
ATOM     30  C   UNL d   1      29.891  16.558 -24.092  0.00  0.00     0.092 A 
ATOM     31  C   UNL d   1      29.545  15.943 -23.664  0.00  0.00     0.156 A 
ATOM     32  F   UNL d   1      29.882  15.700 -22.950  0.00  0.00    -0.203 F 
ATOM     33  C   UNL d   1      28.862  15.570 -23.951  0.00  0.00     0.031 A 
ATOM     34  C   UNL d   1      28.532  15.822 -24.671  0.00  0.00     0.002 A 
ATOM     35  C   UNL d   1      28.884  16.441 -25.096  0.00  0.00     0.002 A 
ATOM     36  C   UNL d   1      29.562  16.805 -24.804  0.00  0.00     0.020 A 
ENDBRANCH  27  30
ENDBRANCH   2  22
TORSDOF 3
ENDMDL
