MODEL 1
REMARK VINA RESULT:      -3.1      0.000      0.000
REMARK  7 active torsions:
REMARK  status: ('A' for Active; 'I' for Inactive)
REMARK    1  A    between atoms: C_3  and  C_1 
REMARK    2  A    between atoms: N_2  and  C_9 
REMARK    3  A    between atoms: C_14  and  N_2 
REMARK    4  A    between atoms: O_6  and  C_8 
REMARK    5  A    between atoms: C_10  and  O_6 
REMARK    6  A    between atoms: C_7  and  C_10 
REMARK    7  A    between atoms: C_9  and  C_7 
ROOT
ATOM      1  C   UNL d   1      32.835  21.409 -21.506  0.00  0.00     0.000 A 
ATOM      2  C   UNL d   1      32.830  20.681 -21.118  0.00  0.00     0.002 A 
ATOM      3  C   UNL d   1      32.976  21.439 -22.323  0.00  0.00     0.002 A 
ATOM      4  C   UNL d   1      33.105  20.017 -22.348  0.00  0.00     0.100 A 
ATOM      5  C   UNL d   1      33.112  20.745 -22.746  0.00  0.00     0.025 A 
ATOM      6  C   UNL d   1      32.964  19.989 -21.536  0.00  0.00     0.025 A 
ENDROOT
BRANCH   4   7
ATOM      7  O   UNL d   1      33.240  19.324 -22.770  0.00  0.00    -0.302 OA
BRANCH   7   8
ATOM      8  C   UNL d   1      32.620  18.804 -22.938  0.00  0.00     0.166 C 
BRANCH   8   9
ATOM      9  C   UNL d   1      32.739  18.148 -23.420  0.00  0.00     0.239 C 
ATOM     10  O   UNL d   1      33.233  18.214 -24.078  0.00  0.00    -0.283 OA
BRANCH   9  11
ATOM     11  C   UNL d   1      32.370  17.432 -23.247  0.00  0.00     0.143 C 
BRANCH  11  12
ATOM     12  N   UNL d   1      31.909  17.057 -23.825  0.00  0.00    -0.241 NA
BRANCH  12  13
ATOM     13  C   UNL d   1      31.574  16.321 -23.652  0.00  0.00     0.082 C 
ATOM     14  C   UNL d   1      30.755  16.234 -23.677  0.00  0.00     0.021 C 
ATOM     15  C   UNL d   1      32.051  15.678 -23.455  0.00  0.00     0.021 C 
ENDBRANCH  12  13
ENDBRANCH  11  12
ENDBRANCH   9  11
ENDBRANCH   8   9
ENDBRANCH   7   8
ENDBRANCH   4   7
BRANCH   1  16
ATOM     16  C   UNL d   1      32.701  22.099 -21.092  0.00  0.00     0.000 A 
ATOM     17  C   UNL d   1      32.218  22.691 -21.417  0.00  0.00     0.000 A 
ATOM     18  C   UNL d   1      32.085  23.390 -20.993  0.00  0.00     0.000 A 
ATOM     19  C   UNL d   1      32.427  23.502 -20.252  0.00  0.00     0.000 A 
ATOM     20  C   UNL d   1      32.906  22.917 -19.925  0.00  0.00     0.000 A 
ATOM     21  C   UNL d   1      33.047  22.212 -20.342  0.00  0.00     0.000 A 
ENDBRANCH   1  16
TORSDOF 7
ENDMDL
MODEL 2
REMARK VINA RESULT:      -2.1      1.677      5.854
REMARK  7 active torsions:
REMARK  status: ('A' for Active; 'I' for Inactive)
REMARK    1  A    between atoms: C_3  and  C_1 
REMARK    2  A    between atoms: N_2  and  C_9 
REMARK    3  A    between atoms: C_14  and  N_2 
REMARK    4  A    between atoms: O_6  and  C_8 
REMARK    5  A    between atoms: C_10  and  O_6 
REMARK    6  A    between atoms: C_7  and  C_10 
REMARK    7  A    between atoms: C_9  and  C_7 
ROOT
ATOM      1  C   UNL d   1      29.935  16.617 -23.986  0.00  0.00     0.000 A 
ATOM      2  C   UNL d   1      29.997  17.372 -24.313  0.00  0.00     0.002 A 
ATOM      3  C   UNL d   1      30.607  16.247 -23.672  0.00  0.00     0.002 A 
ATOM      4  C   UNL d   1      31.391  17.390 -24.017  0.00  0.00     0.100 A 
ATOM      5  C   UNL d   1      31.336  16.631 -23.687  0.00  0.00     0.025 A 
ATOM      6  C   UNL d   1      30.721  17.757 -24.329  0.00  0.00     0.025 A 
ENDROOT
BRANCH   4   7
ATOM      7  O   UNL d   1      32.119  17.773 -24.032  0.00  0.00    -0.302 OA
BRANCH   7   8
ATOM      8  C   UNL d   1      32.342  18.277 -23.416  0.00  0.00     0.166 C 
BRANCH   8   9
ATOM      9  C   UNL d   1      32.882  18.886 -23.545  0.00  0.00     0.239 C 
ATOM     10  O   UNL d   1      33.144  19.038 -24.313  0.00  0.00    -0.283 OA
BRANCH   9  11
ATOM     11  C   UNL d   1      33.157  19.338 -22.914  0.00  0.00     0.143 C 
BRANCH  11  12
ATOM     12  N   UNL d   1      32.854  20.099 -22.790  0.00  0.00    -0.241 NA
BRANCH  12  13
ATOM     13  C   UNL d   1      33.112  20.530 -22.133  0.00  0.00     0.082 C 
ATOM     14  C   UNL d   1      33.241  21.340 -22.206  0.00  0.00     0.021 C 
ATOM     15  C   UNL d   1      33.241  20.155 -21.410  0.00  0.00     0.021 C 
ENDBRANCH  12  13
ENDBRANCH  11  12
ENDBRANCH   9  11
ENDBRANCH   8   9
ENDBRANCH   7   8
ENDBRANCH   4   7
BRANCH   1  16
ATOM     16  C   UNL d   1      29.215  16.234 -23.969  0.00  0.00     0.000 A 
ATOM     17  C   UNL d   1      28.913  15.890 -24.662  0.00  0.00     0.000 A 
ATOM     18  C   UNL d   1      28.182  15.501 -24.643  0.00  0.00     0.000 A 
ATOM     19  C   UNL d   1      27.752  15.453 -23.941  0.00  0.00     0.000 A 
ATOM     20  C   UNL d   1      28.048  15.793 -23.252  0.00  0.00     0.000 A 
ATOM     21  C   UNL d   1      28.780  16.185 -23.261  0.00  0.00     0.000 A 
ENDBRANCH   1  16
TORSDOF 7
ENDMDL
MODEL 3
REMARK VINA RESULT:      -1.5      1.801      5.418
REMARK  7 active torsions:
REMARK  status: ('A' for Active; 'I' for Inactive)
REMARK    1  A    between atoms: C_3  and  C_1 
REMARK    2  A    between atoms: N_2  and  C_9 
REMARK    3  A    between atoms: C_14  and  N_2 
REMARK    4  A    between atoms: O_6  and  C_8 
REMARK    5  A    between atoms: C_10  and  O_6 
REMARK    6  A    between atoms: C_7  and  C_10 
REMARK    7  A    between atoms: C_9  and  C_7 
ROOT
ATOM      1  C   UNL d   1      32.845  18.851 -23.498  0.00  0.00     0.000 A 
ATOM      2  C   UNL d   1      32.980  19.414 -24.086  0.00  0.00     0.002 A 
ATOM      3  C   UNL d   1      32.842  19.080 -22.701  0.00  0.00     0.002 A 
ATOM      4  C   UNL d   1      33.109  20.427 -23.092  0.00  0.00     0.100 A 
ATOM      5  C   UNL d   1      32.974  19.867 -22.495  0.00  0.00     0.025 A 
ATOM      6  C   UNL d   1      33.112  20.198 -23.884  0.00  0.00     0.025 A 
ENDROOT
BRANCH   4   7
ATOM      7  O   UNL d   1      33.241  21.213 -22.887  0.00  0.00    -0.302 OA
BRANCH   7   8
ATOM      8  C   UNL d   1      32.942  21.521 -22.181  0.00  0.00     0.166 C 
BRANCH   8   9
ATOM      9  C   UNL d   1      32.991  22.326 -22.019  0.00  0.00     0.239 C 
ATOM     10  O   UNL d   1      32.871  22.870 -22.628  0.00  0.00    -0.283 OA
BRANCH   9  11
ATOM     11  C   UNL d   1      33.158  22.588 -21.255  0.00  0.00     0.143 C 
BRANCH  11  12
ATOM     12  N   UNL d   1      32.595  22.493 -20.656  0.00  0.00    -0.241 NA
BRANCH  12  13
ATOM     13  C   UNL d   1      32.716  22.874 -19.931  0.00  0.00     0.082 C 
ATOM     14  C   UNL d   1      32.315  23.576 -19.772  0.00  0.00     0.021 C 
ATOM     15  C   UNL d   1      33.232  22.557 -19.371  0.00  0.00     0.021 C 
ENDBRANCH  12  13
ENDBRANCH  11  12
ENDBRANCH   9  11
ENDBRANCH   8   9
ENDBRANCH   7   8
ENDBRANCH   4   7
BRANCH   1  16
ATOM     16  C   UNL d   1      32.714  18.071 -23.697  0.00  0.00     0.000 A 
ATOM     17  C   UNL d   1      32.704  17.488 -23.106  0.00  0.00     0.000 A 
ATOM     18  C   UNL d   1      32.571  16.697 -23.311  0.00  0.00     0.000 A 
ATOM     19  C   UNL d   1      32.448  16.484 -24.097  0.00  0.00     0.000 A 
ATOM     20  C   UNL d   1      32.456  17.058 -24.688  0.00  0.00     0.000 A 
ATOM     21  C   UNL d   1      32.589  17.855 -24.492  0.00  0.00     0.000 A 
ENDBRANCH   1  16
TORSDOF 7
ENDMDL
MODEL 4
REMARK VINA RESULT:      -0.9      1.732      2.990
REMARK  7 active torsions:
REMARK  status: ('A' for Active; 'I' for Inactive)
REMARK    1  A    between atoms: C_3  and  C_1 
REMARK    2  A    between atoms: N_2  and  C_9 
REMARK    3  A    between atoms: C_14  and  N_2 
REMARK    4  A    between atoms: O_6  and  C_8 
REMARK    5  A    between atoms: C_10  and  O_6 
REMARK    6  A    between atoms: C_7  and  C_10 
REMARK    7  A    between atoms: C_9  and  C_7 
ROOT
ATOM      1  C   UNL d   1      32.634  19.069 -23.172  0.00  0.00     0.000 A 
ATOM      2  C   UNL d   1      32.744  18.390 -22.716  0.00  0.00     0.002 A 
ATOM      3  C   UNL d   1      32.320  19.005 -23.937  0.00  0.00     0.002 A 
ATOM      4  C   UNL d   1      32.231  17.589 -23.778  0.00  0.00     0.100 A 
ATOM      5  C   UNL d   1      32.118  18.268 -24.242  0.00  0.00     0.025 A 
ATOM      6  C   UNL d   1      32.543  17.654 -23.017  0.00  0.00     0.025 A 
ENDROOT
BRANCH   4   7
ATOM      7  O   UNL d   1      32.029  16.852 -24.082  0.00  0.00    -0.302 OA
BRANCH   7   8
ATOM      8  C   UNL d   1      31.404  16.773 -24.617  0.00  0.00     0.166 C 
BRANCH   8   9
ATOM      9  C   UNL d   1      30.933  16.097 -24.617  0.00  0.00     0.239 C 
ATOM     10  O   UNL d   1      31.144  15.457 -25.093  0.00  0.00    -0.283 OA
BRANCH   9  11
ATOM     11  C   UNL d   1      30.258  16.061 -24.146  0.00  0.00     0.143 C 
BRANCH  11  12
ATOM     12  N   UNL d   1      29.532  15.852 -24.485  0.00  0.00    -0.241 NA
BRANCH  12  13
ATOM     13  C   UNL d   1      28.834  16.057 -24.091  0.00  0.00     0.082 C 
ATOM     14  C   UNL d   1      28.423  15.480 -23.670  0.00  0.00     0.021 C 
ATOM     15  C   UNL d   1      28.549  16.831 -24.116  0.00  0.00     0.021 C 
ENDBRANCH  12  13
ENDBRANCH  11  12
ENDBRANCH   9  11
ENDBRANCH   8   9
ENDBRANCH   7   8
ENDBRANCH   4   7
BRANCH   1  16
ATOM     16  C   UNL d   1      32.833  19.802 -22.874  0.00  0.00     0.000 A 
ATOM     17  C   UNL d   1      32.944  20.443 -23.390  0.00  0.00     0.000 A 
ATOM     18  C   UNL d   1      33.146  21.185 -23.084  0.00  0.00     0.000 A 
ATOM     19  C   UNL d   1      33.237  21.293 -22.272  0.00  0.00     0.000 A 
ATOM     20  C   UNL d   1      33.128  20.660 -21.757  0.00  0.00     0.000 A 
ATOM     21  C   UNL d   1      32.925  19.911 -22.053  0.00  0.00     0.000 A 
ENDBRANCH   1  16
TORSDOF 7
ENDMDL
