MODEL 1
REMARK VINA RESULT:      48.1      0.000      0.000
REMARK  3 active torsions:
REMARK  status: ('A' for Active; 'I' for Inactive)
REMARK    1  A    between atoms: C_14  and  N_3 
REMARK    2  A    between atoms: O_17  and  C_12 
REMARK    3  A    between atoms: O_16  and  C_13 
ROOT
ATOM      1  C   UNL d   1     -50.806  25.047  33.544  0.00  0.00     0.166 A 
ATOM      2  C   UNL d   1     -51.163  25.812  33.465  0.00  0.00     0.117 A 
ATOM      3  N   UNL d   1     -49.984  25.158  33.592  0.00  0.00    -0.289 N 
ATOM      4  N   UNL d   1     -51.307  24.376  33.559  0.00  0.00    -0.225 NA
ATOM      5  N   UNL d   1     -51.976  25.882  33.405  0.00  0.00    -0.241 NA
ATOM      6  C   UNL d   1     -50.545  26.353  33.468  0.00  0.00     0.037 A 
ATOM      7  C   UNL d   1     -49.827  25.954  33.545  0.00  0.00     0.067 A 
ATOM      8  C   UNL d   1     -52.117  24.445  33.499  0.00  0.00     0.103 A 
ATOM      9  C   UNL d   1     -52.452  25.197  33.422  0.00  0.00     0.101 A 
ATOM     10  C   UNL d   1     -52.574  23.782  33.516  0.00  0.00     0.047 A 
ATOM     11  C   UNL d   1     -53.265  25.269  33.362  0.00  0.00     0.047 A 
ATOM     12  C   UNL d   1     -53.766  24.598  33.376  0.00  0.00     0.118 A 
ATOM     13  C   UNL d   1     -53.392  23.856  33.455  0.00  0.00     0.118 A 
ATOM     14  C   UNL d   1     -50.552  27.178  33.408  0.00  0.00     0.003 A 
ATOM     15  C   UNL d   1     -49.137  26.394  33.560  0.00  0.00     0.018 A 
ATOM     16  C   UNL d   1     -49.845  27.608  33.424  0.00  0.00     0.000 A 
ATOM     17  C   UNL d   1     -49.126  27.210  33.502  0.00  0.00     0.002 A 
ENDROOT
BRANCH   3  18
ATOM     18  C   UNL d   1     -49.435  24.569  33.672  0.00  0.00     0.082 C 
ATOM     19  C   UNL d   1     -49.615  23.801  33.430  0.00  0.00     0.021 C 
ENDBRANCH   3  18
BRANCH  13  20
ATOM     20  O   UNL d   1     -53.855  23.192  33.472  0.00  0.00    -0.326 OA
ATOM     21  C   UNL d   1     -54.589  23.192  33.858  0.00  0.00     0.181 C 
ENDBRANCH  13  20
BRANCH  12  22
ATOM     22  O   UNL d   1     -54.599  24.680  33.314  0.00  0.00    -0.326 OA
ATOM     23  C   UNL d   1     -54.970  25.367  33.606  0.00  0.00     0.181 C 
ENDBRANCH  12  22
TORSDOF 3
ENDMDL
