MODEL 1
REMARK VINA RESULT:      -1.0      0.000      0.000
REMARK  3 active torsions:
REMARK  status: ('A' for Active; 'I' for Inactive)
REMARK    1  A    between atoms: C_6  and  C_1 
REMARK    2  A    between atoms: O_19  and  C_9 
REMARK    3  A    between atoms: O_20  and  C_13 
ROOT
ATOM      1  C   UNL d   1      57.764   0.212  30.772  0.00  0.00     0.064 A 
ATOM      2  C   UNL d   1      58.570   0.041  30.662  0.00  0.00     0.007 A 
ATOM      3  C   UNL d   1      57.314   0.510  30.138  0.00  0.00     0.300 A 
ATOM      4  C   UNL d   1      58.925   0.166  29.926  0.00  0.00     0.026 A 
ATOM      5  O   UNL d   1      57.667   0.640  29.390  0.00  0.00    -0.273 OA
ATOM      6  C   UNL d   1      58.475   0.465  29.292  0.00  0.00     0.103 A 
ATOM      7  O   UNL d   1      56.512   0.681  30.245  0.00  0.00    -0.259 OA
ATOM      8  C   UNL d   1      59.726  -0.002  29.809  0.00  0.00     0.044 A 
ATOM      9  C   UNL d   1      58.825   0.590  28.560  0.00  0.00     0.028 A 
ATOM     10  C   UNL d   1      60.069   0.124  29.084  0.00  0.00     0.196 A 
ATOM     11  C   UNL d   1      59.011  -0.252  31.283  0.00  0.00     0.000 C 
ATOM     12  C   UNL d   1      59.623   0.419  28.456  0.00  0.00     0.044 A 
ATOM     13  O   UNL d   1      60.871  -0.047  28.975  0.00  0.00    -0.287 OA
ENDROOT
BRANCH   1  14
ATOM     14  C   UNL d   1      57.412   0.086  31.505  0.00  0.00     0.007 A 
ATOM     15  C   UNL d   1      57.068  -0.643  31.675  0.00  0.00     0.026 A 
ATOM     16  C   UNL d   1      56.716  -0.775  32.402  0.00  0.00     0.116 A 
ATOM     17  C   UNL d   1      56.706  -0.176  32.969  0.00  0.00     0.116 A 
ATOM     18  C   UNL d   1      57.051   0.562  32.802  0.00  0.00     0.026 A 
ATOM     19  C   UNL d   1      57.404   0.682  32.063  0.00  0.00     0.002 A 
BRANCH  16  20
ATOM     20  O   UNL d   1      56.370  -1.500  32.580  0.00  0.00    -0.326 OA
ATOM     21  C   UNL d   1      55.548  -1.559  32.614  0.00  0.00     0.181 C 
ENDBRANCH  16  20
BRANCH  17  22
ATOM     22  O   UNL d   1      56.355  -0.293  33.705  0.00  0.00    -0.326 OA
ATOM     23  C   UNL d   1      56.662   0.111  34.364  0.00  0.00     0.181 C 
ENDBRANCH  17  22
ENDBRANCH   1  14
TORSDOF 3
ENDMDL
MODEL 2
REMARK VINA RESULT:      -0.3      9.020      9.976
REMARK  3 active torsions:
REMARK  status: ('A' for Active; 'I' for Inactive)
REMARK    1  A    between atoms: C_6  and  C_1 
REMARK    2  A    between atoms: O_19  and  C_9 
REMARK    3  A    between atoms: O_20  and  C_13 
ROOT
ATOM      1  C   UNL d   1      59.092  -9.442  33.129  0.00  0.00     0.064 A 
ATOM      2  C   UNL d   1      59.440  -9.494  32.376  0.00  0.00     0.007 A 
ATOM      3  C   UNL d   1      58.264  -9.500  33.208  0.00  0.00     0.300 A 
ATOM      4  C   UNL d   1      58.968  -9.602  31.706  0.00  0.00     0.026 A 
ATOM      5  O   UNL d   1      57.780  -9.609  32.534  0.00  0.00    -0.273 OA
ATOM      6  C   UNL d   1      58.140  -9.659  31.785  0.00  0.00     0.103 A 
ATOM      7  O   UNL d   1      57.916  -9.448  33.956  0.00  0.00    -0.259 OA
ATOM      8  C   UNL d   1      59.306  -9.655  30.954  0.00  0.00     0.044 A 
ATOM      9  C   UNL d   1      57.669  -9.767  31.122  0.00  0.00     0.028 A 
ATOM     10  C   UNL d   1      58.837  -9.761  30.300  0.00  0.00     0.196 A 
ATOM     11  C   UNL d   1      60.250  -9.438  32.299  0.00  0.00     0.000 C 
ATOM     12  C   UNL d   1      58.017  -9.818  30.378  0.00  0.00     0.044 A 
ATOM     13  O   UNL d   1      59.184  -9.813  29.551  0.00  0.00    -0.287 OA
ENDROOT
BRANCH   1  14
ATOM     14  C   UNL d   1      59.564  -9.335  33.795  0.00  0.00     0.007 A 
ATOM     15  C   UNL d   1      59.379  -8.742  34.336  0.00  0.00     0.026 A 
ATOM     16  C   UNL d   1      59.843  -8.629  35.001  0.00  0.00     0.116 A 
ATOM     17  C   UNL d   1      60.500  -9.111  35.130  0.00  0.00     0.116 A 
ATOM     18  C   UNL d   1      60.690  -9.711  34.587  0.00  0.00     0.026 A 
ATOM     19  C   UNL d   1      60.212  -9.814  33.919  0.00  0.00     0.002 A 
BRANCH  16  20
ATOM     20  O   UNL d   1      59.667  -8.039  35.547  0.00  0.00    -0.326 OA
ATOM     21  C   UNL d   1      59.499  -7.277  35.279  0.00  0.00     0.181 C 
ENDBRANCH  16  20
BRANCH  17  22
ATOM     22  O   UNL d   1      60.978  -9.010  35.794  0.00  0.00    -0.326 OA
ATOM     23  C   UNL d   1      61.107  -9.659  36.297  0.00  0.00     0.181 C 
ENDBRANCH  17  22
ENDBRANCH   1  14
TORSDOF 3
ENDMDL
MODEL 3
REMARK VINA RESULT:       1.4      1.592      3.041
REMARK  3 active torsions:
REMARK  status: ('A' for Active; 'I' for Inactive)
REMARK    1  A    between atoms: C_6  and  C_1 
REMARK    2  A    between atoms: O_19  and  C_9 
REMARK    3  A    between atoms: O_20  and  C_13 
ROOT
ATOM      1  C   UNL d   1      56.718   0.625  33.060  0.00  0.00     0.064 A 
ATOM      2  C   UNL d   1      56.681   0.599  32.230  0.00  0.00     0.007 A 
ATOM      3  C   UNL d   1      57.458   0.650  33.441  0.00  0.00     0.300 A 
ATOM      4  C   UNL d   1      57.376   0.597  31.783  0.00  0.00     0.026 A 
ATOM      5  O   UNL d   1      58.166   0.649  32.994  0.00  0.00    -0.273 OA
ATOM      6  C   UNL d   1      58.116   0.622  32.163  0.00  0.00     0.103 A 
ATOM      7  O   UNL d   1      57.497   0.676  34.267  0.00  0.00    -0.259 OA
ATOM      8  C   UNL d   1      57.347   0.571  30.957  0.00  0.00     0.044 A 
ATOM      9  C   UNL d   1      58.808   0.621  31.722  0.00  0.00     0.028 A 
ATOM     10  C   UNL d   1      58.033   0.570  30.523  0.00  0.00     0.196 A 
ATOM     11  C   UNL d   1      55.955   0.575  31.857  0.00  0.00     0.000 C 
ATOM     12  C   UNL d   1      58.767   0.595  30.900  0.00  0.00     0.044 A 
ATOM     13  O   UNL d   1      57.995   0.544  29.697  0.00  0.00    -0.287 OA
ENDROOT
BRANCH   1  14
ATOM     14  C   UNL d   1      56.025   0.627  33.504  0.00  0.00     0.007 A 
ATOM     15  C   UNL d   1      56.066   0.653  34.327  0.00  0.00     0.026 A 
ATOM     16  C   UNL d   1      55.381   0.655  34.775  0.00  0.00     0.116 A 
ATOM     17  C   UNL d   1      54.645   0.630  34.402  0.00  0.00     0.116 A 
ATOM     18  C   UNL d   1      54.599   0.603  33.572  0.00  0.00     0.026 A 
ATOM     19  C   UNL d   1      55.300   0.601  33.131  0.00  0.00     0.002 A 
BRANCH  16  20
ATOM     20  O   UNL d   1      55.412   0.682  35.597  0.00  0.00    -0.326 OA
ATOM     21  C   UNL d   1      55.949   0.201  35.998  0.00  0.00     0.181 C 
ENDBRANCH  16  20
BRANCH  17  22
ATOM     22  O   UNL d   1      53.947   0.631  34.839  0.00  0.00    -0.326 OA
ATOM     23  C   UNL d   1      53.220   0.642  34.434  0.00  0.00     0.181 C 
ENDBRANCH  17  22
ENDBRANCH   1  14
TORSDOF 3
ENDMDL
MODEL 4
REMARK VINA RESULT:       1.5      9.810     10.622
REMARK  3 active torsions:
REMARK  status: ('A' for Active; 'I' for Inactive)
REMARK    1  A    between atoms: C_6  and  C_1 
REMARK    2  A    between atoms: O_19  and  C_9 
REMARK    3  A    between atoms: O_20  and  C_13 
ROOT
ATOM      1  C   UNL d   1      59.617  -9.728  31.997  0.00  0.00     0.064 A 
ATOM      2  C   UNL d   1      59.283  -9.761  32.757  0.00  0.00     0.007 A 
ATOM      3  C   UNL d   1      60.444  -9.672  31.910  0.00  0.00     0.300 A 
ATOM      4  C   UNL d   1      59.768  -9.738  33.426  0.00  0.00     0.026 A 
ATOM      5  O   UNL d   1      60.941  -9.649  32.583  0.00  0.00    -0.273 OA
ATOM      6  C   UNL d   1      60.595  -9.682  33.339  0.00  0.00     0.103 A 
ATOM      7  O   UNL d   1      60.778  -9.639  31.154  0.00  0.00    -0.259 OA
ATOM      8  C   UNL d   1      59.443  -9.770  34.185  0.00  0.00     0.044 A 
ATOM      9  C   UNL d   1      61.079  -9.660  34.001  0.00  0.00     0.028 A 
ATOM     10  C   UNL d   1      59.926  -9.748  34.838  0.00  0.00     0.196 A 
ATOM     11  C   UNL d   1      58.474  -9.815  32.843  0.00  0.00     0.000 C 
ATOM     12  C   UNL d   1      60.745  -9.693  34.752  0.00  0.00     0.044 A 
ATOM     13  O   UNL d   1      59.593  -9.781  35.594  0.00  0.00    -0.287 OA
ENDROOT
BRANCH   1  14
ATOM     14  C   UNL d   1      59.132  -9.750  31.332  0.00  0.00     0.007 A 
ATOM     15  C   UNL d   1      59.469  -9.766  30.580  0.00  0.00     0.026 A 
ATOM     16  C   UNL d   1      58.993  -9.789  29.915  0.00  0.00     0.116 A 
ATOM     17  C   UNL d   1      58.172  -9.795  29.996  0.00  0.00     0.116 A 
ATOM     18  C   UNL d   1      57.828  -9.779  30.752  0.00  0.00     0.026 A 
ATOM     19  C   UNL d   1      58.321  -9.756  31.417  0.00  0.00     0.002 A 
BRANCH  16  20
ATOM     20  O   UNL d   1      59.320  -9.805  29.160  0.00  0.00    -0.326 OA
ATOM     21  C   UNL d   1      59.965  -9.319  28.987  0.00  0.00     0.181 C 
ENDBRANCH  16  20
BRANCH  17  22
ATOM     22  O   UNL d   1      57.680  -9.818  29.336  0.00  0.00    -0.326 OA
ATOM     23  C   UNL d   1      56.857  -9.784  29.448  0.00  0.00     0.181 C 
ENDBRANCH  17  22
ENDBRANCH   1  14
TORSDOF 3
ENDMDL
