MODEL 1
REMARK VINA RESULT:      -5.4      0.000      0.000
REMARK  4 active torsions:
REMARK  status: ('A' for Active; 'I' for Inactive)
REMARK    1  A    between atoms: N_2  and  S_1 
REMARK    2  A    between atoms: C_4  and  S_1 
REMARK    3  A    between atoms: C_3  and  C_9 
REMARK       I    between atoms: N_5  and  C_3 
REMARK    4  A    between atoms: C_6  and  N_5 
ROOT
ATOM      1  C   UNL d   1      58.572  -0.949  29.575  0.00  0.00     0.104 A 
ATOM      2  C   UNL d   1      57.875  -0.151  30.533  0.00  0.00     0.059 A 
ATOM      3  C   UNL d   1      58.201  -0.873  30.313  0.00  0.00     0.018 A 
ATOM      4  C   UNL d   1      58.614  -0.304  29.066  0.00  0.00     0.013 A 
ATOM      5  C   UNL d   1      57.917   0.495  30.023  0.00  0.00     0.005 A 
ATOM      6  C   UNL d   1      58.291   0.416  29.283  0.00  0.00     0.001 A 
ENDROOT
BRANCH   1   7
ATOM      7  S   UNL d   1      58.895  -1.668  29.359  0.00  0.00     0.271 S 
ATOM      8  O   UNL d   1      59.469  -1.146  29.143  0.00  0.00    -0.200 OA
ATOM      9  O   UNL d   1      58.332  -2.239  29.564  0.00  0.00    -0.200 OA
BRANCH   7  10
ATOM     10  N   UNL d   1      59.298  -2.338  29.110  0.00  0.00    -0.229 N 
ATOM     11  C   UNL d   1      58.843  -2.951  28.761  0.00  0.00     0.092 A 
ATOM     12  C   UNL d   1      59.100  -3.582  28.509  0.00  0.00     0.020 A 
ATOM     13  C   UNL d   1      59.879  -3.945  28.456  0.00  0.00     0.002 A 
ATOM     14  C   UNL d   1      60.560  -3.721  28.659  0.00  0.00     0.002 A 
ATOM     15  C   UNL d   1      60.753  -2.987  29.025  0.00  0.00     0.020 A 
ATOM     16  C   UNL d   1      60.170  -2.346  29.234  0.00  0.00     0.092 A 
ENDBRANCH   7  10
ENDBRANCH   1   7
BRANCH   2  17
ATOM     17  C   UNL d   1      57.504  -0.074  31.270  0.00  0.00     0.281 C 
ATOM     18  N   UNL d   1      56.732  -0.352  31.364  0.00  0.00    -0.187 NA
ATOM     19  O   UNL d   1      57.910   0.276  31.890  0.00  0.00    -0.265 OA
BRANCH  18  20
ATOM     20  C   UNL d   1      56.368  -0.273  32.096  0.00  0.00     0.194 A 
ATOM     21  N   UNL d   1      56.126   0.433  32.449  0.00  0.00    -0.106 NA
ATOM     22  O   UNL d   1      55.791   0.251  33.177  0.00  0.00    -0.207 OA
ATOM     23  C   UNL d   1      55.825  -0.571  33.276  0.00  0.00     0.153 A 
ATOM     24  C   UNL d   1      56.179  -0.893  32.614  0.00  0.00     0.070 A 
ENDBRANCH  18  20
ENDBRANCH   2  17
TORSDOF 4
ENDMDL
MODEL 2
REMARK VINA RESULT:      -2.7      0.868      1.015
REMARK  4 active torsions:
REMARK  status: ('A' for Active; 'I' for Inactive)
REMARK    1  A    between atoms: N_2  and  S_1 
REMARK    2  A    between atoms: C_4  and  S_1 
REMARK    3  A    between atoms: C_3  and  C_9 
REMARK       I    between atoms: N_5  and  C_3 
REMARK    4  A    between atoms: C_6  and  N_5 
ROOT
ATOM      1  C   UNL d   1      59.346  -1.235  29.441  0.00  0.00     0.104 A 
ATOM      2  C   UNL d   1      58.805  -0.227  30.295  0.00  0.00     0.059 A 
ATOM      3  C   UNL d   1      58.785  -0.994  30.002  0.00  0.00     0.018 A 
ATOM      4  C   UNL d   1      59.921  -0.707  29.179  0.00  0.00     0.013 A 
ATOM      5  C   UNL d   1      59.380   0.302  30.034  0.00  0.00     0.005 A 
ATOM      6  C   UNL d   1      59.943   0.058  29.470  0.00  0.00     0.001 A 
ENDROOT
BRANCH   1   7
ATOM      7  S   UNL d   1      59.325  -1.999  29.151  0.00  0.00     0.271 S 
ATOM      8  O   UNL d   1      59.765  -2.079  29.820  0.00  0.00    -0.200 OA
ATOM      9  O   UNL d   1      58.877  -1.962  28.455  0.00  0.00    -0.200 OA
BRANCH   7  10
ATOM     10  N   UNL d   1      59.358  -2.791  28.938  0.00  0.00    -0.229 N 
ATOM     11  C   UNL d   1      58.627  -3.188  28.825  0.00  0.00     0.092 A 
ATOM     12  C   UNL d   1      58.545  -3.885  28.637  0.00  0.00     0.020 A 
ATOM     13  C   UNL d   1      59.082  -4.537  28.466  0.00  0.00     0.002 A 
ATOM     14  C   UNL d   1      59.824  -4.596  28.455  0.00  0.00     0.002 A 
ATOM     15  C   UNL d   1      60.374  -3.981  28.625  0.00  0.00     0.020 A 
ATOM     16  C   UNL d   1      60.159  -3.145  28.849  0.00  0.00     0.092 A 
ENDBRANCH   7  10
ENDBRANCH   1   7
BRANCH   2  17
ATOM     17  C   UNL d   1      58.244   0.014  30.856  0.00  0.00     0.281 C 
ATOM     18  N   UNL d   1      57.523  -0.387  30.905  0.00  0.00    -0.187 NA
ATOM     19  O   UNL d   1      58.415   0.645  31.351  0.00  0.00    -0.265 OA
BRANCH  18  20
ATOM     20  C   UNL d   1      56.971  -0.144  31.462  0.00  0.00     0.194 A 
ATOM     21  N   UNL d   1      56.498   0.531  31.420  0.00  0.00    -0.106 NA
ATOM     22  O   UNL d   1      56.030   0.555  32.094  0.00  0.00    -0.207 OA
ATOM     23  C   UNL d   1      56.212  -0.107  32.557  0.00  0.00     0.153 A 
ATOM     24  C   UNL d   1      56.789  -0.537  32.170  0.00  0.00     0.070 A 
ENDBRANCH  18  20
ENDBRANCH   2  17
TORSDOF 4
ENDMDL
