MODEL 1
REMARK VINA RESULT:      91.7      0.000      0.000
REMARK  5 active torsions:
REMARK  status: ('A' for Active; 'I' for Inactive)
REMARK    1  A    between atoms: N_3  and  S_1 
REMARK    2  A    between atoms: C_11  and  S_1 
REMARK    3  A    between atoms: C_9  and  C_2 
REMARK    4  A    between atoms: C_4  and  N_7 
REMARK       I    between atoms: N_7  and  C_10 
REMARK    5  A    between atoms: C_10  and  C_14 
ROOT
ATOM      1  C   UNL d   1     -48.486  28.465  35.094  0.00  0.00     0.104 A 
ATOM      2  C   UNL d   1     -47.641  29.552  36.017  0.00  0.00     0.058 A 
ATOM      3  C   UNL d   1     -48.875  28.949  35.619  0.00  0.00     0.013 A 
ATOM      4  C   UNL d   1     -47.660  28.529  35.033  0.00  0.00     0.013 A 
ATOM      5  C   UNL d   1     -48.461  29.492  36.082  0.00  0.00     0.005 A 
ATOM      6  C   UNL d   1     -47.247  29.072  35.495  0.00  0.00     0.005 A 
ENDROOT
BRANCH   2   7
ATOM      7  C   UNL d   1     -47.211  30.106  36.488  0.00  0.00     0.282 C 
ATOM      8  N   UNL d   1     -46.974  30.831  36.168  0.00  0.00    -0.165 NA
ATOM      9  O   UNL d   1     -47.035  29.917  37.254  0.00  0.00    -0.265 OA
BRANCH   8  10
ATOM     10  C   UNL d   1     -47.154  31.013  35.400  0.00  0.00     0.297 A 
ATOM     11  O   UNL d   1     -47.548  31.726  35.224  0.00  0.00    -0.253 OA
ATOM     12  C   UNL d   1     -47.648  31.748  34.410  0.00  0.00     0.207 A 
ATOM     13  N   UNL d   1     -47.327  31.070  34.094  0.00  0.00    -0.119 NA
ATOM     14  N   UNL d   1     -47.019  30.611  34.703  0.00  0.00    -0.101 NA
BRANCH  12  15
ATOM     15  C   UNL d   1     -48.025  32.390  34.044  0.00  0.00     0.054 A 
ATOM     16  C   UNL d   1     -47.566  32.966  33.678  0.00  0.00     0.061 A 
ATOM     17 CL   UNL d   1     -46.743  32.902  33.677  0.00  0.00    -0.082 Cl
ATOM     18  C   UNL d   1     -47.939  33.606  33.313  0.00  0.00     0.011 A 
ATOM     19  C   UNL d   1     -48.763  33.677  33.309  0.00  0.00     0.001 A 
ATOM     20  C   UNL d   1     -49.218  33.107  33.671  0.00  0.00     0.000 A 
ATOM     21  C   UNL d   1     -48.852  32.463  34.039  0.00  0.00     0.004 A 
ENDBRANCH  12  15
ENDBRANCH   8  10
ENDBRANCH   2   7
BRANCH   1  22
ATOM     22  S   UNL d   1     -48.916  27.920  34.632  0.00  0.00     0.271 S 
ATOM     23  O   UNL d   1     -48.298  27.883  34.081  0.00  0.00    -0.200 OA
ATOM     24  O   UNL d   1     -49.531  27.957  35.181  0.00  0.00    -0.200 OA
BRANCH  22  25
ATOM     25  N   UNL d   1     -49.356  27.384  34.193  0.00  0.00    -0.231 N 
ATOM     26  C   UNL d   1     -50.073  27.634  33.859  0.00  0.00     0.075 A 
ATOM     27  C   UNL d   1     -50.336  28.405  33.968  0.00  0.00     0.020 C 
ATOM     28  C   UNL d   1     -50.524  27.103  33.416  0.00  0.00     0.018 A 
ATOM     29  C   UNL d   1     -50.261  26.332  33.307  0.00  0.00     0.003 A 
ATOM     30  C   UNL d   1     -49.548  26.090  33.641  0.00  0.00     0.020 A 
ATOM     31  C   UNL d   1     -49.097  26.621  34.085  0.00  0.00     0.092 A 
ENDBRANCH  22  25
ENDBRANCH   1  22
TORSDOF 5
ENDMDL
