MODEL 1
REMARK VINA RESULT:      -1.6      0.000      0.000
REMARK  5 active torsions:
REMARK  status: ('A' for Active; 'I' for Inactive)
REMARK    1  A    between atoms: N_2  and  C_1 
REMARK    2  A    between atoms: N_3  and  C_1 
REMARK       I    between atoms: C_4  and  N_3 
REMARK    3  A    between atoms: C_11  and  C_4 
REMARK    4  A    between atoms: O_7  and  C_11 
REMARK    5  A    between atoms: C_8  and  O_7 
ROOT
ATOM      1  N   UNL d   1      33.241  18.498 -22.421  0.00  0.00    -0.178 NA
ATOM      2  C   UNL d   1      33.012  17.831 -22.860  0.00  0.00     0.304 C 
ATOM      3  O   UNL d   1      33.221  17.078 -22.607  0.00  0.00    -0.263 OA
ENDROOT
BRANCH   2   4
ATOM      4  C   UNL d   1      32.572  17.922 -23.555  0.00  0.00     0.158 C 
ATOM      5  C   UNL d   1      32.958  18.046 -24.268  0.00  0.00     0.032 C 
BRANCH   4   6
ATOM      6  O   UNL d   1      31.749  17.890 -23.531  0.00  0.00    -0.301 OA
BRANCH   6   7
ATOM      7  C   UNL d   1      31.343  17.290 -23.914  0.00  0.00     0.111 A 
ATOM      8  C   UNL d   1      30.519  17.244 -23.883  0.00  0.00     0.081 A 
ATOM      9  C   UNL d   1      30.118  16.637 -24.272  0.00  0.00     0.025 A 
ATOM     10 CL   UNL d   1      30.092  17.809 -23.460  0.00  0.00    -0.080 Cl
ATOM     11  C   UNL d   1      30.537  16.074 -24.693  0.00  0.00     0.059 A 
ATOM     12  C   UNL d   1      31.368  16.115 -24.728  0.00  0.00     0.013 A 
ATOM     13 CL   UNL d   1      30.132  15.453 -25.091  0.00  0.00    -0.082 Cl
ATOM     14  C   UNL d   1      31.767  16.719 -24.340  0.00  0.00     0.026 A 
ENDBRANCH   6   7
ENDBRANCH   4   6
ENDBRANCH   2   4
BRANCH   1  15
ATOM     15  C   UNL d   1      33.031  19.251 -22.674  0.00  0.00     0.209 C 
ATOM     16  S   UNL d   1      32.867  19.387 -23.475  0.00  0.00    -0.038 SA
BRANCH  15  17
ATOM     17  N   UNL d   1      32.982  19.877 -22.137  0.00  0.00    -0.282 N 
ATOM     18  C   UNL d   1      33.044  20.672 -22.307  0.00  0.00     0.066 A 
ATOM     19  C   UNL d   1      32.962  21.095 -21.605  0.00  0.00     0.018 A 
ATOM     20  C   UNL d   1      33.167  21.069 -23.024  0.00  0.00     0.018 A 
ATOM     21  C   UNL d   1      33.002  21.919 -21.614  0.00  0.00     0.002 A 
ATOM     22  C   UNL d   1      32.849  20.562 -21.000  0.00  0.00     0.021 A 
ATOM     23  C   UNL d   1      33.125  22.327 -22.329  0.00  0.00     0.000 A 
ATOM     24  C   UNL d   1      33.208  21.904 -23.031  0.00  0.00     0.002 A 
ATOM     25  C   UNL d   1      32.860  19.802 -21.321  0.00  0.00     0.082 A 
ENDBRANCH  15  17
ENDBRANCH   1  15
TORSDOF 5
ENDMDL
MODEL 2
REMARK VINA RESULT:      -0.6      2.201      4.783
REMARK  5 active torsions:
REMARK  status: ('A' for Active; 'I' for Inactive)
REMARK    1  A    between atoms: N_2  and  C_1 
REMARK    2  A    between atoms: N_3  and  C_1 
REMARK       I    between atoms: C_4  and  N_3 
REMARK    3  A    between atoms: C_11  and  C_4 
REMARK    4  A    between atoms: O_7  and  C_11 
REMARK    5  A    between atoms: C_8  and  O_7 
ROOT
ATOM      1  N   UNL d   1      31.003  16.277 -24.624  0.00  0.00    -0.178 NA
ATOM      2  C   UNL d   1      31.772  16.585 -24.699  0.00  0.00     0.304 C 
ATOM      3  O   UNL d   1      32.350  16.159 -25.096  0.00  0.00    -0.263 OA
ENDROOT
BRANCH   2   4
ATOM      4  C   UNL d   1      31.957  17.322 -24.372  0.00  0.00     0.158 C 
ATOM      5  C   UNL d   1      31.599  17.999 -24.667  0.00  0.00     0.032 C 
BRANCH   4   6
ATOM      6  O   UNL d   1      32.499  17.377 -23.754  0.00  0.00    -0.301 OA
BRANCH   6   7
ATOM      7  C   UNL d   1      32.685  18.104 -23.425  0.00  0.00     0.111 A 
ATOM      8  C   UNL d   1      33.049  18.158 -22.685  0.00  0.00     0.081 A 
ATOM      9  C   UNL d   1      33.233  18.893 -22.361  0.00  0.00     0.025 A 
ATOM     10 CL   UNL d   1      33.230  17.470 -22.267  0.00  0.00    -0.080 Cl
ATOM     11  C   UNL d   1      33.055  19.577 -22.772  0.00  0.00     0.059 A 
ATOM     12  C   UNL d   1      32.688  19.530 -23.518  0.00  0.00     0.013 A 
ATOM     13 CL   UNL d   1      33.241  20.330 -22.445  0.00  0.00    -0.082 Cl
ATOM     14  C   UNL d   1      32.505  18.798 -23.841  0.00  0.00     0.026 A 
ENDBRANCH   6   7
ENDBRANCH   4   6
ENDBRANCH   2   4
BRANCH   1  15
ATOM     15  C   UNL d   1      30.424  16.704 -24.226  0.00  0.00     0.209 C 
ATOM     16  S   UNL d   1      30.374  17.525 -24.326  0.00  0.00    -0.038 SA
BRANCH  15  17
ATOM     17  N   UNL d   1      29.890  16.322 -23.725  0.00  0.00    -0.282 N 
ATOM     18  C   UNL d   1      29.107  16.517 -23.607  0.00  0.00     0.066 A 
ATOM     19  C   UNL d   1      28.787  15.988 -23.063  0.00  0.00     0.018 A 
ATOM     20  C   UNL d   1      28.639  17.119 -23.932  0.00  0.00     0.018 A 
ATOM     21  C   UNL d   1      27.996  16.056 -22.838  0.00  0.00     0.002 A 
ATOM     22  C   UNL d   1      29.371  15.465 -22.844  0.00  0.00     0.021 A 
ATOM     23  C   UNL d   1      27.518  16.658 -23.159  0.00  0.00     0.000 A 
ATOM     24  C   UNL d   1      27.838  17.187 -23.703  0.00  0.00     0.002 A 
ATOM     25  C   UNL d   1      30.060  15.665 -23.251  0.00  0.00     0.082 A 
ENDBRANCH  15  17
ENDBRANCH   1  15
TORSDOF 5
ENDMDL
MODEL 3
REMARK VINA RESULT:      -0.5      2.434      5.216
REMARK  5 active torsions:
REMARK  status: ('A' for Active; 'I' for Inactive)
REMARK    1  A    between atoms: N_2  and  C_1 
REMARK    2  A    between atoms: N_3  and  C_1 
REMARK       I    between atoms: C_4  and  N_3 
REMARK    3  A    between atoms: C_11  and  C_4 
REMARK    4  A    between atoms: O_7  and  C_11 
REMARK    5  A    between atoms: C_8  and  O_7 
ROOT
ATOM      1  N   UNL d   1      31.838  19.568 -22.725  0.00  0.00    -0.178 NA
ATOM      2  C   UNL d   1      31.872  20.168 -22.151  0.00  0.00     0.304 C 
ATOM      3  O   UNL d   1      31.180  20.489 -21.848  0.00  0.00    -0.263 OA
ENDROOT
BRANCH   2   4
ATOM      4  C   UNL d   1      32.604  20.444 -21.883  0.00  0.00     0.158 C 
ATOM      5  C   UNL d   1      33.041  19.993 -21.355  0.00  0.00     0.032 C 
BRANCH   4   6
ATOM      6  O   UNL d   1      32.894  21.169 -22.145  0.00  0.00    -0.301 OA
BRANCH   6   7
ATOM      7  C   UNL d   1      32.981  21.797 -21.626  0.00  0.00     0.111 A 
ATOM      8  C   UNL d   1      33.136  22.561 -21.900  0.00  0.00     0.081 A 
ATOM      9  C   UNL d   1      33.222  23.187 -21.370  0.00  0.00     0.025 A 
ATOM     10 CL   UNL d   1      33.206  22.699 -22.710  0.00  0.00    -0.080 Cl
ATOM     11  C   UNL d   1      33.153  23.054 -20.566  0.00  0.00     0.059 A 
ATOM     12  C   UNL d   1      32.997  22.287 -20.283  0.00  0.00     0.013 A 
ATOM     13 CL   UNL d   1      33.240  23.691 -20.021  0.00  0.00    -0.082 Cl
ATOM     14  C   UNL d   1      32.912  21.664 -20.810  0.00  0.00     0.026 A 
ENDBRANCH   6   7
ENDBRANCH   4   6
ENDBRANCH   2   4
BRANCH   1  15
ATOM     15  C   UNL d   1      32.531  19.246 -23.029  0.00  0.00     0.209 C 
ATOM     16  S   UNL d   1      33.232  19.288 -22.589  0.00  0.00    -0.038 SA
BRANCH  15  17
ATOM     17  N   UNL d   1      32.535  18.881 -23.769  0.00  0.00    -0.282 N 
ATOM     18  C   UNL d   1      32.223  18.151 -23.954  0.00  0.00     0.066 A 
ATOM     19  C   UNL d   1      32.352  18.009 -24.756  0.00  0.00     0.018 A 
ATOM     20  C   UNL d   1      31.831  17.589 -23.487  0.00  0.00     0.018 A 
ATOM     21  C   UNL d   1      32.091  17.304 -25.097  0.00  0.00     0.002 A 
ATOM     22  C   UNL d   1      32.744  18.651 -25.067  0.00  0.00     0.021 A 
ATOM     23  C   UNL d   1      31.697  16.734 -24.636  0.00  0.00     0.000 A 
ATOM     24  C   UNL d   1      31.568  16.876 -23.834  0.00  0.00     0.002 A 
ATOM     25  C   UNL d   1      32.862  19.198 -24.461  0.00  0.00     0.082 A 
ENDBRANCH  15  17
ENDBRANCH   1  15
TORSDOF 5
ENDMDL
