MODEL 1
REMARK VINA RESULT:      -2.7      0.000      0.000
REMARK  2 active torsions:
REMARK  status: ('A' for Active; 'I' for Inactive)
REMARK       I    between atoms: N_3  and  C_1 
REMARK    1  A    between atoms: O_4  and  C_1 
REMARK    2  A    between atoms: C_6  and  O_4 
ROOT
ATOM      1  C   UNL d   1      32.606  17.226 -23.600  0.00  0.00     0.105 A 
ATOM      2  C   UNL d   1      32.113  16.759 -24.063  0.00  0.00     0.030 A 
ATOM      3  C   UNL d   1      32.608  18.059 -23.696  0.00  0.00     0.122 A 
ATOM      4  N   UNL d   1      33.105  16.876 -23.035  0.00  0.00    -0.242 NA
ATOM      5  C   UNL d   1      31.618  17.109 -24.625  0.00  0.00     0.059 A 
ATOM      6  C   UNL d   1      32.116  18.406 -24.254  0.00  0.00     0.027 A 
ATOM      7  C   UNL d   1      31.619  17.942 -24.721  0.00  0.00     0.013 A 
ATOM      8 CL   UNL d   1      31.118  16.641 -25.095  0.00  0.00    -0.082 Cl
ATOM      9  C   UNL d   1      32.112  15.939 -23.968  0.00  0.00     0.004 A 
ATOM     10  C   UNL d   1      33.103  16.057 -22.940  0.00  0.00     0.099 A 
ATOM     11  C   UNL d   1      32.604  15.587 -23.410  0.00  0.00     0.021 A 
ENDROOT
BRANCH   3  12
ATOM     12  O   UNL d   1      33.107  18.535 -23.228  0.00  0.00    -0.257 OA
BRANCH  12  13
ATOM     13  C   UNL d   1      33.142  19.361 -23.348  0.00  0.00     0.378 C 
ATOM     14  N   UNL d   1      33.172  19.876 -22.714  0.00  0.00    -0.252 N 
ATOM     15  C   UNL d   1      33.206  20.691 -22.839  0.00  0.00     0.085 A 
ATOM     16  C   UNL d   1      33.168  19.580 -21.943  0.00  0.00     0.085 A 
ATOM     17  C   UNL d   1      33.235  21.210 -22.203  0.00  0.00     0.019 A 
ATOM     18  C   UNL d   1      33.231  20.914 -21.431  0.00  0.00     0.003 A 
ATOM     19  C   UNL d   1      33.198  20.105 -21.309  0.00  0.00     0.019 A 
ATOM     20  O   UNL d   1      33.146  19.661 -24.130  0.00  0.00    -0.237 OA
ENDBRANCH  12  13
ENDBRANCH   3  12
TORSDOF 2
ENDMDL
MODEL 2
REMARK VINA RESULT:      -1.7      1.996      3.899
REMARK  2 active torsions:
REMARK  status: ('A' for Active; 'I' for Inactive)
REMARK       I    between atoms: N_3  and  C_1 
REMARK    1  A    between atoms: O_4  and  C_1 
REMARK    2  A    between atoms: C_6  and  O_4 
ROOT
ATOM      1  C   UNL d   1      32.364  18.401 -23.587  0.00  0.00     0.105 A 
ATOM      2  C   UNL d   1      32.726  19.120 -23.754  0.00  0.00     0.030 A 
ATOM      3  C   UNL d   1      31.918  18.009 -24.178  0.00  0.00     0.122 A 
ATOM      4  N   UNL d   1      32.437  18.061 -22.833  0.00  0.00    -0.242 NA
ATOM      5  C   UNL d   1      32.652  19.457 -24.505  0.00  0.00     0.059 A 
ATOM      6  C   UNL d   1      31.845  18.344 -24.924  0.00  0.00     0.027 A 
ATOM      7  C   UNL d   1      32.206  19.065 -25.096  0.00  0.00     0.013 A 
ATOM      8 CL   UNL d   1      33.016  20.183 -24.677  0.00  0.00    -0.082 Cl
ATOM      9  C   UNL d   1      33.165  19.506 -23.171  0.00  0.00     0.004 A 
ATOM     10  C   UNL d   1      32.876  18.447 -22.251  0.00  0.00     0.099 A 
ATOM     11  C   UNL d   1      33.241  19.173 -22.422  0.00  0.00     0.021 A 
ENDROOT
BRANCH   3  12
ATOM     12  O   UNL d   1      31.549  17.279 -24.012  0.00  0.00    -0.257 OA
BRANCH  12  13
ATOM     13  C   UNL d   1      30.817  17.083 -24.364  0.00  0.00     0.378 C 
ATOM     14  N   UNL d   1      30.306  16.558 -24.002  0.00  0.00    -0.252 N 
ATOM     15  C   UNL d   1      29.585  16.368 -24.354  0.00  0.00     0.085 A 
ATOM     16  C   UNL d   1      30.511  16.215 -23.279  0.00  0.00     0.085 A 
ATOM     17  C   UNL d   1      29.069  15.841 -23.992  0.00  0.00     0.019 A 
ATOM     18  C   UNL d   1      29.274  15.498 -23.269  0.00  0.00     0.003 A 
ATOM     19  C   UNL d   1      29.991  15.687 -22.920  0.00  0.00     0.019 A 
ATOM     20  O   UNL d   1      30.610  17.431 -25.096  0.00  0.00    -0.237 OA
ENDBRANCH  12  13
ENDBRANCH   3  12
TORSDOF 2
ENDMDL
MODEL 3
REMARK VINA RESULT:      -1.6      1.608      4.205
REMARK  2 active torsions:
REMARK  status: ('A' for Active; 'I' for Inactive)
REMARK       I    between atoms: N_3  and  C_1 
REMARK    1  A    between atoms: O_4  and  C_1 
REMARK    2  A    between atoms: C_6  and  O_4 
ROOT
ATOM      1  C   UNL d   1      33.104  19.805 -23.402  0.00  0.00     0.105 A 
ATOM      2  C   UNL d   1      33.148  20.452 -22.896  0.00  0.00     0.030 A 
ATOM      3  C   UNL d   1      33.036  19.031 -23.089  0.00  0.00     0.122 A 
ATOM      4  N   UNL d   1      33.128  19.916 -24.225  0.00  0.00    -0.242 NA
ATOM      5  C   UNL d   1      33.124  20.339 -22.077  0.00  0.00     0.059 A 
ATOM      6  C   UNL d   1      33.012  18.920 -22.276  0.00  0.00     0.027 A 
ATOM      7  C   UNL d   1      33.055  19.565 -21.764  0.00  0.00     0.013 A 
ATOM      8 CL   UNL d   1      33.168  20.989 -21.562  0.00  0.00    -0.082 Cl
ATOM      9  C   UNL d   1      33.216  21.214 -23.204  0.00  0.00     0.004 A 
ATOM     10  C   UNL d   1      33.196  20.678 -24.533  0.00  0.00     0.099 A 
ATOM     11  C   UNL d   1      33.240  21.329 -24.019  0.00  0.00     0.021 A 
ENDROOT
BRANCH   3  12
ATOM     12  O   UNL d   1      32.991  18.373 -23.601  0.00  0.00    -0.257 OA
BRANCH  12  13
ATOM     13  C   UNL d   1      32.950  17.598 -23.293  0.00  0.00     0.378 C 
ATOM     14  N   UNL d   1      32.848  16.955 -23.788  0.00  0.00    -0.252 N 
ATOM     15  C   UNL d   1      32.808  16.192 -23.479  0.00  0.00     0.085 A 
ATOM     16  C   UNL d   1      32.786  17.070 -24.604  0.00  0.00     0.085 A 
ATOM     17  C   UNL d   1      32.706  15.545 -23.974  0.00  0.00     0.019 A 
ATOM     18  C   UNL d   1      32.643  15.659 -24.790  0.00  0.00     0.003 A 
ATOM     19  C   UNL d   1      32.683  16.418 -25.096  0.00  0.00     0.019 A 
ATOM     20  O   UNL d   1      33.014  17.482 -22.466  0.00  0.00    -0.237 OA
ENDBRANCH  12  13
ENDBRANCH   3  12
TORSDOF 2
ENDMDL
MODEL 4
REMARK VINA RESULT:      -1.0      3.368      4.206
REMARK  2 active torsions:
REMARK  status: ('A' for Active; 'I' for Inactive)
REMARK       I    between atoms: N_3  and  C_1 
REMARK    1  A    between atoms: O_4  and  C_1 
REMARK    2  A    between atoms: C_6  and  O_4 
ROOT
ATOM      1  C   UNL d   1      29.111  16.586 -23.801  0.00  0.00     0.105 A 
ATOM      2  C   UNL d   1      28.583  17.193 -23.970  0.00  0.00     0.030 A 
ATOM      3  C   UNL d   1      29.872  16.582 -24.151  0.00  0.00     0.122 A 
ATOM      4  N   UNL d   1      28.893  15.975 -23.282  0.00  0.00    -0.242 NA
ATOM      5  C   UNL d   1      28.802  17.801 -24.486  0.00  0.00     0.059 A 
ATOM      6  C   UNL d   1      30.089  17.185 -24.664  0.00  0.00     0.027 A 
ATOM      7  C   UNL d   1      29.563  17.797 -24.837  0.00  0.00     0.013 A 
ATOM      8 CL   UNL d   1      28.272  18.416 -24.660  0.00  0.00    -0.082 Cl
ATOM      9  C   UNL d   1      27.833  17.198 -23.625  0.00  0.00     0.004 A 
ATOM     10  C   UNL d   1      28.143  15.979 -22.937  0.00  0.00     0.099 A 
ATOM     11  C   UNL d   1      27.612  16.594 -23.110  0.00  0.00     0.021 A 
ENDROOT
BRANCH   3  12
ATOM     12  O   UNL d   1      30.410  15.967 -23.981  0.00  0.00    -0.257 OA
BRANCH  12  13
ATOM     13  C   UNL d   1      31.186  15.984 -24.289  0.00  0.00     0.378 C 
ATOM     14  N   UNL d   1      31.829  15.814 -23.814  0.00  0.00    -0.252 N 
ATOM     15  C   UNL d   1      32.593  15.832 -24.124  0.00  0.00     0.085 A 
ATOM     16  C   UNL d   1      31.715  15.622 -23.019  0.00  0.00     0.085 A 
ATOM     17  C   UNL d   1      33.241  15.662 -23.649  0.00  0.00     0.019 A 
ATOM     18  C   UNL d   1      33.127  15.470 -22.853  0.00  0.00     0.003 A 
ATOM     19  C   UNL d   1      32.367  15.453 -22.547  0.00  0.00     0.019 A 
ATOM     20  O   UNL d   1      31.301  16.178 -25.095  0.00  0.00    -0.237 OA
ENDBRANCH  12  13
ENDBRANCH   3  12
TORSDOF 2
ENDMDL
