MODEL 1
REMARK VINA RESULT:      28.8      0.000      0.000
REMARK  5 active torsions:
REMARK  status: ('A' for Active; 'I' for Inactive)
REMARK    1  A    between atoms: C_2  and  S_1 
REMARK    2  A    between atoms: N_5  and  S_1 
REMARK    3  A    between atoms: O_14  and  C_4 
REMARK    4  A    between atoms: C_11  and  N_5 
REMARK    5  A    between atoms: C_15  and  C_11 
ROOT
ATOM      1  C   UNL d   1      60.058  49.550  51.202  0.00  0.00     0.128 A 
ATOM      2  C   UNL d   1      59.980  49.651  52.015  0.00  0.00     0.026 A 
ATOM      3  C   UNL d   1      60.799  49.405  50.875  0.00  0.00     0.106 A 
ATOM      4  C   UNL d   1      60.644  49.607  52.502  0.00  0.00     0.059 A 
ATOM      5  C   UNL d   1      61.464  49.360  51.363  0.00  0.00     0.026 A 
ATOM      6  C   UNL d   1      61.386  49.461  52.177  0.00  0.00     0.013 A 
ATOM      7 CL   UNL d   1      60.567  49.708  53.316  0.00  0.00    -0.082 Cl
ATOM      8  C   UNL d   1      62.051  49.417  52.664  0.00  0.00     0.001 C 
ENDROOT
BRANCH   1   9
ATOM      9  S   UNL d   1      59.394  49.595  50.715  0.00  0.00     0.287 S 
ATOM     10  O   UNL d   1      59.882  49.704  50.059  0.00  0.00    -0.198 OA
ATOM     11  O   UNL d   1      58.905  49.486  51.371  0.00  0.00    -0.198 OA
BRANCH   9  12
ATOM     12  N   UNL d   1      58.729  49.640  50.228  0.00  0.00    -0.155 NA
BRANCH  12  13
ATOM     13  C   UNL d   1      57.989  49.422  50.517  0.00  0.00     0.137 C 
BRANCH  13  14
ATOM     14  C   UNL d   1      57.319  49.506  50.044  0.00  0.00     0.120 A 
ATOM     15  O   UNL d   1      57.311  49.674  49.236  0.00  0.00    -0.304 OA
ATOM     16  C   UNL d   1      56.530  49.708  48.991  0.00  0.00     0.123 A 
ATOM     17  C   UNL d   1      56.042  49.562  49.640  0.00  0.00     0.029 A 
ATOM     18  C   UNL d   1      56.537  49.438  50.290  0.00  0.00     0.028 A 
ENDBRANCH  13  14
ENDBRANCH  12  13
ENDBRANCH   9  12
ENDBRANCH   1   9
BRANCH   3  19
ATOM     19  O   UNL d   1      60.880  49.303  50.059  0.00  0.00    -0.327 OA
ATOM     20  C   UNL d   1      61.565  48.966  49.751  0.00  0.00     0.181 C 
ENDBRANCH   3  19
TORSDOF 5
ENDMDL
