MODEL 1
REMARK VINA RESULT:      84.3      0.000      0.000
REMARK  2 active torsions:
REMARK  status: ('A' for Active; 'I' for Inactive)
REMARK    1  A    between atoms: N_11  and  C_4 
REMARK    2  A    between atoms: C_16  and  N_12 
ROOT
ATOM      1  N   UNL d   1      14.134  14.398  -3.347  0.00  0.00    -0.195 N 
ATOM      2  C   UNL d   1      14.040  13.669  -3.014  0.00  0.00     0.168 A 
ATOM      3  C   UNL d   1      14.299  13.523  -2.276  0.00  0.00     0.073 A 
ATOM      4  C   UNL d   1      13.868  14.526  -4.085  0.00  0.00     0.153 A 
ATOM      5  N   UNL d   1      14.749  14.840  -2.206  0.00  0.00    -0.143 NA
ATOM      6  C   UNL d   1      14.655  14.111  -1.873  0.00  0.00     0.185 A 
ATOM      7  N   UNL d   1      13.682  13.087  -3.428  0.00  0.00    -0.227 NA
ATOM      8  C   UNL d   1      14.206  12.802  -1.947  0.00  0.00     0.007 A 
ATOM      9  N   UNL d   1      14.923  13.978  -1.125  0.00  0.00    -0.225 NA
ATOM     10  C   UNL d   1      13.514  13.952  -4.499  0.00  0.00     0.057 A 
ATOM     11  C   UNL d   1      14.466  12.656  -1.209  0.00  0.00     0.019 A 
ATOM     12  C   UNL d   1      13.419  13.223  -4.166  0.00  0.00     0.086 A 
ATOM     13  C   UNL d   1      14.829  13.249  -0.792  0.00  0.00     0.083 A 
ATOM     14  C   UNL d   1      13.847  12.219  -2.364  0.00  0.00     0.000 C 
ATOM     15  C   UNL d   1      13.047  12.620  -4.598  0.00  0.00     0.021 C 
ATOM     16  C   UNL d   1      15.089  13.111  -0.058  0.00  0.00     0.021 C 
ENDROOT
BRANCH   4  17
ATOM     17  N   UNL d   1      13.969  15.280  -4.422  0.00  0.00    -0.286 N 
ATOM     18  C   UNL d   1      13.338  15.595  -4.862  0.00  0.00     0.101 A 
ATOM     19  C   UNL d   1      13.403  16.345  -5.212  0.00  0.00     0.100 A 
ATOM     20  N   UNL d   1      14.102  16.775  -5.119  0.00  0.00    -0.301 N 
ATOM     21  C   UNL d   1      14.739  16.468  -4.680  0.00  0.00     0.100 A 
ATOM     22  C   UNL d   1      14.669  15.714  -4.330  0.00  0.00     0.101 A 
BRANCH  20  23
ATOM     23  C   UNL d   1      14.171  17.520  -5.465  0.00  0.00     0.065 A 
ATOM     24  C   UNL d   1      14.828  18.004  -5.297  0.00  0.00     0.029 A 
ATOM     25  C   UNL d   1      14.895  18.760  -5.650  0.00  0.00     0.059 A 
ATOM     26 CL   UNL d   1      15.548  19.243  -5.484  0.00  0.00    -0.082 Cl
ATOM     27  C   UNL d   1      14.299  19.029  -6.174  0.00  0.00     0.011 A 
ATOM     28  C   UNL d   1      13.640  18.538  -6.340  0.00  0.00     0.002 A 
ATOM     29  C   UNL d   1      13.579  17.793  -5.988  0.00  0.00     0.018 A 
ENDBRANCH  20  23
ENDBRANCH   4  17
TORSDOF 2
ENDMDL
MODEL 2
REMARK VINA RESULT:      85.7      1.156      2.443
REMARK  2 active torsions:
REMARK  status: ('A' for Active; 'I' for Inactive)
REMARK    1  A    between atoms: N_11  and  C_4 
REMARK    2  A    between atoms: C_16  and  N_12 
ROOT
ATOM      1  N   UNL d   1      14.037  15.125  -3.872  0.00  0.00    -0.195 N 
ATOM      2  C   UNL d   1      14.020  14.444  -3.439  0.00  0.00     0.168 A 
ATOM      3  C   UNL d   1      13.716  13.776  -3.744  0.00  0.00     0.073 A 
ATOM      4  C   UNL d   1      14.344  15.783  -3.550  0.00  0.00     0.153 A 
ATOM      5  N   UNL d   1      13.447  14.472  -4.921  0.00  0.00    -0.143 NA
ATOM      6  C   UNL d   1      13.430  13.791  -4.487  0.00  0.00     0.185 A 
ATOM      7  N   UNL d   1      14.310  14.440  -2.695  0.00  0.00    -0.227 NA
ATOM      8  C   UNL d   1      13.699  13.103  -3.316  0.00  0.00     0.007 A 
ATOM      9  N   UNL d   1      13.119  13.122  -4.811  0.00  0.00    -0.225 NA
ATOM     10  C   UNL d   1      14.633  15.784  -2.813  0.00  0.00     0.057 A 
ATOM     11  C   UNL d   1      13.395  12.434  -3.622  0.00  0.00     0.019 A 
ATOM     12  C   UNL d   1      14.616  15.103  -2.380  0.00  0.00     0.086 A 
ATOM     13  C   UNL d   1      13.101  12.442  -4.377  0.00  0.00     0.083 A 
ATOM     14  C   UNL d   1      13.991  13.100  -2.569  0.00  0.00     0.000 C 
ATOM     15  C   UNL d   1      14.918  15.102  -1.607  0.00  0.00     0.021 C 
ATOM     16  C   UNL d   1      12.798  11.781  -4.688  0.00  0.00     0.021 C 
ENDROOT
BRANCH   4  17
ATOM     17  N   UNL d   1      14.359  16.481  -4.003  0.00  0.00    -0.286 N 
ATOM     18  C   UNL d   1      14.848  17.101  -3.743  0.00  0.00     0.101 A 
ATOM     19  C   UNL d   1      14.887  17.812  -4.170  0.00  0.00     0.100 A 
ATOM     20  N   UNL d   1      14.435  17.896  -4.856  0.00  0.00    -0.301 N 
ATOM     21  C   UNL d   1      13.944  17.282  -5.124  0.00  0.00     0.100 A 
ATOM     22  C   UNL d   1      13.907  16.569  -4.692  0.00  0.00     0.101 A 
BRANCH  20  23
ATOM     23  C   UNL d   1      14.472  18.601  -5.283  0.00  0.00     0.065 A 
ATOM     24  C   UNL d   1      13.782  18.926  -5.619  0.00  0.00     0.029 A 
ATOM     25  C   UNL d   1      13.822  19.642  -6.052  0.00  0.00     0.059 A 
ATOM     26 CL   UNL d   1      13.137  19.968  -6.387  0.00  0.00    -0.082 Cl
ATOM     27  C   UNL d   1      14.558  20.030  -6.147  0.00  0.00     0.011 A 
ATOM     28  C   UNL d   1      15.249  19.699  -5.806  0.00  0.00     0.002 A 
ATOM     29  C   UNL d   1      15.204  18.993  -5.381  0.00  0.00     0.018 A 
ENDBRANCH  20  23
ENDBRANCH   4  17
TORSDOF 2
ENDMDL
