MODEL 1
REMARK VINA RESULT:      34.4      0.000      0.000
REMARK  7 active torsions:
REMARK  status: ('A' for Active; 'I' for Inactive)
REMARK    1  A    between atoms: C_2  and  C_1 
REMARK    2  A    between atoms: O_13  and  C_11 
REMARK    3  A    between atoms: C_18  and  O_13 
REMARK    4  A    between atoms: C_15  and  C_18 
REMARK       I    between atoms: N_21  and  C_15 
REMARK    5  A    between atoms: C_23  and  C_16 
REMARK    6  A    between atoms: C_26  and  N_21 
REMARK    7  A    between atoms: C_27  and  C_26 
ROOT
ATOM      1  C   UNL d   1      45.789 -15.492  44.236  0.00  0.00     0.087 A 
ATOM      2  C   UNL d   1      45.867 -15.885  43.514  0.00  0.00     0.201 A 
ATOM      3  C   UNL d   1      46.062 -16.697  43.509  0.00  0.00     0.062 A 
ATOM      4  C   UNL d   1      45.902 -15.893  44.943  0.00  0.00     0.128 A 
ATOM      5  C   UNL d   1      46.175 -17.097  44.217  0.00  0.00     0.105 A 
ATOM      6  O   UNL d   1      46.096 -16.700  44.953  0.00  0.00    -0.305 OA
ATOM      7  C   UNL d   1      46.140 -17.089  42.789  0.00  0.00     0.007 A 
ATOM      8  C   UNL d   1      46.445 -18.292  43.497  0.00  0.00     0.102 A 
ATOM      9  C   UNL d   1      46.369 -17.904  44.228  0.00  0.00     0.050 A 
ATOM     10  C   UNL d   1      46.332 -17.891  42.789  0.00  0.00     0.023 A 
ATOM     11  O   UNL d   1      45.754 -15.484  42.807  0.00  0.00    -0.286 OA
ENDROOT
BRANCH   8  12
ATOM     12  O   UNL d   1      46.641 -19.105  43.504  0.00  0.00    -0.302 OA
BRANCH  12  13
ATOM     13  C   UNL d   1      46.280 -19.603  44.037  0.00  0.00     0.158 C 
ATOM     14  C   UNL d   1      46.646 -19.802  44.752  0.00  0.00     0.032 C 
BRANCH  13  15
ATOM     15  C   UNL d   1      45.524 -19.926  43.865  0.00  0.00     0.302 C 
ATOM     16  O   UNL d   1      45.019 -20.118  44.482  0.00  0.00    -0.263 OA
ATOM     17  N   UNL d   1      45.319 -20.038  43.089  0.00  0.00    -0.201 NA
BRANCH  17  18
ATOM     18  C   UNL d   1      44.638 -20.330  42.883  0.00  0.00     0.148 C 
BRANCH  18  19
ATOM     19  C   UNL d   1      44.103 -19.833  42.286  0.00  0.00     0.255 C 
ATOM     20  O   UNL d   1      43.406 -20.131  41.967  0.00  0.00    -0.281 OA
ENDBRANCH  18  19
ENDBRANCH  17  18
ENDBRANCH  13  15
ENDBRANCH  12  13
ENDBRANCH   8  12
BRANCH  10  21
ATOM     21  C   UNL d   1      46.410 -18.275  42.150  0.00  0.00     0.002 C 
ATOM     22  C   UNL d   1      46.390 -17.920  41.483  0.00  0.00     0.000 C 
ENDBRANCH  10  21
BRANCH   1  23
ATOM     23  C   UNL d   1      45.596 -14.685  44.238  0.00  0.00     0.116 A 
ATOM     24  N   UNL d   1      45.776 -14.067  43.740  0.00  0.00    -0.238 NA
ATOM     25  C   UNL d   1      45.421 -13.381  44.030  0.00  0.00     0.088 A 
ATOM     26  C   UNL d   1      45.448 -12.603  43.707  0.00  0.00     0.021 C 
ATOM     27  C   UNL d   1      45.032 -13.564  44.686  0.00  0.00     0.056 A 
ATOM     28  S   UNL d   1      45.124 -14.386  44.845  0.00  0.00    -0.066 SA
ENDBRANCH   1  23
TORSDOF 7
ENDMDL
