MODEL 1
REMARK VINA RESULT:      -5.5      0.000      0.000
REMARK  6 active torsions:
REMARK  status: ('A' for Active; 'I' for Inactive)
REMARK    1  A    between atoms: N_2  and  S_1 
REMARK    2  A    between atoms: C_11  and  S_1 
REMARK    3  A    between atoms: C_3  and  N_2 
REMARK    4  A    between atoms: C_4  and  C_3 
REMARK    5  A    between atoms: N_5  and  C_4 
REMARK    6  A    between atoms: C_6  and  C_4 
ROOT
ATOM      1  C   UNL d   1     -48.180  12.757  22.330  0.00  0.00     0.089 C 
ENDROOT
BRANCH   1   2
ATOM      2  C   UNL d   1     -48.788  13.116  21.907  0.00  0.00     0.110 C 
ATOM      3  C   UNL d   1     -48.819  13.041  21.086  0.00  0.00     0.023 C 
BRANCH   2   4
ATOM      4  N   UNL d   1     -49.361  13.548  22.301  0.00  0.00    -0.157 NA
BRANCH   4   5
ATOM      5  S   UNL d   1     -49.925  13.978  21.885  0.00  0.00     0.285 S 
ATOM      6  O   UNL d   1     -49.723  13.505  21.233  0.00  0.00    -0.198 OA
ATOM      7  O   UNL d   1     -50.304  14.089  21.158  0.00  0.00    -0.198 OA
BRANCH   5   8
ATOM      8  C   UNL d   1     -50.172  14.479  22.487  0.00  0.00     0.105 A 
ATOM      9  C   UNL d   1     -50.796  14.251  22.976  0.00  0.00     0.013 A 
ATOM     10  C   UNL d   1     -51.038  14.760  23.579  0.00  0.00     0.001 A 
ATOM     11  C   UNL d   1     -50.667  15.484  23.696  0.00  0.00     0.000 A 
ATOM     12  C   UNL d   1     -50.043  15.708  23.205  0.00  0.00     0.001 A 
ATOM     13  C   UNL d   1     -49.802  15.199  22.603  0.00  0.00     0.013 A 
ENDBRANCH   5   8
ENDBRANCH   4   5
ENDBRANCH   2   4
ENDBRANCH   1   2
BRANCH   1  14
ATOM     14  N   UNL d   1     -47.438  13.104  22.361  0.00  0.00    -0.300 N 
ATOM     15  C   UNL d   1     -46.893  12.974  21.755  0.00  0.00     0.100 A 
ATOM     16  C   UNL d   1     -46.143  13.325  21.788  0.00  0.00     0.100 A 
ATOM     17  N   UNL d   1     -45.937  13.805  22.423  0.00  0.00    -0.299 N 
ATOM     18  C   UNL d   1     -46.484  13.937  23.033  0.00  0.00     0.100 A 
ATOM     19  C   UNL d   1     -45.186  14.156  22.452  0.00  0.00     0.100 C 
ATOM     20  C   UNL d   1     -47.226  13.589  23.001  0.00  0.00     0.100 A 
ENDBRANCH   1  14
BRANCH   1  21
ATOM     21  C   UNL d   1     -48.320  12.046  22.725  0.00  0.00     0.047 A 
ATOM     22  S   UNL d   1     -48.460  11.310  22.370  0.00  0.00    -0.085 SA
ATOM     23  C   UNL d   1     -48.570  10.758  22.977  0.00  0.00     0.035 A 
ATOM     24  C   UNL d   1     -48.500  11.138  23.698  0.00  0.00     0.007 A 
ATOM     25  C   UNL d   1     -48.344  11.941  23.544  0.00  0.00     0.009 A 
ENDBRANCH   1  21
TORSDOF 6
ENDMDL
MODEL 2
REMARK VINA RESULT:      -5.4      8.556     10.262
REMARK  6 active torsions:
REMARK  status: ('A' for Active; 'I' for Inactive)
REMARK    1  A    between atoms: N_2  and  S_1 
REMARK    2  A    between atoms: C_11  and  S_1 
REMARK    3  A    between atoms: C_3  and  N_2 
REMARK    4  A    between atoms: C_4  and  C_3 
REMARK    5  A    between atoms: N_5  and  C_4 
REMARK    6  A    between atoms: C_6  and  C_4 
ROOT
ATOM      1  C   UNL d   1     -39.470  14.875  17.827  0.00  0.00     0.089 C 
ENDROOT
BRANCH   1   2
ATOM      2  C   UNL d   1     -39.238  15.273  18.509  0.00  0.00     0.110 C 
ATOM      3  C   UNL d   1     -38.702  15.898  18.460  0.00  0.00     0.023 C 
BRANCH   2   4
ATOM      4  N   UNL d   1     -39.539  15.047  19.236  0.00  0.00    -0.157 NA
BRANCH   4   5
ATOM      5  S   UNL d   1     -39.332  15.451  19.922  0.00  0.00     0.285 S 
ATOM      6  O   UNL d   1     -38.629  15.648  19.527  0.00  0.00    -0.198 OA
ATOM      7  O   UNL d   1     -38.759  15.913  20.299  0.00  0.00    -0.198 OA
BRANCH   5   8
ATOM      8  C   UNL d   1     -40.003  15.294  20.369  0.00  0.00     0.105 A 
ATOM      9  C   UNL d   1     -40.550  15.895  20.509  0.00  0.00     0.013 A 
ATOM     10  C   UNL d   1     -41.222  15.729  20.959  0.00  0.00     0.001 A 
ATOM     11  C   UNL d   1     -41.349  14.978  21.266  0.00  0.00     0.000 A 
ATOM     12  C   UNL d   1     -40.800  14.379  21.125  0.00  0.00     0.001 A 
ATOM     13  C   UNL d   1     -40.129  14.546  20.675  0.00  0.00     0.013 A 
ENDBRANCH   5   8
ENDBRANCH   4   5
ENDBRANCH   2   4
ENDBRANCH   1   2
BRANCH   1  14
ATOM     14  N   UNL d   1     -39.091  14.183  17.603  0.00  0.00    -0.300 N 
ATOM     15  C   UNL d   1     -38.413  14.214  17.134  0.00  0.00     0.100 A 
ATOM     16  C   UNL d   1     -38.031  13.513  16.909  0.00  0.00     0.100 A 
ATOM     17  N   UNL d   1     -38.324  12.785  17.152  0.00  0.00    -0.299 N 
ATOM     18  C   UNL d   1     -39.005  12.753  17.624  0.00  0.00     0.100 A 
ATOM     19  C   UNL d   1     -37.940  12.086  16.925  0.00  0.00     0.100 C 
ATOM     20  C   UNL d   1     -39.384  13.445  17.847  0.00  0.00     0.100 A 
ENDBRANCH   1  14
BRANCH   1  21
ATOM     21  C   UNL d   1     -40.086  15.175  17.368  0.00  0.00     0.047 A 
ATOM     22  S   UNL d   1     -40.041  15.823  16.852  0.00  0.00    -0.085 SA
ATOM     23  C   UNL d   1     -40.788  15.922  16.511  0.00  0.00     0.035 A 
ATOM     24  C   UNL d   1     -41.293  15.350  16.804  0.00  0.00     0.007 A 
ATOM     25  C   UNL d   1     -40.858  14.882  17.339  0.00  0.00     0.009 A 
ENDBRANCH   1  21
TORSDOF 6
ENDMDL
MODEL 3
REMARK VINA RESULT:      -4.8      8.446     10.450
REMARK  6 active torsions:
REMARK  status: ('A' for Active; 'I' for Inactive)
REMARK    1  A    between atoms: N_2  and  S_1 
REMARK    2  A    between atoms: C_11  and  S_1 
REMARK    3  A    between atoms: C_3  and  N_2 
REMARK    4  A    between atoms: C_4  and  C_3 
REMARK    5  A    between atoms: N_5  and  C_4 
REMARK    6  A    between atoms: C_6  and  C_4 
ROOT
ATOM      1  C   UNL d   1     -39.354  14.972  20.850  0.00  0.00     0.089 C 
ENDROOT
BRANCH   1   2
ATOM      2  C   UNL d   1     -38.896  15.175  20.197  0.00  0.00     0.110 C 
ATOM      3  C   UNL d   1     -38.548  15.922  20.154  0.00  0.00     0.023 C 
BRANCH   2   4
ATOM      4  N   UNL d   1     -38.785  14.636  19.591  0.00  0.00    -0.157 NA
BRANCH   4   5
ATOM      5  S   UNL d   1     -38.372  14.845  18.911  0.00  0.00     0.285 S 
ATOM      6  O   UNL d   1     -38.244  15.576  19.281  0.00  0.00    -0.198 OA
ATOM      7  O   UNL d   1     -37.941  15.435  18.525  0.00  0.00    -0.198 OA
BRANCH   5   8
ATOM      8  C   UNL d   1     -38.462  14.145  18.489  0.00  0.00     0.105 A 
ATOM      9  C   UNL d   1     -39.083  14.072  17.951  0.00  0.00     0.013 A 
ATOM     10  C   UNL d   1     -39.167  13.366  17.530  0.00  0.00     0.001 A 
ATOM     11  C   UNL d   1     -38.643  12.743  17.642  0.00  0.00     0.000 A 
ATOM     12  C   UNL d   1     -38.024  12.821  18.181  0.00  0.00     0.001 A 
ATOM     13  C   UNL d   1     -37.940  13.526  18.601  0.00  0.00     0.013 A 
ENDBRANCH   5   8
ENDBRANCH   4   5
ENDBRANCH   2   4
ENDBRANCH   1   2
BRANCH   1  14
ATOM     14  N   UNL d   1     -39.016  14.576  21.484  0.00  0.00    -0.300 N 
ATOM     15  C   UNL d   1     -39.139  13.767  21.582  0.00  0.00     0.100 A 
ATOM     16  C   UNL d   1     -38.797  13.369  22.224  0.00  0.00     0.100 A 
ATOM     17  N   UNL d   1     -38.334  13.778  22.766  0.00  0.00    -0.299 N 
ATOM     18  C   UNL d   1     -38.209  14.592  22.668  0.00  0.00     0.100 A 
ATOM     19  C   UNL d   1     -37.993  13.377  23.407  0.00  0.00     0.100 C 
ATOM     20  C   UNL d   1     -38.547  14.986  22.034  0.00  0.00     0.100 A 
ENDBRANCH   1  14
BRANCH   1  21
ATOM     21  C   UNL d   1     -40.155  15.167  20.865  0.00  0.00     0.047 A 
ATOM     22  S   UNL d   1     -40.788  14.645  20.743  0.00  0.00    -0.085 SA
ATOM     23  C   UNL d   1     -41.487  15.082  20.809  0.00  0.00     0.035 A 
ATOM     24  C   UNL d   1     -41.300  15.861  20.969  0.00  0.00     0.007 A 
ATOM     25  C   UNL d   1     -40.470  15.918  21.004  0.00  0.00     0.009 A 
ENDBRANCH   1  21
TORSDOF 6
ENDMDL
MODEL 4
REMARK VINA RESULT:      -4.4      1.645      2.467
REMARK  6 active torsions:
REMARK  status: ('A' for Active; 'I' for Inactive)
REMARK    1  A    between atoms: N_2  and  S_1 
REMARK    2  A    between atoms: C_11  and  S_1 
REMARK    3  A    between atoms: C_3  and  N_2 
REMARK    4  A    between atoms: C_4  and  C_3 
REMARK    5  A    between atoms: N_5  and  C_4 
REMARK    6  A    between atoms: C_6  and  C_4 
ROOT
ATOM      1  C   UNL d   1     -47.318  13.137  22.400  0.00  0.00     0.089 C 
ENDROOT
BRANCH   1   2
ATOM      2  C   UNL d   1     -47.957  12.894  21.943  0.00  0.00     0.110 C 
ATOM      3  C   UNL d   1     -47.881  12.840  21.123  0.00  0.00     0.023 C 
BRANCH   2   4
ATOM      4  N   UNL d   1     -48.669  12.705  22.301  0.00  0.00    -0.157 NA
BRANCH   4   5
ATOM      5  S   UNL d   1     -49.316  12.467  21.853  0.00  0.00     0.285 S 
ATOM      6  O   UNL d   1     -48.786  12.411  21.218  0.00  0.00    -0.198 OA
ATOM      7  O   UNL d   1     -49.584  12.228  21.108  0.00  0.00    -0.198 OA
BRANCH   5   8
ATOM      8  C   UNL d   1     -49.893  12.501  22.437  0.00  0.00     0.105 A 
ATOM      9  C   UNL d   1     -50.396  13.153  22.476  0.00  0.00     0.013 A 
ATOM     10  C   UNL d   1     -50.973  13.180  23.065  0.00  0.00     0.001 A 
ATOM     11  C   UNL d   1     -51.050  12.569  23.609  0.00  0.00     0.000 A 
ATOM     12  C   UNL d   1     -50.545  11.918  23.567  0.00  0.00     0.001 A 
ATOM     13  C   UNL d   1     -49.969  11.892  22.978  0.00  0.00     0.013 A 
ENDBRANCH   5   8
ENDBRANCH   4   5
ENDBRANCH   2   4
ENDBRANCH   1   2
BRANCH   1  14
ATOM     14  N   UNL d   1     -46.788  12.585  22.695  0.00  0.00    -0.300 N 
ATOM     15  C   UNL d   1     -46.084  12.430  22.296  0.00  0.00     0.100 A 
ATOM     16  C   UNL d   1     -45.549  11.872  22.595  0.00  0.00     0.100 A 
ATOM     17  N   UNL d   1     -45.717  11.469  23.292  0.00  0.00    -0.299 N 
ATOM     18  C   UNL d   1     -46.426  11.623  23.695  0.00  0.00     0.100 A 
ATOM     19  C   UNL d   1     -45.181  10.910  23.589  0.00  0.00     0.100 C 
ATOM     20  C   UNL d   1     -46.955  12.175  23.399  0.00  0.00     0.100 A 
ENDBRANCH   1  14
BRANCH   1  21
ATOM     21  C   UNL d   1     -47.211  13.938  22.562  0.00  0.00     0.047 A 
ATOM     22  S   UNL d   1     -46.688  14.450  22.173  0.00  0.00    -0.085 SA
ATOM     23  C   UNL d   1     -46.768  15.197  22.518  0.00  0.00     0.035 A 
ATOM     24  C   UNL d   1     -47.328  15.158  23.112  0.00  0.00     0.007 A 
ATOM     25  C   UNL d   1     -47.607  14.374  23.142  0.00  0.00     0.009 A 
ENDBRANCH   1  21
TORSDOF 6
ENDMDL
MODEL 5
REMARK VINA RESULT:      -4.2      1.215      1.678
REMARK  6 active torsions:
REMARK  status: ('A' for Active; 'I' for Inactive)
REMARK    1  A    between atoms: N_2  and  S_1 
REMARK    2  A    between atoms: C_11  and  S_1 
REMARK    3  A    between atoms: C_3  and  N_2 
REMARK    4  A    between atoms: C_4  and  C_3 
REMARK    5  A    between atoms: N_5  and  C_4 
REMARK    6  A    between atoms: C_6  and  C_4 
ROOT
ATOM      1  C   UNL d   1     -47.502  13.006  22.784  0.00  0.00     0.089 C 
ENDROOT
BRANCH   1   2
ATOM      2  C   UNL d   1     -47.897  13.717  22.907  0.00  0.00     0.110 C 
ATOM      3  C   UNL d   1     -47.750  14.157  23.589  0.00  0.00     0.023 C 
BRANCH   2   4
ATOM      4  N   UNL d   1     -48.434  13.988  22.353  0.00  0.00    -0.157 NA
BRANCH   4   5
ATOM      5  S   UNL d   1     -48.770  14.736  22.421  0.00  0.00     0.285 S 
ATOM      6  O   UNL d   1     -48.024  14.986  22.684  0.00  0.00    -0.198 OA
ATOM      7  O   UNL d   1     -48.646  15.527  22.628  0.00  0.00    -0.198 OA
BRANCH   5   8
ATOM      8  C   UNL d   1     -49.531  14.556  22.169  0.00  0.00     0.105 A 
ATOM      9  C   UNL d   1     -49.665  14.378  21.375  0.00  0.00     0.013 A 
ATOM     10  C   UNL d   1     -50.433  14.198  21.129  0.00  0.00     0.001 A 
ATOM     11  C   UNL d   1     -51.057  14.196  21.662  0.00  0.00     0.000 A 
ATOM     12  C   UNL d   1     -50.919  14.376  22.455  0.00  0.00     0.001 A 
ATOM     13  C   UNL d   1     -50.152  14.555  22.700  0.00  0.00     0.013 A 
ENDBRANCH   5   8
ENDBRANCH   4   5
ENDBRANCH   2   4
ENDBRANCH   1   2
BRANCH   1  14
ATOM     14  N   UNL d   1     -46.733  13.005  22.497  0.00  0.00    -0.300 N 
ATOM     15  C   UNL d   1     -46.098  13.127  23.009  0.00  0.00     0.100 A 
ATOM     16  C   UNL d   1     -45.322  13.126  22.717  0.00  0.00     0.100 A 
ATOM     17  N   UNL d   1     -45.180  13.003  21.917  0.00  0.00    -0.299 N 
ATOM     18  C   UNL d   1     -45.818  12.880  21.401  0.00  0.00     0.100 A 
ATOM     19  C   UNL d   1     -44.403  13.002  21.628  0.00  0.00     0.100 C 
ATOM     20  C   UNL d   1     -46.586  12.881  21.689  0.00  0.00     0.100 A 
ENDBRANCH   1  14
BRANCH   1  21
ATOM     21  C   UNL d   1     -47.881  12.293  22.950  0.00  0.00     0.047 A 
ATOM     22  S   UNL d   1     -47.960  11.944  23.697  0.00  0.00    -0.085 SA
ATOM     23  C   UNL d   1     -48.377  11.236  23.599  0.00  0.00     0.035 A 
ATOM     24  C   UNL d   1     -48.558  11.141  22.807  0.00  0.00     0.007 A 
ATOM     25  C   UNL d   1     -48.249  11.798  22.399  0.00  0.00     0.009 A 
ENDBRANCH   1  21
TORSDOF 6
ENDMDL
MODEL 6
REMARK VINA RESULT:      -4.2      1.385      3.777
REMARK  6 active torsions:
REMARK  status: ('A' for Active; 'I' for Inactive)
REMARK    1  A    between atoms: N_2  and  S_1 
REMARK    2  A    between atoms: C_11  and  S_1 
REMARK    3  A    between atoms: C_3  and  N_2 
REMARK    4  A    between atoms: C_4  and  C_3 
REMARK    5  A    between atoms: N_5  and  C_4 
REMARK    6  A    between atoms: C_6  and  C_4 
ROOT
ATOM      1  C   UNL d   1     -49.393  13.251  22.525  0.00  0.00     0.089 C 
ENDROOT
BRANCH   1   2
ATOM      2  C   UNL d   1     -48.808  12.883  22.972  0.00  0.00     0.110 C 
ATOM      3  C   UNL d   1     -49.017  12.346  23.562  0.00  0.00     0.023 C 
BRANCH   2   4
ATOM      4  N   UNL d   1     -48.020  13.051  22.830  0.00  0.00    -0.157 NA
BRANCH   4   5
ATOM      5  S   UNL d   1     -47.424  12.614  23.193  0.00  0.00     0.285 S 
ATOM      6  O   UNL d   1     -48.035  12.168  23.532  0.00  0.00    -0.198 OA
ATOM      7  O   UNL d   1     -47.246  11.984  23.698  0.00  0.00    -0.198 OA
BRANCH   5   8
ATOM      8  C   UNL d   1     -46.773  13.014  22.891  0.00  0.00     0.105 A 
ATOM      9  C   UNL d   1     -46.353  12.690  22.259  0.00  0.00     0.013 A 
ATOM     10  C   UNL d   1     -45.700  13.098  21.961  0.00  0.00     0.001 A 
ATOM     11  C   UNL d   1     -45.466  13.816  22.285  0.00  0.00     0.000 A 
ATOM     12  C   UNL d   1     -45.889  14.137  22.916  0.00  0.00     0.001 A 
ATOM     13  C   UNL d   1     -46.542  13.729  23.213  0.00  0.00     0.013 A 
ENDBRANCH   5   8
ENDBRANCH   4   5
ENDBRANCH   2   4
ENDBRANCH   1   2
BRANCH   1  14
ATOM     14  N   UNL d   1     -49.780  13.913  22.816  0.00  0.00    -0.300 N 
ATOM     15  C   UNL d   1     -49.434  14.659  22.750  0.00  0.00     0.100 A 
ATOM     16  C   UNL d   1     -49.826  15.327  23.044  0.00  0.00     0.100 A 
ATOM     17  N   UNL d   1     -50.562  15.251  23.404  0.00  0.00    -0.299 N 
ATOM     18  C   UNL d   1     -50.911  14.502  23.471  0.00  0.00     0.100 A 
ATOM     19  C   UNL d   1     -50.952  15.922  23.698  0.00  0.00     0.100 C 
ATOM     20  C   UNL d   1     -50.524  13.840  23.180  0.00  0.00     0.100 A 
ENDBRANCH   1  14
BRANCH   1  21
ATOM     21  C   UNL d   1     -49.591  12.951  21.783  0.00  0.00     0.047 A 
ATOM     22  S   UNL d   1     -49.553  13.363  21.064  0.00  0.00    -0.085 SA
ATOM     23  C   UNL d   1     -49.802  12.846  20.468  0.00  0.00     0.035 A 
ATOM     24  C   UNL d   1     -49.992  12.125  20.802  0.00  0.00     0.007 A 
ATOM     25  C   UNL d   1     -49.862  12.187  21.623  0.00  0.00     0.009 A 
ENDBRANCH   1  21
TORSDOF 6
ENDMDL
MODEL 7
REMARK VINA RESULT:      -3.8      7.947     10.474
REMARK  6 active torsions:
REMARK  status: ('A' for Active; 'I' for Inactive)
REMARK    1  A    between atoms: N_2  and  S_1 
REMARK    2  A    between atoms: C_11  and  S_1 
REMARK    3  A    between atoms: C_3  and  N_2 
REMARK    4  A    between atoms: C_4  and  C_3 
REMARK    5  A    between atoms: N_5  and  C_4 
REMARK    6  A    between atoms: C_6  and  C_4 
ROOT
ATOM      1  C   UNL d   1     -39.136  14.917  20.623  0.00  0.00     0.089 C 
ENDROOT
BRANCH   1   2
ATOM      2  C   UNL d   1     -38.739  15.232  19.975  0.00  0.00     0.110 C 
ATOM      3  C   UNL d   1     -38.294  15.921  20.059  0.00  0.00     0.023 C 
BRANCH   2   4
ATOM      4  N   UNL d   1     -38.785  14.860  19.247  0.00  0.00    -0.157 NA
BRANCH   4   5
ATOM      5  S   UNL d   1     -38.392  15.166  18.592  0.00  0.00     0.285 S 
ATOM      6  O   UNL d   1     -38.194  15.807  19.080  0.00  0.00    -0.198 OA
ATOM      7  O   UNL d   1     -37.940  15.791  18.293  0.00  0.00    -0.198 OA
BRANCH   5   8
ATOM      8  C   UNL d   1     -38.554  14.564  18.056  0.00  0.00     0.105 A 
ATOM      9  C   UNL d   1     -38.028  13.933  17.982  0.00  0.00     0.013 A 
ATOM     10  C   UNL d   1     -38.197  13.332  17.442  0.00  0.00     0.001 A 
ATOM     11  C   UNL d   1     -38.876  13.358  16.981  0.00  0.00     0.000 A 
ATOM     12  C   UNL d   1     -39.400  13.991  17.057  0.00  0.00     0.001 A 
ATOM     13  C   UNL d   1     -39.230  14.591  17.597  0.00  0.00     0.013 A 
ENDBRANCH   5   8
ENDBRANCH   4   5
ENDBRANCH   2   4
ENDBRANCH   1   2
BRANCH   1  14
ATOM     14  N   UNL d   1     -39.941  15.044  20.714  0.00  0.00    -0.300 N 
ATOM     15  C   UNL d   1     -40.476  14.429  20.590  0.00  0.00     0.100 A 
ATOM     16  C   UNL d   1     -41.290  14.559  20.684  0.00  0.00     0.100 A 
ATOM     17  N   UNL d   1     -41.568  15.302  20.900  0.00  0.00    -0.299 N 
ATOM     18  C   UNL d   1     -41.032  15.922  21.025  0.00  0.00     0.100 A 
ATOM     19  C   UNL d   1     -42.383  15.430  20.992  0.00  0.00     0.100 C 
ATOM     20  C   UNL d   1     -40.227  15.794  20.933  0.00  0.00     0.100 A 
ENDBRANCH   1  14
BRANCH   1  21
ATOM     21  C   UNL d   1     -38.723  14.473  21.181  0.00  0.00     0.047 A 
ATOM     22  S   UNL d   1     -38.277  14.774  21.812  0.00  0.00    -0.085 SA
ATOM     23  C   UNL d   1     -37.964  14.129  22.225  0.00  0.00     0.035 A 
ATOM     24  C   UNL d   1     -38.206  13.438  21.863  0.00  0.00     0.007 A 
ATOM     25  C   UNL d   1     -38.680  13.648  21.211  0.00  0.00     0.009 A 
ENDBRANCH   1  21
TORSDOF 6
ENDMDL
MODEL 8
REMARK VINA RESULT:      -3.6      7.726      9.825
REMARK  6 active torsions:
REMARK  status: ('A' for Active; 'I' for Inactive)
REMARK    1  A    between atoms: N_2  and  S_1 
REMARK    2  A    between atoms: C_11  and  S_1 
REMARK    3  A    between atoms: C_3  and  N_2 
REMARK    4  A    between atoms: C_4  and  C_3 
REMARK    5  A    between atoms: N_5  and  C_4 
REMARK    6  A    between atoms: C_6  and  C_4 
ROOT
ATOM      1  C   UNL d   1     -40.269  14.793  20.182  0.00  0.00     0.089 C 
ENDROOT
BRANCH   1   2
ATOM      2  C   UNL d   1     -39.691  15.106  20.677  0.00  0.00     0.110 C 
ATOM      3  C   UNL d   1     -39.643  15.922  20.790  0.00  0.00     0.023 C 
BRANCH   2   4
ATOM      4  N   UNL d   1     -39.164  14.608  21.057  0.00  0.00    -0.157 NA
BRANCH   4   5
ATOM      5  S   UNL d   1     -38.535  14.913  21.491  0.00  0.00     0.285 S 
ATOM      6  O   UNL d   1     -38.609  15.590  21.018  0.00  0.00    -0.198 OA
ATOM      7  O   UNL d   1     -38.028  15.556  21.605  0.00  0.00    -0.198 OA
BRANCH   5   8
ATOM      8  C   UNL d   1     -38.407  14.275  21.993  0.00  0.00     0.105 A 
ATOM      9  C   UNL d   1     -38.620  14.332  22.788  0.00  0.00     0.013 A 
ATOM     10  C   UNL d   1     -38.489  13.687  23.285  0.00  0.00     0.001 A 
ATOM     11  C   UNL d   1     -38.152  12.995  23.000  0.00  0.00     0.000 A 
ATOM     12  C   UNL d   1     -37.940  12.941  22.204  0.00  0.00     0.001 A 
ATOM     13  C   UNL d   1     -38.071  13.586  21.707  0.00  0.00     0.013 A 
ENDBRANCH   5   8
ENDBRANCH   4   5
ENDBRANCH   2   4
ENDBRANCH   1   2
BRANCH   1  14
ATOM     14  N   UNL d   1     -40.148  14.766  19.372  0.00  0.00    -0.300 N 
ATOM     15  C   UNL d   1     -39.867  14.078  19.016  0.00  0.00     0.100 A 
ATOM     16  C   UNL d   1     -39.745  14.053  18.196  0.00  0.00     0.100 A 
ATOM     17  N   UNL d   1     -39.903  14.714  17.733  0.00  0.00    -0.299 N 
ATOM     18  C   UNL d   1     -40.186  15.407  18.090  0.00  0.00     0.100 A 
ATOM     19  C   UNL d   1     -39.780  14.686  16.913  0.00  0.00     0.100 C 
ATOM     20  C   UNL d   1     -40.307  15.432  18.900  0.00  0.00     0.100 A 
ENDBRANCH   1  14
BRANCH   1  21
ATOM     21  C   UNL d   1     -40.971  14.505  20.504  0.00  0.00     0.047 A 
ATOM     22  S   UNL d   1     -41.581  14.960  20.833  0.00  0.00    -0.085 SA
ATOM     23  C   UNL d   1     -42.173  14.439  21.084  0.00  0.00     0.035 A 
ATOM     24  C   UNL d   1     -41.943  13.673  20.917  0.00  0.00     0.007 A 
ATOM     25  C   UNL d   1     -41.193  13.710  20.555  0.00  0.00     0.009 A 
ENDBRANCH   1  21
TORSDOF 6
ENDMDL
MODEL 9
REMARK VINA RESULT:      -3.1      1.372      2.640
REMARK  6 active torsions:
REMARK  status: ('A' for Active; 'I' for Inactive)
REMARK    1  A    between atoms: N_2  and  S_1 
REMARK    2  A    between atoms: C_11  and  S_1 
REMARK    3  A    between atoms: C_3  and  N_2 
REMARK    4  A    between atoms: C_4  and  C_3 
REMARK    5  A    between atoms: N_5  and  C_4 
REMARK    6  A    between atoms: C_6  and  C_4 
ROOT
ATOM      1  C   UNL d   1     -47.374  13.360  22.568  0.00  0.00     0.089 C 
ENDROOT
BRANCH   1   2
ATOM      2  C   UNL d   1     -47.631  14.134  22.682  0.00  0.00     0.110 C 
ATOM      3  C   UNL d   1     -47.137  14.682  23.052  0.00  0.00     0.023 C 
BRANCH   2   4
ATOM      4  N   UNL d   1     -48.376  14.359  22.428  0.00  0.00    -0.157 NA
BRANCH   4   5
ATOM      5  S   UNL d   1     -48.581  15.154  22.376  0.00  0.00     0.285 S 
ATOM      6  O   UNL d   1     -47.786  15.288  22.178  0.00  0.00    -0.198 OA
ATOM      7  O   UNL d   1     -48.316  15.922  22.220  0.00  0.00    -0.198 OA
BRANCH   5   8
ATOM      8  C   UNL d   1     -49.378  15.092  22.566  0.00  0.00     0.105 A 
ATOM      9  C   UNL d   1     -49.631  15.284  23.328  0.00  0.00     0.013 A 
ATOM     10  C   UNL d   1     -50.433  15.218  23.511  0.00  0.00     0.001 A 
ATOM     11  C   UNL d   1     -50.976  14.967  22.948  0.00  0.00     0.000 A 
ATOM     12  C   UNL d   1     -50.719  14.776  22.188  0.00  0.00     0.001 A 
ATOM     13  C   UNL d   1     -49.917  14.841  22.005  0.00  0.00     0.013 A 
ENDBRANCH   5   8
ENDBRANCH   4   5
ENDBRANCH   2   4
ENDBRANCH   1   2
BRANCH   1  14
ATOM     14  N   UNL d   1     -47.870  12.731  22.743  0.00  0.00    -0.300 N 
ATOM     15  C   UNL d   1     -47.957  12.475  23.523  0.00  0.00     0.100 A 
ATOM     16  C   UNL d   1     -48.459  11.839  23.698  0.00  0.00     0.100 A 
ATOM     17  N   UNL d   1     -48.873  11.459  23.097  0.00  0.00    -0.299 N 
ATOM     18  C   UNL d   1     -48.786  11.716  22.313  0.00  0.00     0.100 A 
ATOM     19  C   UNL d   1     -49.374  10.823  23.276  0.00  0.00     0.100 C 
ATOM     20  C   UNL d   1     -48.290  12.345  22.139  0.00  0.00     0.100 A 
ENDBRANCH   1  14
BRANCH   1  21
ATOM     21  C   UNL d   1     -46.616  13.219  22.277  0.00  0.00     0.047 A 
ATOM     22  S   UNL d   1     -45.911  13.249  22.713  0.00  0.00    -0.085 SA
ATOM     23  C   UNL d   1     -45.291  13.069  22.196  0.00  0.00     0.035 A 
ATOM     24  C   UNL d   1     -45.597  12.929  21.451  0.00  0.00     0.007 A 
ATOM     25  C   UNL d   1     -46.423  13.021  21.498  0.00  0.00     0.009 A 
ENDBRANCH   1  21
TORSDOF 6
ENDMDL
