MODEL 1
REMARK VINA RESULT:      42.2      0.000      0.000
REMARK  3 active torsions:
REMARK  status: ('A' for Active; 'I' for Inactive)
REMARK    1  A    between atoms: C_4  and  C_1 
REMARK    2  A    between atoms: C_6  and  C_4 
REMARK    3  A    between atoms: N_5  and  C_7 
ROOT
ATOM      1  C   UNL d   1     -55.959 -99.462 -44.811  0.00  0.00     0.231 C 
ATOM      2  O   UNL d   1     -55.540 -98.930 -45.265  0.00  0.00    -0.283 OA
ENDROOT
BRANCH   1   3
ATOM      3  C   UNL d   1     -56.750 -99.309 -44.599  0.00  0.00     0.188 A 
ATOM      4  N   UNL d   1     -57.052 -99.311 -43.837  0.00  0.00    -0.224 NA
ATOM      5  C   UNL d   1     -57.868 -99.132 -43.861  0.00  0.00     0.099 A 
ATOM      6  C   UNL d   1     -58.441 -99.058 -43.296  0.00  0.00     0.021 A 
ATOM      7  C   UNL d   1     -58.063 -99.019 -44.669  0.00  0.00     0.083 A 
ATOM      8  C   UNL d   1     -59.196 -98.876 -43.504  0.00  0.00     0.002 A 
ATOM      9  C   UNL d   1     -59.427 -98.757 -44.286  0.00  0.00     0.002 A 
ATOM     10  C   UNL d   1     -58.835 -98.835 -44.862  0.00  0.00     0.019 A 
ATOM     11  N   UNL d   1     -57.357 -99.134 -45.101  0.00  0.00    -0.285 N 
ATOM     12  C   UNL d   1     -57.214 -99.093 -45.919  0.00  0.00     0.101 C 
ENDBRANCH   1   3
BRANCH   1  13
ATOM     13  C   UNL d   1     -55.589-100.179 -44.550  0.00  0.00     0.064 A 
ATOM     14  C   UNL d   1     -55.069-100.172 -43.920  0.00  0.00     0.130 A 
ATOM     15  C   UNL d   1     -54.711-100.869 -43.670  0.00  0.00     0.024 A 
ATOM     16  C   UNL d   1     -54.873-101.583 -44.052  0.00  0.00     0.002 A 
ATOM     17  C   UNL d   1     -55.409-101.574 -44.697  0.00  0.00     0.000 A 
ATOM     18  C   UNL d   1     -55.769-100.878 -44.951  0.00  0.00     0.005 A 
BRANCH  14  19
ATOM     19  N   UNL d   1     -54.901 -99.460 -43.530  0.00  0.00    -0.114 N 
ATOM     20  O   UNL d   1     -54.933 -99.498 -42.715  0.00  0.00    -0.532 OA
ATOM     21  O   UNL d   1     -54.712 -98.755 -43.955  0.00  0.00    -0.532 OA
ENDBRANCH  14  19
ENDBRANCH   1  13
TORSDOF 3
ENDMDL
MODEL 2
REMARK VINA RESULT:      42.4      1.747      3.807
REMARK  3 active torsions:
REMARK  status: ('A' for Active; 'I' for Inactive)
REMARK    1  A    between atoms: C_4  and  C_1 
REMARK    2  A    between atoms: C_6  and  C_4 
REMARK    3  A    between atoms: N_5  and  C_7 
ROOT
ATOM      1  C   UNL d   1     -57.727 -98.942 -43.501  0.00  0.00     0.231 C 
ATOM      2  O   UNL d   1     -57.748 -98.757 -42.707  0.00  0.00    -0.283 OA
ENDROOT
BRANCH   1   3
ATOM      3  C   UNL d   1     -57.019 -99.193 -43.861  0.00  0.00     0.188 A 
ATOM      4  N   UNL d   1     -56.571 -98.760 -44.394  0.00  0.00    -0.224 NA
ATOM      5  C   UNL d   1     -55.904 -99.207 -44.625  0.00  0.00     0.099 A 
ATOM      6  C   UNL d   1     -55.284 -99.070 -45.124  0.00  0.00     0.021 A 
ATOM      7  C   UNL d   1     -55.954 -99.938 -44.214  0.00  0.00     0.083 A 
ATOM      8  C   UNL d   1     -54.716 -99.629 -45.229  0.00  0.00     0.002 A 
ATOM      9  C   UNL d   1     -54.729-100.358 -44.845  0.00  0.00     0.002 A 
ATOM     10  C   UNL d   1     -55.368-100.493 -44.333  0.00  0.00     0.019 A 
ATOM     11  N   UNL d   1     -56.650 -99.902 -43.751  0.00  0.00    -0.285 N 
ATOM     12  C   UNL d   1     -56.981-100.462 -43.234  0.00  0.00     0.101 C 
ENDBRANCH   1   3
BRANCH   1  13
ATOM     13  C   UNL d   1     -58.433 -98.879 -43.968  0.00  0.00     0.064 A 
ATOM     14  C   UNL d   1     -59.167 -98.875 -43.610  0.00  0.00     0.130 A 
ATOM     15  C   UNL d   1     -59.849 -98.814 -44.065  0.00  0.00     0.024 A 
ATOM     16  C   UNL d   1     -59.800 -98.755 -44.887  0.00  0.00     0.002 A 
ATOM     17  C   UNL d   1     -59.039 -98.760 -45.239  0.00  0.00     0.000 A 
ATOM     18  C   UNL d   1     -58.353 -98.821 -44.787  0.00  0.00     0.005 A 
BRANCH  14  19
ATOM     19  N   UNL d   1     -59.226 -98.934 -42.785  0.00  0.00    -0.114 N 
ATOM     20  O   UNL d   1     -59.958 -99.170 -42.509  0.00  0.00    -0.532 OA
ATOM     21  O   UNL d   1     -58.572 -98.761 -42.280  0.00  0.00    -0.532 OA
ENDBRANCH  14  19
ENDBRANCH   1  13
TORSDOF 3
ENDMDL
