MODEL 1
REMARK VINA RESULT:      -2.1      0.000      0.000
REMARK  0 active torsions:
REMARK  status: ('A' for Active; 'I' for Inactive)
ROOT
ATOM      1  C   UNL d   1      46.498 -19.092  43.454  0.00  0.00     0.116 A 
ATOM      2  C   UNL d   1      46.477 -19.917  43.446  0.00  0.00     0.192 A 
ATOM      3  N   UNL d   1      46.345 -19.916  44.862  0.00  0.00    -0.145 NA
ATOM      4  C   UNL d   1      46.575 -18.694  42.744  0.00  0.00     0.285 A 
ATOM      5  N   UNL d   1      46.532 -20.328  42.751  0.00  0.00    -0.203 NA
ATOM      6  N   UNL d   1      46.401 -20.327  44.148  0.00  0.00    -0.128 NA
ATOM      7  N   UNL d   1      46.631 -19.109  42.030  0.00  0.00    -0.185 NA
ATOM      8  C   UNL d   1      46.609 -19.927  42.040  0.00  0.00     0.203 A 
ATOM      9  C   UNL d   1      46.365 -19.100  44.865  0.00  0.00     0.130 A 
ATOM     10  O   UNL d   1      46.597 -17.869  42.735  0.00  0.00    -0.265 OA
ENDROOT
TORSDOF 0
ENDMDL
MODEL 2
REMARK VINA RESULT:      -1.7      6.087      6.779
REMARK  0 active torsions:
REMARK  status: ('A' for Active; 'I' for Inactive)
ROOT
ATOM      1  C   UNL d   1      45.107 -13.393  43.873  0.00  0.00     0.116 A 
ATOM      2  C   UNL d   1      45.624 -12.754  43.938  0.00  0.00     0.192 A 
ATOM      3  N   UNL d   1      44.903 -12.080  42.915  0.00  0.00    -0.145 NA
ATOM      4  C   UNL d   1      45.222 -14.042  44.358  0.00  0.00     0.285 A 
ATOM      5  N   UNL d   1      46.235 -12.764  44.470  0.00  0.00    -0.203 NA
ATOM      6  N   UNL d   1      45.522 -12.100  43.460  0.00  0.00    -0.128 NA
ATOM      7  N   UNL d   1      45.844 -14.058  44.904  0.00  0.00    -0.185 NA
ATOM      8  C   UNL d   1      46.347 -13.415  44.955  0.00  0.00     0.203 A 
ATOM      9  C   UNL d   1      44.394 -12.716  42.854  0.00  0.00     0.130 A 
ATOM     10  O   UNL d   1      44.713 -14.690  44.305  0.00  0.00    -0.265 OA
ENDROOT
TORSDOF 0
ENDMDL
