MODEL 1
REMARK VINA RESULT:      -7.6      0.000      0.000
REMARK  7 active torsions:
REMARK  status: ('A' for Active; 'I' for Inactive)
REMARK    1  A    between atoms: C_4  and  C_10 
REMARK    2  A    between atoms: O_17  and  C_4 
REMARK    3  A    between atoms: O_19  and  C_5 
REMARK    4  A    between atoms: O_20  and  C_7 
REMARK    5  A    between atoms: C_12  and  C_8 
REMARK    6  A    between atoms: O_15  and  C_12 
REMARK    7  A    between atoms: C_16  and  O_15 
ROOT
ATOM      1  C   UNL d   1     -49.684  13.162  23.305  0.00  0.00     0.022 A 
ATOM      2  C   UNL d   1     -49.191  13.812  23.206  0.00  0.00     0.028 A 
ATOM      3  C   UNL d   1     -50.515  13.251  23.281  0.00  0.00     0.005 A 
ATOM      4  C   UNL d   1     -49.529  14.551  23.083  0.00  0.00     0.116 A 
ATOM      5  C   UNL d   1     -50.848  13.989  23.158  0.00  0.00     0.026 A 
ATOM      6  C   UNL d   1     -50.360  14.640  23.059  0.00  0.00     0.116 A 
ATOM      7  C   UNL d   1     -49.346  12.426  23.428  0.00  0.00     0.106 A 
ATOM      8  N   UNL d   1     -49.839  11.776  23.526  0.00  0.00    -0.242 NA
ATOM      9  C   UNL d   1     -50.670  11.865  23.502  0.00  0.00     0.099 A 
ATOM     10  C   UNL d   1     -51.003  12.604  23.379  0.00  0.00     0.021 A 
ENDROOT
BRANCH   7  11
ATOM     11  C   UNL d   1     -48.514  12.337  23.452  0.00  0.00     0.142 C 
BRANCH  11  12
ATOM     12  O   UNL d   1     -48.182  11.629  23.698  0.00  0.00    -0.304 OA
BRANCH  12  13
ATOM     13  C   UNL d   1     -47.364  11.501  23.618  0.00  0.00     0.100 A 
ATOM     14  C   UNL d   1     -47.049  10.741  23.669  0.00  0.00     0.025 A 
ATOM     15  C   UNL d   1     -46.232  10.612  23.590  0.00  0.00     0.007 A 
ATOM     16  C   UNL d   1     -45.715  11.242  23.459  0.00  0.00     0.063 A 
ATOM     17  C   UNL d   1     -46.031  12.002  23.408  0.00  0.00     0.007 A 
ATOM     18  C   UNL d   1     -46.848  12.131  23.487  0.00  0.00     0.025 A 
BRANCH  16  19
ATOM     19  C   UNL d   1     -44.898  11.108  23.380  0.00  0.00     0.296 C 
ATOM     20  O   UNL d   1     -44.416  11.645  22.993  0.00  0.00    -0.259 OA
BRANCH  19  21
ATOM     21  O   UNL d   1     -44.555  10.419  23.698  0.00  0.00    -0.296 OA
ATOM     22  C   UNL d   1     -43.725  10.293  23.644  0.00  0.00     0.185 C 
ENDBRANCH  19  21
ENDBRANCH  16  19
ENDBRANCH  12  13
ENDBRANCH  11  12
ENDBRANCH   7  11
BRANCH   4  23
ATOM     23  O   UNL d   1     -49.034  15.217  22.982  0.00  0.00    -0.326 OA
ATOM     24  C   UNL d   1     -48.391  15.172  22.475  0.00  0.00     0.181 C 
ENDBRANCH   4  23
BRANCH   6  25
ATOM     25  O   UNL d   1     -50.706  15.396  22.934  0.00  0.00    -0.326 OA
ATOM     26  C   UNL d   1     -50.813  15.894  23.583  0.00  0.00     0.181 C 
ENDBRANCH   6  25
TORSDOF 7
ENDMDL
MODEL 2
REMARK VINA RESULT:      -6.6      1.693      2.150
REMARK  7 active torsions:
REMARK  status: ('A' for Active; 'I' for Inactive)
REMARK    1  A    between atoms: C_4  and  C_10 
REMARK    2  A    between atoms: O_17  and  C_4 
REMARK    3  A    between atoms: O_19  and  C_5 
REMARK    4  A    between atoms: O_20  and  C_7 
REMARK    5  A    between atoms: C_12  and  C_8 
REMARK    6  A    between atoms: O_15  and  C_12 
REMARK    7  A    between atoms: C_16  and  O_15 
ROOT
ATOM      1  C   UNL d   1     -48.377  13.097  23.202  0.00  0.00     0.022 A 
ATOM      2  C   UNL d   1     -48.260  13.882  22.987  0.00  0.00     0.028 A 
ATOM      3  C   UNL d   1     -49.139  12.822  23.409  0.00  0.00     0.005 A 
ATOM      4  C   UNL d   1     -48.905  14.392  22.979  0.00  0.00     0.116 A 
ATOM      5  C   UNL d   1     -49.780  13.333  23.399  0.00  0.00     0.026 A 
ATOM      6  C   UNL d   1     -49.667  14.117  23.186  0.00  0.00     0.116 A 
ATOM      7  C   UNL d   1     -47.734  12.590  23.210  0.00  0.00     0.106 A 
ATOM      8  N   UNL d   1     -47.851  11.805  23.424  0.00  0.00    -0.242 NA
ATOM      9  C   UNL d   1     -48.613  11.530  23.631  0.00  0.00     0.099 A 
ATOM     10  C   UNL d   1     -49.254  12.042  23.621  0.00  0.00     0.021 A 
ENDROOT
BRANCH   7  11
ATOM     11  C   UNL d   1     -46.971  12.865  23.003  0.00  0.00     0.142 C 
BRANCH  11  12
ATOM     12  O   UNL d   1     -46.312  12.397  23.138  0.00  0.00    -0.304 OA
BRANCH  12  13
ATOM     13  C   UNL d   1     -45.613  12.523  22.707  0.00  0.00     0.100 A 
ATOM     14  C   UNL d   1     -45.010  11.960  22.705  0.00  0.00     0.025 A 
ATOM     15  C   UNL d   1     -44.311  12.086  22.274  0.00  0.00     0.007 A 
ATOM     16  C   UNL d   1     -44.202  12.778  21.837  0.00  0.00     0.063 A 
ATOM     17  C   UNL d   1     -44.805  13.341  21.840  0.00  0.00     0.007 A 
ATOM     18  C   UNL d   1     -45.504  13.214  22.271  0.00  0.00     0.025 A 
BRANCH  16  19
ATOM     19  C   UNL d   1     -43.500  12.899  21.407  0.00  0.00     0.296 C 
ATOM     20  O   UNL d   1     -43.345  12.479  20.722  0.00  0.00    -0.259 OA
BRANCH  19  21
ATOM     21  O   UNL d   1     -42.940  13.456  21.671  0.00  0.00    -0.296 OA
ATOM     22  C   UNL d   1     -42.228  13.580  21.242  0.00  0.00     0.185 C 
ENDBRANCH  19  21
ENDBRANCH  16  19
ENDBRANCH  12  13
ENDBRANCH  11  12
ENDBRANCH   7  11
BRANCH   4  23
ATOM     23  O   UNL d   1     -48.793  15.190  22.762  0.00  0.00    -0.326 OA
ATOM     24  C   UNL d   1     -48.336  15.374  22.107  0.00  0.00     0.181 C 
ENDBRANCH   4  23
BRANCH   6  25
ATOM     25  O   UNL d   1     -50.327  14.637  23.178  0.00  0.00    -0.326 OA
ATOM     26  C   UNL d   1     -51.064  14.343  23.405  0.00  0.00     0.181 C 
ENDBRANCH   6  25
TORSDOF 7
ENDMDL
MODEL 3
REMARK VINA RESULT:      -6.4      1.657      2.398
REMARK  7 active torsions:
REMARK  status: ('A' for Active; 'I' for Inactive)
REMARK    1  A    between atoms: C_4  and  C_10 
REMARK    2  A    between atoms: O_17  and  C_4 
REMARK    3  A    between atoms: O_19  and  C_5 
REMARK    4  A    between atoms: O_20  and  C_7 
REMARK    5  A    between atoms: C_12  and  C_8 
REMARK    6  A    between atoms: O_15  and  C_12 
REMARK    7  A    between atoms: C_16  and  O_15 
ROOT
ATOM      1  C   UNL d   1     -48.474  13.892  22.452  0.00  0.00     0.022 A 
ATOM      2  C   UNL d   1     -48.692  13.099  22.430  0.00  0.00     0.028 A 
ATOM      3  C   UNL d   1     -49.022  14.489  22.247  0.00  0.00     0.005 A 
ATOM      4  C   UNL d   1     -49.458  12.904  22.204  0.00  0.00     0.116 A 
ATOM      5  C   UNL d   1     -49.785  14.290  22.022  0.00  0.00     0.026 A 
ATOM      6  C   UNL d   1     -50.006  13.501  21.999  0.00  0.00     0.116 A 
ATOM      7  C   UNL d   1     -47.711  14.084  22.677  0.00  0.00     0.106 A 
ATOM      8  N   UNL d   1     -47.493  14.877  22.699  0.00  0.00    -0.242 NA
ATOM      9  C   UNL d   1     -48.041  15.474  22.494  0.00  0.00     0.099 A 
ATOM     10  C   UNL d   1     -48.804  15.275  22.269  0.00  0.00     0.021 A 
ENDROOT
BRANCH   7  11
ATOM     11  C   UNL d   1     -47.162  13.486  22.882  0.00  0.00     0.142 C 
BRANCH  11  12
ATOM     12  O   UNL d   1     -46.358  13.618  22.799  0.00  0.00    -0.304 OA
BRANCH  12  13
ATOM     13  C   UNL d   1     -45.822  12.986  22.858  0.00  0.00     0.100 A 
ATOM     14  C   UNL d   1     -46.012  12.308  23.289  0.00  0.00     0.025 A 
ATOM     15  C   UNL d   1     -45.476  11.676  23.347  0.00  0.00     0.007 A 
ATOM     16  C   UNL d   1     -44.740  11.710  22.976  0.00  0.00     0.063 A 
ATOM     17  C   UNL d   1     -44.550  12.387  22.545  0.00  0.00     0.007 A 
ATOM     18  C   UNL d   1     -45.086  13.019  22.486  0.00  0.00     0.025 A 
BRANCH  16  19
ATOM     19  C   UNL d   1     -44.207  11.074  23.037  0.00  0.00     0.296 C 
ATOM     20  O   UNL d   1     -43.503  11.069  22.617  0.00  0.00    -0.259 OA
BRANCH  19  21
ATOM     21  O   UNL d   1     -44.383  10.428  23.532  0.00  0.00    -0.296 OA
ATOM     22  C   UNL d   1     -43.797   9.847  23.698  0.00  0.00     0.185 C 
ENDBRANCH  19  21
ENDBRANCH  16  19
ENDBRANCH  12  13
ENDBRANCH  11  12
ENDBRANCH   7  11
BRANCH   4  23
ATOM     23  O   UNL d   1     -49.687  12.101  22.180  0.00  0.00    -0.326 OA
ATOM     24  C   UNL d   1     -49.201  11.529  22.511  0.00  0.00     0.181 C 
ENDBRANCH   4  23
BRANCH   6  25
ATOM     25  O   UNL d   1     -50.789  13.303  21.768  0.00  0.00    -0.326 OA
ATOM     26  C   UNL d   1     -51.064  13.571  21.037  0.00  0.00     0.181 C 
ENDBRANCH   6  25
TORSDOF 7
ENDMDL
MODEL 4
REMARK VINA RESULT:      -5.9      1.946      2.984
REMARK  7 active torsions:
REMARK  status: ('A' for Active; 'I' for Inactive)
REMARK    1  A    between atoms: C_4  and  C_10 
REMARK    2  A    between atoms: O_17  and  C_4 
REMARK    3  A    between atoms: O_19  and  C_5 
REMARK    4  A    between atoms: O_20  and  C_7 
REMARK    5  A    between atoms: C_12  and  C_8 
REMARK    6  A    between atoms: O_15  and  C_12 
REMARK    7  A    between atoms: C_16  and  O_15 
ROOT
ATOM      1  C   UNL d   1     -48.439  13.313  22.875  0.00  0.00     0.022 A 
ATOM      2  C   UNL d   1     -48.327  12.498  22.881  0.00  0.00     0.028 A 
ATOM      3  C   UNL d   1     -49.179  13.642  23.084  0.00  0.00     0.005 A 
ATOM      4  C   UNL d   1     -48.956  12.012  23.094  0.00  0.00     0.116 A 
ATOM      5  C   UNL d   1     -49.803  13.154  23.296  0.00  0.00     0.026 A 
ATOM      6  C   UNL d   1     -49.695  12.341  23.302  0.00  0.00     0.116 A 
ATOM      7  C   UNL d   1     -47.812  13.795  22.663  0.00  0.00     0.106 A 
ATOM      8  N   UNL d   1     -47.924  14.609  22.658  0.00  0.00    -0.242 NA
ATOM      9  C   UNL d   1     -48.664  14.938  22.866  0.00  0.00     0.099 A 
ATOM     10  C   UNL d   1     -49.288  14.450  23.078  0.00  0.00     0.021 A 
ENDROOT
BRANCH   7  11
ATOM     11  C   UNL d   1     -47.072  13.465  22.454  0.00  0.00     0.142 C 
BRANCH  11  12
ATOM     12  O   UNL d   1     -46.382  13.891  22.574  0.00  0.00    -0.304 OA
BRANCH  12  13
ATOM     13  C   UNL d   1     -45.647  13.568  22.360  0.00  0.00     0.100 A 
ATOM     14  C   UNL d   1     -45.090  14.017  21.950  0.00  0.00     0.025 A 
ATOM     15  C   UNL d   1     -44.355  13.694  21.735  0.00  0.00     0.007 A 
ATOM     16  C   UNL d   1     -44.164  12.915  21.927  0.00  0.00     0.063 A 
ATOM     17  C   UNL d   1     -44.721  12.465  22.337  0.00  0.00     0.007 A 
ATOM     18  C   UNL d   1     -45.456  12.789  22.551  0.00  0.00     0.025 A 
BRANCH  16  19
ATOM     19  C   UNL d   1     -43.427  12.595  21.710  0.00  0.00     0.296 C 
ATOM     20  O   UNL d   1     -43.172  11.877  22.010  0.00  0.00    -0.259 OA
BRANCH  19  21
ATOM     21  O   UNL d   1     -42.934  13.005  21.179  0.00  0.00    -0.296 OA
ATOM     22  C   UNL d   1     -42.128  12.783  21.088  0.00  0.00     0.185 C 
ENDBRANCH  19  21
ENDBRANCH  16  19
ENDBRANCH  12  13
ENDBRANCH  11  12
ENDBRANCH   7  11
BRANCH   4  23
ATOM     23  O   UNL d   1     -48.849  11.184  23.101  0.00  0.00    -0.326 OA
ATOM     24  C   UNL d   1     -48.118  10.866  22.908  0.00  0.00     0.181 C 
ENDBRANCH   4  23
BRANCH   6  25
ATOM     25  O   UNL d   1     -50.338  11.846  23.520  0.00  0.00    -0.326 OA
ATOM     26  C   UNL d   1     -51.064  12.196  23.697  0.00  0.00     0.181 C 
ENDBRANCH   6  25
TORSDOF 7
ENDMDL
MODEL 5
REMARK VINA RESULT:      -5.2      9.796     11.718
REMARK  7 active torsions:
REMARK  status: ('A' for Active; 'I' for Inactive)
REMARK    1  A    between atoms: C_4  and  C_10 
REMARK    2  A    between atoms: O_17  and  C_4 
REMARK    3  A    between atoms: O_19  and  C_5 
REMARK    4  A    between atoms: O_20  and  C_7 
REMARK    5  A    between atoms: C_12  and  C_8 
REMARK    6  A    between atoms: O_15  and  C_12 
REMARK    7  A    between atoms: C_16  and  O_15 
ROOT
ATOM      1  C   UNL d   1     -38.200  13.545  17.208  0.00  0.00     0.022 A 
ATOM      2  C   UNL d   1     -38.292  14.345  17.044  0.00  0.00     0.028 A 
ATOM      3  C   UNL d   1     -38.030  13.002  16.596  0.00  0.00     0.005 A 
ATOM      4  C   UNL d   1     -38.213  14.603  16.267  0.00  0.00     0.116 A 
ATOM      5  C   UNL d   1     -37.953  13.263  15.822  0.00  0.00     0.026 A 
ATOM      6  C   UNL d   1     -38.043  14.060  15.654  0.00  0.00     0.116 A 
ATOM      7  C   UNL d   1     -38.279  13.290  17.982  0.00  0.00     0.106 A 
ATOM      8  N   UNL d   1     -38.187  12.490  18.147  0.00  0.00    -0.242 NA
ATOM      9  C   UNL d   1     -38.017  11.947  17.534  0.00  0.00     0.099 A 
ATOM     10  C   UNL d   1     -37.940  12.208  16.761  0.00  0.00     0.021 A 
ENDROOT
BRANCH   7  11
ATOM     11  C   UNL d   1     -38.449  13.834  18.596  0.00  0.00     0.142 C 
BRANCH  11  12
ATOM     12  O   UNL d   1     -38.328  13.625  19.379  0.00  0.00    -0.304 OA
BRANCH  12  13
ATOM     13  C   UNL d   1     -38.576  14.129  19.990  0.00  0.00     0.100 A 
ATOM     14  C   UNL d   1     -38.809  13.826  20.721  0.00  0.00     0.025 A 
ATOM     15  C   UNL d   1     -39.057  14.330  21.333  0.00  0.00     0.007 A 
ATOM     16  C   UNL d   1     -39.077  15.148  21.225  0.00  0.00     0.063 A 
ATOM     17  C   UNL d   1     -38.843  15.452  20.495  0.00  0.00     0.007 A 
ATOM     18  C   UNL d   1     -38.595  14.947  19.883  0.00  0.00     0.025 A 
BRANCH  16  19
ATOM     19  C   UNL d   1     -39.326  15.649  21.841  0.00  0.00     0.296 C 
ATOM     20  O   UNL d   1     -40.100  15.913  21.885  0.00  0.00    -0.259 OA
BRANCH  19  21
ATOM     21  O   UNL d   1     -38.786  15.892  22.426  0.00  0.00    -0.296 OA
ATOM     22  C   UNL d   1     -39.017  15.921  23.234  0.00  0.00     0.185 C 
ENDBRANCH  19  21
ENDBRANCH  16  19
ENDBRANCH  12  13
ENDBRANCH  11  12
ENDBRANCH   7  11
BRANCH   4  23
ATOM     23  O   UNL d   1     -38.305  15.414  16.093  0.00  0.00    -0.326 OA
ATOM     24  C   UNL d   1     -38.736  15.894  16.601  0.00  0.00     0.181 C 
ENDBRANCH   4  23
BRANCH   6  25
ATOM     25  O   UNL d   1     -37.963  14.322  14.860  0.00  0.00    -0.326 OA
ATOM     26  C   UNL d   1     -37.984  13.761  14.255  0.00  0.00     0.181 C 
ENDBRANCH   6  25
TORSDOF 7
ENDMDL
MODEL 6
REMARK VINA RESULT:      -4.9      9.250     10.990
REMARK  7 active torsions:
REMARK  status: ('A' for Active; 'I' for Inactive)
REMARK    1  A    between atoms: C_4  and  C_10 
REMARK    2  A    between atoms: O_17  and  C_4 
REMARK    3  A    between atoms: O_19  and  C_5 
REMARK    4  A    between atoms: O_20  and  C_7 
REMARK    5  A    between atoms: C_12  and  C_8 
REMARK    6  A    between atoms: O_15  and  C_12 
REMARK    7  A    between atoms: C_16  and  O_15 
ROOT
ATOM      1  C   UNL d   1     -38.715  14.050  21.022  0.00  0.00     0.022 A 
ATOM      2  C   UNL d   1     -39.104  14.759  20.873  0.00  0.00     0.028 A 
ATOM      3  C   UNL d   1     -38.604  13.783  21.806  0.00  0.00     0.005 A 
ATOM      4  C   UNL d   1     -39.382  15.201  21.509  0.00  0.00     0.116 A 
ATOM      5  C   UNL d   1     -38.882  14.226  22.437  0.00  0.00     0.026 A 
ATOM      6  C   UNL d   1     -39.270  14.933  22.293  0.00  0.00     0.116 A 
ATOM      7  C   UNL d   1     -38.439  13.612  20.387  0.00  0.00     0.106 A 
ATOM      8  N   UNL d   1     -38.051  12.903  20.536  0.00  0.00    -0.242 NA
ATOM      9  C   UNL d   1     -37.940  12.635  21.320  0.00  0.00     0.099 A 
ATOM     10  C   UNL d   1     -38.218  13.078  21.951  0.00  0.00     0.021 A 
ENDROOT
BRANCH   7  11
ATOM     11  C   UNL d   1     -38.551  13.880  19.602  0.00  0.00     0.142 C 
BRANCH  11  12
ATOM     12  O   UNL d   1     -38.784  13.356  19.016  0.00  0.00    -0.304 OA
BRANCH  12  13
ATOM     13  C   UNL d   1     -38.643  13.533  18.217  0.00  0.00     0.100 A 
ATOM     14  C   UNL d   1     -39.014  14.174  17.853  0.00  0.00     0.025 A 
ATOM     15  C   UNL d   1     -38.873  14.350  17.054  0.00  0.00     0.007 A 
ATOM     16  C   UNL d   1     -38.358  13.890  16.603  0.00  0.00     0.063 A 
ATOM     17  C   UNL d   1     -37.987  13.249  16.966  0.00  0.00     0.007 A 
ATOM     18  C   UNL d   1     -38.128  13.073  17.766  0.00  0.00     0.025 A 
BRANCH  16  19
ATOM     19  C   UNL d   1     -38.220  14.071  15.803  0.00  0.00     0.296 C 
ATOM     20  O   UNL d   1     -38.226  13.487  15.229  0.00  0.00    -0.259 OA
BRANCH  19  21
ATOM     21  O   UNL d   1     -38.073  14.857  15.572  0.00  0.00    -0.296 OA
ATOM     22  C   UNL d   1     -38.048  15.064  14.757  0.00  0.00     0.185 C 
ENDBRANCH  19  21
ENDBRANCH  16  19
ENDBRANCH  12  13
ENDBRANCH  11  12
ENDBRANCH   7  11
BRANCH   4  23
ATOM     23  O   UNL d   1     -39.777  15.922  21.366  0.00  0.00    -0.326 OA
ATOM     24  C   UNL d   1     -40.498  15.920  20.973  0.00  0.00     0.181 C 
ENDBRANCH   4  23
BRANCH   6  25
ATOM     25  O   UNL d   1     -39.554  15.384  22.943  0.00  0.00    -0.326 OA
ATOM     26  C   UNL d   1     -39.065  15.475  23.603  0.00  0.00     0.181 C 
ENDBRANCH   6  25
TORSDOF 7
ENDMDL
