MODEL 1
REMARK VINA RESULT:      -8.6      0.000      0.000
REMARK  5 active torsions:
REMARK  status: ('A' for Active; 'I' for Inactive)
REMARK    1  A    between atoms: N_14  and  C_6 
REMARK    2  A    between atoms: C_20  and  N_14 
REMARK    3  A    between atoms: N_15  and  C_21 
REMARK    4  A    between atoms: C_17  and  C_20 
REMARK    5  A    between atoms: C_21  and  C_17 
ROOT
ATOM      1  N   UNL d   1      51.899  33.387  53.054  0.00  0.00    -0.183 N 
ATOM      2  C   UNL d   1      52.638  33.208  53.388  0.00  0.00     0.169 A 
ATOM      3  C   UNL d   1      52.919  32.440  53.392  0.00  0.00     0.073 A 
ATOM      4  C   UNL d   1      52.457  31.851  53.062  0.00  0.00     0.185 A 
ATOM      5  N   UNL d   1      51.718  32.030  52.729  0.00  0.00    -0.142 NA
ATOM      6  C   UNL d   1      51.635  34.160  53.059  0.00  0.00     0.218 A 
ATOM      7  N   UNL d   1      53.092  33.809  53.717  0.00  0.00    -0.226 NA
ATOM      8  C   UNL d   1      53.649  32.264  53.722  0.00  0.00     0.007 A 
ATOM      9  N   UNL d   1      52.728  31.069  53.059  0.00  0.00    -0.225 NA
ATOM     10  C   UNL d   1      52.081  34.757  53.383  0.00  0.00     0.071 A 
ATOM     11  C   UNL d   1      53.931  31.496  53.727  0.00  0.00     0.019 A 
ATOM     12  C   UNL d   1      52.819  34.579  53.716  0.00  0.00     0.087 A 
ATOM     13  C   UNL d   1      53.467  30.890  53.393  0.00  0.00     0.083 A 
ATOM     14  C   UNL d   1      54.105  32.868  54.053  0.00  0.00     0.000 C 
ATOM     15  C   UNL d   1      53.289  35.205  54.057  0.00  0.00     0.021 C 
ATOM     16  C   UNL d   1      53.741  30.124  53.395  0.00  0.00     0.021 C 
ENDROOT
BRANCH   6  17
ATOM     17  N   UNL d   1      50.872  34.335  52.713  0.00  0.00    -0.380 NA
BRANCH  17  18
ATOM     18  C   UNL d   1      50.141  34.483  52.321  0.00  0.00     0.164 C 
BRANCH  18  19
ATOM     19  C   UNL d   1      49.513  34.874  52.740  0.00  0.00     0.054 C 
BRANCH  19  20
ATOM     20  C   UNL d   1      48.825  35.139  52.309  0.00  0.00     0.083 C 
BRANCH  20  21
ATOM     21  N   UNL d   1      48.251  35.643  52.684  0.00  0.00    -0.300 N 
ATOM     22  C   UNL d   1      47.750  35.636  51.995  0.00  0.00     0.100 C 
ATOM     23  C   UNL d   1      48.003  36.090  53.366  0.00  0.00     0.100 C 
ENDBRANCH  20  21
ENDBRANCH  19  20
ENDBRANCH  18  19
ENDBRANCH  17  18
ENDBRANCH   6  17
TORSDOF 5
ENDMDL
MODEL 2
REMARK VINA RESULT:      -8.0      1.116      2.385
REMARK  5 active torsions:
REMARK  status: ('A' for Active; 'I' for Inactive)
REMARK    1  A    between atoms: N_14  and  C_6 
REMARK    2  A    between atoms: C_20  and  N_14 
REMARK    3  A    between atoms: N_15  and  C_21 
REMARK    4  A    between atoms: C_17  and  C_20 
REMARK    5  A    between atoms: C_21  and  C_17 
ROOT
ATOM      1  N   UNL d   1      52.276  33.648  53.635  0.00  0.00    -0.183 N 
ATOM      2  C   UNL d   1      52.922  33.146  53.775  0.00  0.00     0.169 A 
ATOM      3  C   UNL d   1      53.558  33.400  54.222  0.00  0.00     0.073 A 
ATOM      4  C   UNL d   1      53.545  34.158  54.528  0.00  0.00     0.185 A 
ATOM      5  N   UNL d   1      52.899  34.660  54.387  0.00  0.00    -0.142 NA
ATOM      6  C   UNL d   1      51.649  33.376  53.187  0.00  0.00     0.218 A 
ATOM      7  N   UNL d   1      52.923  32.386  53.463  0.00  0.00    -0.226 NA
ATOM      8  C   UNL d   1      54.197  32.904  54.361  0.00  0.00     0.007 A 
ATOM      9  N   UNL d   1      54.182  34.431  54.982  0.00  0.00    -0.225 NA
ATOM     10  C   UNL d   1      51.646  32.625  52.876  0.00  0.00     0.071 A 
ATOM     11  C   UNL d   1      54.833  33.158  54.807  0.00  0.00     0.019 A 
ATOM     12  C   UNL d   1      52.292  32.123  53.016  0.00  0.00     0.087 A 
ATOM     13  C   UNL d   1      54.828  33.929  55.122  0.00  0.00     0.083 A 
ATOM     14  C   UNL d   1      54.198  32.141  54.047  0.00  0.00     0.000 C 
ATOM     15  C   UNL d   1      52.290  31.334  52.690  0.00  0.00     0.021 C 
ATOM     16  C   UNL d   1      55.458  34.188  55.568  0.00  0.00     0.021 C 
ENDROOT
BRANCH   6  17
ATOM     17  N   UNL d   1      50.987  33.900  53.047  0.00  0.00    -0.380 NA
BRANCH  17  18
ATOM     18  C   UNL d   1      50.318  34.405  52.966  0.00  0.00     0.164 C 
BRANCH  18  19
ATOM     19  C   UNL d   1      49.891  34.420  52.231  0.00  0.00     0.054 C 
BRANCH  19  20
ATOM     20  C   UNL d   1      49.149  34.840  52.187  0.00  0.00     0.083 C 
BRANCH  20  21
ATOM     21  N   UNL d   1      48.687  34.822  51.473  0.00  0.00    -0.300 N 
ATOM     22  C   UNL d   1      48.101  35.346  51.803  0.00  0.00     0.100 C 
ATOM     23  C   UNL d   1      48.579  34.539  50.677  0.00  0.00     0.100 C 
ENDBRANCH  20  21
ENDBRANCH  19  20
ENDBRANCH  18  19
ENDBRANCH  17  18
ENDBRANCH   6  17
TORSDOF 5
ENDMDL
MODEL 3
REMARK VINA RESULT:      -6.9      1.248      4.903
REMARK  5 active torsions:
REMARK  status: ('A' for Active; 'I' for Inactive)
REMARK    1  A    between atoms: N_14  and  C_6 
REMARK    2  A    between atoms: C_20  and  N_14 
REMARK    3  A    between atoms: N_15  and  C_21 
REMARK    4  A    between atoms: C_17  and  C_20 
REMARK    5  A    between atoms: C_21  and  C_17 
ROOT
ATOM      1  N   UNL d   1      52.881  32.397  53.481  0.00  0.00    -0.183 N 
ATOM      2  C   UNL d   1      52.810  33.217  53.585  0.00  0.00     0.169 A 
ATOM      3  C   UNL d   1      52.126  33.608  53.362  0.00  0.00     0.073 A 
ATOM      4  C   UNL d   1      51.515  33.175  53.035  0.00  0.00     0.185 A 
ATOM      5  N   UNL d   1      51.586  32.354  52.932  0.00  0.00    -0.142 NA
ATOM      6  C   UNL d   1      53.571  32.024  53.710  0.00  0.00     0.218 A 
ATOM      7  N   UNL d   1      53.431  33.642  53.915  0.00  0.00    -0.226 NA
ATOM      8  C   UNL d   1      52.056  34.420  53.465  0.00  0.00     0.007 A 
ATOM      9  N   UNL d   1      50.817  33.556  52.805  0.00  0.00    -0.225 NA
ATOM     10  C   UNL d   1      54.188  32.440  54.036  0.00  0.00     0.071 A 
ATOM     11  C   UNL d   1      51.374  34.811  53.242  0.00  0.00     0.019 A 
ATOM     12  C   UNL d   1      54.117  33.260  54.140  0.00  0.00     0.087 A 
ATOM     13  C   UNL d   1      50.746  34.377  52.909  0.00  0.00     0.083 A 
ATOM     14  C   UNL d   1      52.681  34.845  53.796  0.00  0.00     0.000 C 
ATOM     15  C   UNL d   1      54.764  33.699  54.483  0.00  0.00     0.021 C 
ATOM     16  C   UNL d   1      50.063  34.760  52.685  0.00  0.00     0.021 C 
ENDROOT
BRANCH   6  17
ATOM     17  N   UNL d   1      53.636  31.177  53.599  0.00  0.00    -0.380 NA
BRANCH  17  18
ATOM     18  C   UNL d   1      53.735  30.344  53.539  0.00  0.00     0.164 C 
BRANCH  18  19
ATOM     19  C   UNL d   1      53.281  29.830  54.041  0.00  0.00     0.054 C 
BRANCH  19  20
ATOM     20  C   UNL d   1      53.588  29.057  54.236  0.00  0.00     0.083 C 
BRANCH  20  21
ATOM     21  N   UNL d   1      53.428  28.711  54.997  0.00  0.00    -0.300 N 
ATOM     22  C   UNL d   1      53.668  27.939  54.729  0.00  0.00     0.100 C 
ATOM     23  C   UNL d   1      53.165  28.801  55.802  0.00  0.00     0.100 C 
ENDBRANCH  20  21
ENDBRANCH  19  20
ENDBRANCH  18  19
ENDBRANCH  17  18
ENDBRANCH   6  17
TORSDOF 5
ENDMDL
MODEL 4
REMARK VINA RESULT:      -5.8      9.414     10.655
REMARK  5 active torsions:
REMARK  status: ('A' for Active; 'I' for Inactive)
REMARK    1  A    between atoms: N_14  and  C_6 
REMARK    2  A    between atoms: C_20  and  N_14 
REMARK    3  A    between atoms: N_15  and  C_21 
REMARK    4  A    between atoms: C_17  and  C_20 
REMARK    5  A    between atoms: C_21  and  C_17 
ROOT
ATOM      1  N   UNL d   1      44.860  28.571  57.881  0.00  0.00    -0.183 N 
ATOM      2  C   UNL d   1      44.786  29.392  57.978  0.00  0.00     0.169 A 
ATOM      3  C   UNL d   1      44.765  29.723  58.726  0.00  0.00     0.073 A 
ATOM      4  C   UNL d   1      44.819  29.229  59.375  0.00  0.00     0.185 A 
ATOM      5  N   UNL d   1      44.894  28.408  59.278  0.00  0.00    -0.142 NA
ATOM      6  C   UNL d   1      44.879  28.258  57.126  0.00  0.00     0.218 A 
ATOM      7  N   UNL d   1      44.732  29.878  57.318  0.00  0.00    -0.226 NA
ATOM      8  C   UNL d   1      44.692  30.535  58.822  0.00  0.00     0.007 A 
ATOM      9  N   UNL d   1      44.800  29.549  60.139  0.00  0.00    -0.225 NA
ATOM     10  C   UNL d   1      44.827  28.735  56.470  0.00  0.00     0.071 A 
ATOM     11  C   UNL d   1      44.671  30.866  59.569  0.00  0.00     0.019 A 
ATOM     12  C   UNL d   1      44.752  29.556  56.567  0.00  0.00     0.087 A 
ATOM     13  C   UNL d   1      44.725  30.370  60.236  0.00  0.00     0.083 A 
ATOM     14  C   UNL d   1      44.638  31.022  58.158  0.00  0.00     0.000 C 
ATOM     15  C   UNL d   1      44.697  30.058  55.879  0.00  0.00     0.021 C 
ATOM     16  C   UNL d   1      44.705  30.693  60.983  0.00  0.00     0.021 C 
ENDROOT
BRANCH   6  17
ATOM     17  N   UNL d   1      44.956  27.411  57.035  0.00  0.00    -0.380 NA
BRANCH  17  18
ATOM     18  C   UNL d   1      45.086  26.582  56.970  0.00  0.00     0.164 C 
BRANCH  18  19
ATOM     19  C   UNL d   1      44.722  26.149  56.335  0.00  0.00     0.054 C 
BRANCH  19  20
ATOM     20  C   UNL d   1      44.738  25.295  56.349  0.00  0.00     0.083 C 
BRANCH  20  21
ATOM     21  N   UNL d   1      44.530  24.851  55.653  0.00  0.00    -0.300 N 
ATOM     22  C   UNL d   1      44.594  24.110  56.071  0.00  0.00     0.100 C 
ATOM     23  C   UNL d   1      44.314  24.838  54.829  0.00  0.00     0.100 C 
ENDBRANCH  20  21
ENDBRANCH  19  20
ENDBRANCH  18  19
ENDBRANCH  17  18
ENDBRANCH   6  17
TORSDOF 5
ENDMDL
