MODEL 1
REMARK VINA RESULT:      10.0      0.000      0.000
REMARK  5 active torsions:
REMARK  status: ('A' for Active; 'I' for Inactive)
REMARK    1  A    between atoms: N_5  and  C_3 
REMARK    2  A    between atoms: O_13  and  C_4 
REMARK       I    between atoms: C_6  and  N_5 
REMARK    3  A    between atoms: C_9  and  C_6 
REMARK    4  A    between atoms: O_14  and  C_7 
REMARK    5  A    between atoms: O_18  and  C_15 
ROOT
ATOM      1  N   UNL d   1      46.252 -16.915  43.815  0.00  0.00    -0.189 NA
ATOM      2  C   UNL d   1      45.773 -16.624  44.432  0.00  0.00     0.281 C 
ATOM      3  O   UNL d   1      45.387 -17.160  44.955  0.00  0.00    -0.265 OA
ENDROOT
BRANCH   1   4
ATOM      4  C   UNL d   1      46.345 -17.731  43.720  0.00  0.00     0.173 A 
ATOM      5  N   UNL d   1      46.336 -18.068  42.959  0.00  0.00    -0.186 NA
ATOM      6  C   UNL d   1      46.429 -18.880  42.873  0.00  0.00     0.273 A 
ATOM      7  N   UNL d   1      46.531 -19.351  43.555  0.00  0.00    -0.181 NA
ATOM      8  C   UNL d   1      46.539 -19.028  44.281  0.00  0.00     0.185 A 
ATOM      9  C   UNL d   1      46.446 -18.207  44.387  0.00  0.00     0.083 A 
BRANCH   6  10
ATOM     10  O   UNL d   1      46.420 -19.206  42.138  0.00  0.00    -0.297 OA
ATOM     11  C   UNL d   1      46.633 -18.771  41.487  0.00  0.00     0.185 C 
ENDBRANCH   6  10
BRANCH   8  12
ATOM     12  O   UNL d   1      46.643 -19.524  44.943  0.00  0.00    -0.312 OA
ATOM     13  C   UNL d   1      46.245 -20.258  44.955  0.00  0.00     0.183 C 
ENDBRANCH   8  12
ENDBRANCH   1   4
BRANCH   2  14
ATOM     14  C   UNL d   1      45.688 -15.808  44.517  0.00  0.00     0.058 A 
ATOM     15  C   UNL d   1      44.969 -15.477  44.755  0.00  0.00     0.007 A 
ATOM     16  C   UNL d   1      44.886 -14.692  44.836  0.00  0.00     0.024 A 
ATOM     17  C   UNL d   1      45.524 -14.170  44.684  0.00  0.00     0.094 A 
ATOM     18  C   UNL d   1      46.246 -14.491  44.446  0.00  0.00     0.024 A 
ATOM     19  C   UNL d   1      46.309 -15.308  44.368  0.00  0.00     0.007 A 
BRANCH  17  20
ATOM     20  O   UNL d   1      45.449 -13.363  44.765  0.00  0.00    -0.328 OA
ATOM     21  C   UNL d   1      45.271 -12.904  44.124  0.00  0.00     0.181 C 
ENDBRANCH  17  20
ENDBRANCH   2  14
TORSDOF 5
ENDMDL
MODEL 2
REMARK VINA RESULT:      10.3      0.378      1.706
REMARK  5 active torsions:
REMARK  status: ('A' for Active; 'I' for Inactive)
REMARK    1  A    between atoms: N_5  and  C_3 
REMARK    2  A    between atoms: O_13  and  C_4 
REMARK       I    between atoms: C_6  and  N_5 
REMARK    3  A    between atoms: C_9  and  C_6 
REMARK    4  A    between atoms: O_14  and  C_7 
REMARK    5  A    between atoms: O_18  and  C_15 
ROOT
ATOM      1  N   UNL d   1      46.267 -16.775  43.801  0.00  0.00    -0.189 NA
ATOM      2  C   UNL d   1      45.793 -16.476  44.419  0.00  0.00     0.281 C 
ATOM      3  O   UNL d   1      45.418 -17.006  44.955  0.00  0.00    -0.265 OA
ENDROOT
BRANCH   1   4
ATOM      4  C   UNL d   1      46.366 -17.591  43.719  0.00  0.00     0.173 A 
ATOM      5  N   UNL d   1      46.380 -18.082  44.391  0.00  0.00    -0.186 NA
ATOM      6  C   UNL d   1      46.478 -18.892  44.301  0.00  0.00     0.273 A 
ATOM      7  N   UNL d   1      46.562 -19.207  43.532  0.00  0.00    -0.181 NA
ATOM      8  C   UNL d   1      46.549 -18.739  42.891  0.00  0.00     0.185 A 
ATOM      9  C   UNL d   1      46.450 -17.915  42.964  0.00  0.00     0.083 A 
BRANCH   6  10
ATOM     10  O   UNL d   1      46.492 -19.367  44.950  0.00  0.00    -0.297 OA
ATOM     11  C   UNL d   1      46.457 -20.174  44.876  0.00  0.00     0.185 C 
ENDBRANCH   6  10
BRANCH   8  12
ATOM     12  O   UNL d   1      46.635 -19.082  42.136  0.00  0.00    -0.312 OA
ATOM     13  C   UNL d   1      46.626 -18.580  41.469  0.00  0.00     0.183 C 
ENDBRANCH   8  12
ENDBRANCH   1   4
BRANCH   2  14
ATOM     14  C   UNL d   1      45.703 -15.660  44.490  0.00  0.00     0.058 A 
ATOM     15  C   UNL d   1      46.278 -15.141  44.201  0.00  0.00     0.007 A 
ATOM     16  C   UNL d   1      46.192 -14.355  44.268  0.00  0.00     0.024 A 
ATOM     17  C   UNL d   1      45.516 -14.022  44.635  0.00  0.00     0.094 A 
ATOM     18  C   UNL d   1      44.936 -14.531  44.926  0.00  0.00     0.024 A 
ATOM     19  C   UNL d   1      45.046 -15.343  44.845  0.00  0.00     0.007 A 
BRANCH  17  20
ATOM     20  O   UNL d   1      45.419 -13.217  44.709  0.00  0.00    -0.328 OA
ATOM     21  C   UNL d   1      45.403 -12.746  44.052  0.00  0.00     0.181 C 
ENDBRANCH  17  20
ENDBRANCH   2  14
TORSDOF 5
ENDMDL
