MODEL 1
REMARK VINA RESULT:       3.0      0.000      0.000
REMARK  7 active torsions:
REMARK  status: ('A' for Active; 'I' for Inactive)
REMARK    1  A    between atoms: C_11  and  N_3 
REMARK    2  A    between atoms: C_10  and  C_4 
REMARK    3  A    between atoms: C_16  and  C_11 
REMARK    4  A    between atoms: N_13  and  C_17 
REMARK    5  A    between atoms: C_18  and  N_14 
REMARK    6  A    between atoms: C_17  and  C_16 
REMARK    7  A    between atoms: C_27  and  C_18 
ROOT
ATOM      1  C   UNL d   1      56.145   0.633  33.539  0.00  0.00     0.137 A 
ATOM      2  N   UNL d   1      56.429   0.619  34.323  0.00  0.00    -0.259 N 
ATOM      3  N   UNL d   1      56.804   0.657  33.044  0.00  0.00    -0.287 N 
ATOM      4  C   UNL d   1      55.338   0.620  33.393  0.00  0.00     0.054 A 
ATOM      5  C   UNL d   1      55.892   0.593  34.953  0.00  0.00     0.266 A 
ATOM      6  C   UNL d   1      57.253   0.636  34.304  0.00  0.00     0.084 A 
ATOM      7  C   UNL d   1      57.489   0.660  33.502  0.00  0.00     0.082 A 
ATOM      8  C   UNL d   1      54.801   0.595  34.019  0.00  0.00     0.009 A 
ATOM      9  C   UNL d   1      55.072   0.581  34.804  0.00  0.00     0.061 A 
ATOM     10  O   UNL d   1      56.166   0.580  35.735  0.00  0.00    -0.267 OA
ATOM     11  C   UNL d   1      57.825   0.633  34.894  0.00  0.00     0.019 A 
ATOM     12  C   UNL d   1      53.987   0.582  33.871  0.00  0.00     0.000 C 
ATOM     13  C   UNL d   1      58.286   0.680  33.323  0.00  0.00     0.019 A 
ATOM     14  C   UNL d   1      58.619   0.653  34.697  0.00  0.00     0.002 A 
ATOM     15  C   UNL d   1      58.852   0.677  33.903  0.00  0.00     0.002 A 
ENDROOT
BRANCH   3  16
ATOM     16  C   UNL d   1      57.044   0.681  32.257  0.00  0.00     0.125 C 
BRANCH  16  17
ATOM     17  C   UNL d   1      56.963   0.011  31.783  0.00  0.00     0.231 C 
ATOM     18  O   UNL d   1      56.223  -0.208  31.495  0.00  0.00    -0.283 OA
BRANCH  17  19
ATOM     19  C   UNL d   1      57.624  -0.442  31.595  0.00  0.00     0.124 C 
BRANCH  19  20
ATOM     20  N   UNL d   1      57.861  -0.509  30.808  0.00  0.00    -0.297 N 
ATOM     21  C   UNL d   1      58.005  -1.321  30.733  0.00  0.00     0.100 A 
ATOM     22  C   UNL d   1      58.261  -1.624  30.006  0.00  0.00     0.100 A 
ATOM     23  N   UNL d   1      58.377  -1.128  29.348  0.00  0.00    -0.300 N 
ATOM     24  C   UNL d   1      58.230  -0.306  29.430  0.00  0.00     0.100 A 
ATOM     25  C   UNL d   1      57.974  -0.003  30.157  0.00  0.00     0.100 A 
BRANCH  23  26
ATOM     26  C   UNL d   1      58.632  -1.442  28.629  0.00  0.00     0.080 C 
BRANCH  26  27
ATOM     27  C   UNL d   1      59.357  -1.843  28.587  0.00  0.00     0.018 A 
ATOM     28  C   UNL d   1      60.055  -1.407  28.528  0.00  0.00     0.002 A 
ATOM     29  C   UNL d   1      60.789  -1.809  28.486  0.00  0.00     0.000 A 
ATOM     30  C   UNL d   1      60.808  -2.631  28.503  0.00  0.00     0.000 A 
ATOM     31  C   UNL d   1      60.098  -3.064  28.562  0.00  0.00     0.000 A 
ATOM     32  C   UNL d   1      59.374  -2.663  28.603  0.00  0.00     0.002 A 
ENDBRANCH  26  27
ENDBRANCH  23  26
ENDBRANCH  19  20
ENDBRANCH  17  19
ENDBRANCH  16  17
ENDBRANCH   3  16
BRANCH   4  33
ATOM     33  C   UNL d   1      55.059   0.633  32.623  0.00  0.00     0.125 C 
ATOM     34  N   UNL d   1      54.453   0.134  32.379  0.00  0.00    -0.146 N 
ENDBRANCH   4  33
TORSDOF 7
ENDMDL
MODEL 2
REMARK VINA RESULT:       4.2      1.718      5.908
REMARK  7 active torsions:
REMARK  status: ('A' for Active; 'I' for Inactive)
REMARK    1  A    between atoms: C_11  and  N_3 
REMARK    2  A    between atoms: C_10  and  C_4 
REMARK    3  A    between atoms: C_16  and  C_11 
REMARK    4  A    between atoms: N_13  and  C_17 
REMARK    5  A    between atoms: C_18  and  N_14 
REMARK    6  A    between atoms: C_17  and  C_16 
REMARK    7  A    between atoms: C_27  and  C_18 
ROOT
ATOM      1  C   UNL d   1      59.098  -1.828  28.930  0.00  0.00     0.137 A 
ATOM      2  N   UNL d   1      59.928  -1.887  28.866  0.00  0.00    -0.259 N 
ATOM      3  N   UNL d   1      58.905  -1.032  28.831  0.00  0.00    -0.287 N 
ATOM      4  C   UNL d   1      58.648  -2.498  29.069  0.00  0.00     0.054 A 
ATOM      5  C   UNL d   1      60.293  -2.627  28.942  0.00  0.00     0.266 A 
ATOM      6  C   UNL d   1      60.235  -1.134  28.727  0.00  0.00     0.084 A 
ATOM      7  C   UNL d   1      59.594  -0.598  28.705  0.00  0.00     0.082 A 
ATOM      8  C   UNL d   1      59.009  -3.236  29.146  0.00  0.00     0.009 A 
ATOM      9  C   UNL d   1      59.834  -3.307  29.083  0.00  0.00     0.061 A 
ATOM     10  O   UNL d   1      61.117  -2.693  28.878  0.00  0.00    -0.267 OA
ATOM     11  C   UNL d   1      61.000  -0.855  28.618  0.00  0.00     0.019 A 
ATOM     12  C   UNL d   1      58.554  -3.912  29.286  0.00  0.00     0.000 C 
ATOM     13  C   UNL d   1      59.744   0.195  28.575  0.00  0.00     0.019 A 
ATOM     14  C   UNL d   1      61.132  -0.058  28.489  0.00  0.00     0.002 A 
ATOM     15  C   UNL d   1      60.497   0.473  28.467  0.00  0.00     0.002 A 
ENDROOT
BRANCH   3  16
ATOM     16  C   UNL d   1      58.279  -0.498  28.808  0.00  0.00     0.125 C 
BRANCH  16  17
ATOM     17  C   UNL d   1      58.118  -0.026  29.464  0.00  0.00     0.231 C 
ATOM     18  O   UNL d   1      58.562   0.652  29.609  0.00  0.00    -0.283 OA
BRANCH  17  19
ATOM     19  C   UNL d   1      57.511  -0.233  29.980  0.00  0.00     0.124 C 
BRANCH  19  20
ATOM     20  N   UNL d   1      57.517   0.055  30.753  0.00  0.00    -0.297 N 
ATOM     21  C   UNL d   1      56.754  -0.129  31.018  0.00  0.00     0.100 A 
ATOM     22  C   UNL d   1      56.532   0.074  31.790  0.00  0.00     0.100 A 
ATOM     23  N   UNL d   1      57.060   0.458  32.305  0.00  0.00    -0.300 N 
ATOM     24  C   UNL d   1      57.831   0.642  32.031  0.00  0.00     0.100 A 
ATOM     25  C   UNL d   1      58.054   0.440  31.259  0.00  0.00     0.100 A 
BRANCH  23  26
ATOM     26  C   UNL d   1      56.826   0.655  33.072  0.00  0.00     0.080 C 
BRANCH  26  27
ATOM     27  C   UNL d   1      56.222   0.226  33.442  0.00  0.00     0.018 A 
ATOM     28  C   UNL d   1      56.410  -0.470  33.843  0.00  0.00     0.002 A 
ATOM     29  C   UNL d   1      55.802  -0.907  34.219  0.00  0.00     0.000 A 
ATOM     30  C   UNL d   1      55.025  -0.640  34.186  0.00  0.00     0.000 A 
ATOM     31  C   UNL d   1      54.842   0.065  33.779  0.00  0.00     0.000 A 
ATOM     32  C   UNL d   1      55.447   0.494  33.408  0.00  0.00     0.002 A 
ENDBRANCH  26  27
ENDBRANCH  23  26
ENDBRANCH  19  20
ENDBRANCH  17  19
ENDBRANCH  16  17
ENDBRANCH   3  16
BRANCH   4  33
ATOM     33  C   UNL d   1      57.833  -2.440  29.133  0.00  0.00     0.125 C 
ATOM     34  N   UNL d   1      57.375  -3.084  29.359  0.00  0.00    -0.146 N 
ENDBRANCH   4  33
TORSDOF 7
ENDMDL
