MODEL 1
REMARK VINA RESULT:      -2.1      0.000      0.000
REMARK  3 active torsions:
REMARK  status: ('A' for Active; 'I' for Inactive)
REMARK    1  A    between atoms: S_4  and  C_1 
REMARK    2  A    between atoms: N_2  and  C_5 
REMARK    3  A    between atoms: C_9  and  S_4 
ROOT
ATOM      1  C   UNL d   1      32.130  16.878 -24.188  0.00  0.00     0.133 A 
ATOM      2  C   UNL d   1      31.362  16.535 -24.304  0.00  0.00     0.051 A 
ATOM      3  C   UNL d   1      32.773  16.473 -24.558  0.00  0.00     0.024 A 
ATOM      4  C   UNL d   1      31.271  15.858 -24.746  0.00  0.00     0.008 A 
ATOM      5  C   UNL d   1      32.650  15.803 -24.991  0.00  0.00     0.002 A 
ATOM      6  C   UNL d   1      31.920  15.482 -25.097  0.00  0.00     0.001 A 
ENDROOT
BRANCH   2   7
ATOM      7  S   UNL d   1      30.680  16.879 -23.969  0.00  0.00    -0.082 SA
BRANCH   7   8
ATOM      8  C   UNL d   1      29.972  16.475 -23.991  0.00  0.00     0.068 A 
ATOM      9  C   UNL d   1      29.670  15.845 -23.558  0.00  0.00     0.110 A 
ATOM     10  N   UNL d   1      28.941  15.684 -23.827  0.00  0.00    -0.147 NA
ATOM     11  C   UNL d   1      30.088  15.457 -22.938  0.00  0.00     0.023 C 
ATOM     12  N   UNL d   1      28.746  16.174 -24.414  0.00  0.00    -0.147 NA
ATOM     13  C   UNL d   1      29.397  16.692 -24.536  0.00  0.00     0.110 A 
ATOM     14  C   UNL d   1      29.457  17.303 -25.091  0.00  0.00     0.023 C 
ENDBRANCH   7   8
ENDBRANCH   2   7
BRANCH   1  15
ATOM     15  N   UNL d   1      32.282  17.567 -23.747  0.00  0.00    -0.113 N 
ATOM     16  O   UNL d   1      32.231  18.273 -24.093  0.00  0.00    -0.532 OA
ATOM     17  O   UNL d   1      32.488  17.495 -22.938  0.00  0.00    -0.532 OA
ENDBRANCH   1  15
TORSDOF 3
ENDMDL
MODEL 2
REMARK VINA RESULT:      -1.9      1.297      2.028
REMARK  3 active torsions:
REMARK  status: ('A' for Active; 'I' for Inactive)
REMARK    1  A    between atoms: S_4  and  C_1 
REMARK    2  A    between atoms: N_2  and  C_5 
REMARK    3  A    between atoms: C_9  and  S_4 
ROOT
ATOM      1  C   UNL d   1      32.684  16.660 -23.699  0.00  0.00     0.133 A 
ATOM      2  C   UNL d   1      31.850  16.809 -23.765  0.00  0.00     0.051 A 
ATOM      3  C   UNL d   1      33.157  17.317 -23.458  0.00  0.00     0.024 A 
ATOM      4  C   UNL d   1      31.546  17.545 -23.603  0.00  0.00     0.008 A 
ATOM      5  C   UNL d   1      32.824  18.036 -23.303  0.00  0.00     0.002 A 
ATOM      6  C   UNL d   1      32.033  18.172 -23.368  0.00  0.00     0.001 A 
ENDROOT
BRANCH   2   7
ATOM      7  S   UNL d   1      31.321  16.208 -23.998  0.00  0.00    -0.082 SA
BRANCH   7   8
ATOM      8  C   UNL d   1      30.518  16.353 -23.992  0.00  0.00     0.068 A 
ATOM      9  C   UNL d   1      30.028  16.823 -24.456  0.00  0.00     0.110 A 
ATOM     10  N   UNL d   1      29.284  16.745 -24.190  0.00  0.00    -0.147 NA
ATOM     11  C   UNL d   1      30.300  17.297 -25.097  0.00  0.00     0.023 C 
ATOM     12  N   UNL d   1      29.257  16.248 -23.577  0.00  0.00    -0.147 NA
ATOM     13  C   UNL d   1      30.042  15.984 -23.433  0.00  0.00     0.110 A 
ATOM     14  C   UNL d   1      30.296  15.458 -22.847  0.00  0.00     0.023 C 
ENDBRANCH   7   8
ENDBRANCH   2   7
BRANCH   1  15
ATOM     15  N   UNL d   1      33.050  15.929 -23.852  0.00  0.00    -0.113 N 
ATOM     16  O   UNL d   1      33.239  15.453 -23.253  0.00  0.00    -0.532 OA
ATOM     17  O   UNL d   1      33.212  15.713 -24.645  0.00  0.00    -0.532 OA
ENDBRANCH   1  15
TORSDOF 3
ENDMDL
MODEL 3
REMARK VINA RESULT:      -1.8      1.210      1.864
REMARK  3 active torsions:
REMARK  status: ('A' for Active; 'I' for Inactive)
REMARK    1  A    between atoms: S_4  and  C_1 
REMARK    2  A    between atoms: N_2  and  C_5 
REMARK    3  A    between atoms: C_9  and  S_4 
ROOT
ATOM      1  C   UNL d   1      31.727  16.560 -24.322  0.00  0.00     0.133 A 
ATOM      2  C   UNL d   1      30.894  16.480 -24.181  0.00  0.00     0.051 A 
ATOM      3  C   UNL d   1      31.994  17.339 -24.511  0.00  0.00     0.024 A 
ATOM      4  C   UNL d   1      30.399  17.124 -24.230  0.00  0.00     0.008 A 
ATOM      5  C   UNL d   1      31.478  17.959 -24.552  0.00  0.00     0.002 A 
ATOM      6  C   UNL d   1      30.689  17.876 -24.417  0.00  0.00     0.001 A 
ENDROOT
BRANCH   2   7
ATOM      7  S   UNL d   1      30.557  15.740 -23.989  0.00  0.00    -0.082 SA
BRANCH   7   8
ATOM      8  C   UNL d   1      29.763  15.693 -23.812  0.00  0.00     0.068 A 
ATOM      9  C   UNL d   1      29.080  15.756 -24.267  0.00  0.00     0.110 A 
ATOM     10  N   UNL d   1      28.454  15.660 -23.789  0.00  0.00    -0.147 NA
ATOM     11  C   UNL d   1      29.079  15.899 -25.097  0.00  0.00     0.023 C 
ATOM     12  N   UNL d   1      28.686  15.537 -23.045  0.00  0.00    -0.147 NA
ATOM     13  C   UNL d   1      29.526  15.554 -23.038  0.00  0.00     0.110 A 
ATOM     14  C   UNL d   1      30.026  15.453 -22.386  0.00  0.00     0.023 C 
ENDBRANCH   7   8
ENDBRANCH   2   7
BRANCH   1  15
ATOM     15  N   UNL d   1      32.278  15.938 -24.287  0.00  0.00    -0.113 N 
ATOM     16  O   UNL d   1      32.386  15.474 -24.914  0.00  0.00    -0.532 OA
ATOM     17  O   UNL d   1      32.710  15.818 -23.579  0.00  0.00    -0.532 OA
ENDBRANCH   1  15
TORSDOF 3
ENDMDL
MODEL 4
REMARK VINA RESULT:      -1.7      1.748      3.219
REMARK  3 active torsions:
REMARK  status: ('A' for Active; 'I' for Inactive)
REMARK    1  A    between atoms: S_4  and  C_1 
REMARK    2  A    between atoms: N_2  and  C_5 
REMARK    3  A    between atoms: C_9  and  S_4 
ROOT
ATOM      1  C   UNL d   1      31.596  16.216 -24.116  0.00  0.00     0.133 A 
ATOM      2  C   UNL d   1      32.149  16.844 -23.974  0.00  0.00     0.051 A 
ATOM      3  C   UNL d   1      31.919  15.512 -24.455  0.00  0.00     0.024 A 
ATOM      4  C   UNL d   1      32.936  16.755 -24.159  0.00  0.00     0.008 A 
ATOM      5  C   UNL d   1      32.705  15.455 -24.628  0.00  0.00     0.002 A 
ATOM      6  C   UNL d   1      33.225  16.054 -24.491  0.00  0.00     0.001 A 
ENDROOT
BRANCH   2   7
ATOM      7  S   UNL d   1      31.903  17.569 -23.641  0.00  0.00    -0.082 SA
BRANCH   7   8
ATOM      8  C   UNL d   1      32.384  18.225 -23.702  0.00  0.00     0.068 A 
ATOM      9  C   UNL d   1      32.562  18.736 -24.322  0.00  0.00     0.110 A 
ATOM     10  N   UNL d   1      33.073  19.282 -24.054  0.00  0.00    -0.147 NA
ATOM     11  C   UNL d   1      32.241  18.665 -25.097  0.00  0.00     0.023 C 
ATOM     12  N   UNL d   1      33.241  19.158 -23.293  0.00  0.00    -0.147 NA
ATOM     13  C   UNL d   1      32.807  18.481 -23.047  0.00  0.00     0.110 A 
ATOM     14  C   UNL d   1      32.800  18.135 -22.295  0.00  0.00     0.023 C 
ENDBRANCH   7   8
ENDBRANCH   2   7
BRANCH   1  15
ATOM     15  N   UNL d   1      30.782  16.250 -23.947  0.00  0.00    -0.113 N 
ATOM     16  O   UNL d   1      30.515  15.989 -23.254  0.00  0.00    -0.532 OA
ATOM     17  O   UNL d   1      30.260  16.564 -24.523  0.00  0.00    -0.532 OA
ENDBRANCH   1  15
TORSDOF 3
ENDMDL
MODEL 5
REMARK VINA RESULT:      -1.0      1.519      3.265
REMARK  3 active torsions:
REMARK  status: ('A' for Active; 'I' for Inactive)
REMARK    1  A    between atoms: S_4  and  C_1 
REMARK    2  A    between atoms: N_2  and  C_5 
REMARK    3  A    between atoms: C_9  and  S_4 
ROOT
ATOM      1  C   UNL d   1      29.880  17.030 -24.140  0.00  0.00     0.133 A 
ATOM      2  C   UNL d   1      30.641  17.383 -24.272  0.00  0.00     0.051 A 
ATOM      3  C   UNL d   1      29.227  17.410 -24.519  0.00  0.00     0.024 A 
ATOM      4  C   UNL d   1      30.716  18.046 -24.737  0.00  0.00     0.008 A 
ATOM      5  C   UNL d   1      29.335  18.068 -24.974  0.00  0.00     0.002 A 
ATOM      6  C   UNL d   1      30.059  18.399 -25.095  0.00  0.00     0.001 A 
ENDROOT
BRANCH   2   7
ATOM      7  S   UNL d   1      31.331  17.062 -23.931  0.00  0.00    -0.082 SA
BRANCH   7   8
ATOM      8  C   UNL d   1      32.055  17.405 -24.085  0.00  0.00     0.068 A 
ATOM      9  C   UNL d   1      32.439  18.067 -23.784  0.00  0.00     0.110 A 
ATOM     10  N   UNL d   1      33.141  18.134 -24.147  0.00  0.00    -0.147 NA
ATOM     11  C   UNL d   1      32.116  18.569 -23.190  0.00  0.00     0.023 C 
ATOM     12  N   UNL d   1      33.241  17.552 -24.672  0.00  0.00    -0.147 NA
ATOM     13  C   UNL d   1      32.552  17.072 -24.647  0.00  0.00     0.110 A 
ATOM     14  C   UNL d   1      32.395  16.394 -25.096  0.00  0.00     0.023 C 
ENDBRANCH   7   8
ENDBRANCH   2   7
BRANCH   1  15
ATOM     15  N   UNL d   1      29.743  16.353 -23.676  0.00  0.00    -0.113 N 
ATOM     16  O   UNL d   1      29.847  15.636 -23.988  0.00  0.00    -0.532 OA
ATOM     17  O   UNL d   1      29.496  16.448 -22.881  0.00  0.00    -0.532 OA
ENDBRANCH   1  15
TORSDOF 3
ENDMDL
