MODEL 1
REMARK VINA RESULT:      -8.2      0.000      0.000
REMARK  2 active torsions:
REMARK  status: ('A' for Active; 'I' for Inactive)
REMARK    1  A    between atoms: N_9  and  C_3 
REMARK    2  A    between atoms: C_11  and  C_4 
ROOT
ATOM      1  N   UNL d   1      53.023  33.955  53.852  0.00  0.00    -0.196 N 
ATOM      2  C   UNL d   1      52.374  33.852  53.348  0.00  0.00     0.167 A 
ATOM      3  C   UNL d   1      53.515  33.309  54.024  0.00  0.00     0.153 A 
ATOM      4  C   UNL d   1      51.883  34.482  53.172  0.00  0.00     0.057 A 
ATOM      5  N   UNL d   1      52.691  35.336  54.010  0.00  0.00    -0.161 NA
ATOM      6  N   UNL d   1      52.220  33.112  53.020  0.00  0.00    -0.227 NA
ATOM      7  C   UNL d   1      53.355  32.579  53.695  0.00  0.00     0.057 A 
ATOM      8  C   UNL d   1      52.042  35.228  53.505  0.00  0.00     0.124 A 
ATOM      9  C   UNL d   1      52.705  32.480  53.191  0.00  0.00     0.086 A 
ATOM     10  C   UNL d   1      52.551  31.740  52.864  0.00  0.00     0.021 C 
ENDROOT
BRANCH   4  11
ATOM     11  C   UNL d   1      51.236  34.383  52.670  0.00  0.00     0.004 A 
ATOM     12  C   UNL d   1      51.346  34.382  51.850  0.00  0.00     0.000 A 
ATOM     13  C   UNL d   1      50.698  34.283  51.348  0.00  0.00     0.000 A 
ATOM     14  C   UNL d   1      49.933  34.185  51.677  0.00  0.00     0.000 A 
ATOM     15  C   UNL d   1      49.842  34.188  52.494  0.00  0.00     0.000 A 
ATOM     16  C   UNL d   1      49.285  34.086  51.175  0.00  0.00     0.000 C 
ATOM     17  C   UNL d   1      50.486  34.286  52.993  0.00  0.00     0.000 A 
ENDBRANCH   4  11
BRANCH   3  18
ATOM     18  N   UNL d   1      54.186  33.411  54.544  0.00  0.00    -0.285 N 
ATOM     19  C   UNL d   1      54.093  33.279  55.382  0.00  0.00     0.108 A 
ATOM     20  C   UNL d   1      54.760  33.382  55.894  0.00  0.00     0.142 A 
ATOM     21  O   UNL d   1      55.533  33.619  55.572  0.00  0.00    -0.300 OA
ATOM     22  C   UNL d   1      55.599  33.743  54.740  0.00  0.00     0.142 A 
ATOM     23  C   UNL d   1      54.934  33.642  54.225  0.00  0.00     0.108 A 
ENDBRANCH   3  18
TORSDOF 2
ENDMDL
MODEL 2
REMARK VINA RESULT:      -7.2      1.695      3.536
REMARK  2 active torsions:
REMARK  status: ('A' for Active; 'I' for Inactive)
REMARK    1  A    between atoms: N_9  and  C_3 
REMARK    2  A    between atoms: C_11  and  C_4 
ROOT
ATOM      1  N   UNL d   1      53.260  33.391  53.958  0.00  0.00    -0.196 N 
ATOM      2  C   UNL d   1      53.046  32.614  53.764  0.00  0.00     0.167 A 
ATOM      3  C   UNL d   1      52.695  33.997  53.906  0.00  0.00     0.153 A 
ATOM      4  C   UNL d   1      53.594  32.010  53.811  0.00  0.00     0.057 A 
ATOM      5  N   UNL d   1      54.590  32.958  54.253  0.00  0.00    -0.161 NA
ATOM      6  N   UNL d   1      52.276  32.448  53.520  0.00  0.00    -0.227 NA
ATOM      7  C   UNL d   1      51.935  33.823  53.664  0.00  0.00     0.057 A 
ATOM      8  C   UNL d   1      54.371  32.182  54.058  0.00  0.00     0.124 A 
ATOM      9  C   UNL d   1      51.725  33.045  53.470  0.00  0.00     0.086 A 
ATOM     10  C   UNL d   1      50.955  32.879  53.227  0.00  0.00     0.021 C 
ENDROOT
BRANCH   4  11
ATOM     11  C   UNL d   1      53.384  31.235  53.618  0.00  0.00     0.004 A 
ATOM     12  C   UNL d   1      53.331  31.008  52.825  0.00  0.00     0.000 A 
ATOM     13  C   UNL d   1      53.121  30.234  52.632  0.00  0.00     0.000 A 
ATOM     14  C   UNL d   1      52.964  29.684  53.245  0.00  0.00     0.000 A 
ATOM     15  C   UNL d   1      53.022  29.927  54.028  0.00  0.00     0.000 A 
ATOM     16  C   UNL d   1      52.755  28.909  53.053  0.00  0.00     0.000 C 
ATOM     17  C   UNL d   1      53.231  30.697  54.220  0.00  0.00     0.000 A 
ENDBRANCH   4  11
BRANCH   3  18
ATOM     18  N   UNL d   1      52.912  34.799  54.106  0.00  0.00    -0.285 N 
ATOM     19  C   UNL d   1      53.285  35.293  53.518  0.00  0.00     0.108 A 
ATOM     20  C   UNL d   1      53.499  36.088  53.720  0.00  0.00     0.142 A 
ATOM     21  O   UNL d   1      53.341  36.400  54.517  0.00  0.00    -0.300 OA
ATOM     22  C   UNL d   1      52.972  35.892  55.080  0.00  0.00     0.142 A 
ATOM     23  C   UNL d   1      52.757  35.097  54.882  0.00  0.00     0.108 A 
ENDBRANCH   3  18
TORSDOF 2
ENDMDL
MODEL 3
REMARK VINA RESULT:      -6.9      2.094      3.383
REMARK  2 active torsions:
REMARK  status: ('A' for Active; 'I' for Inactive)
REMARK    1  A    between atoms: N_9  and  C_3 
REMARK    2  A    between atoms: C_11  and  C_4 
ROOT
ATOM      1  N   UNL d   1      52.809  32.145  53.602  0.00  0.00    -0.196 N 
ATOM      2  C   UNL d   1      53.021  32.929  53.767  0.00  0.00     0.167 A 
ATOM      3  C   UNL d   1      53.398  31.561  53.562  0.00  0.00     0.153 A 
ATOM      4  C   UNL d   1      52.450  33.512  53.808  0.00  0.00     0.057 A 
ATOM      5  N   UNL d   1      51.435  32.527  53.517  0.00  0.00    -0.161 NA
ATOM      6  N   UNL d   1      53.812  33.124  53.891  0.00  0.00    -0.227 NA
ATOM      7  C   UNL d   1      54.179  31.764  53.686  0.00  0.00     0.057 A 
ATOM      8  C   UNL d   1      51.651  33.310  53.683  0.00  0.00     0.124 A 
ATOM      9  C   UNL d   1      54.387  32.550  53.851  0.00  0.00     0.086 A 
ATOM     10  C   UNL d   1      55.178  32.745  53.975  0.00  0.00     0.021 C 
ENDROOT
BRANCH   4  11
ATOM     11  C   UNL d   1      52.657  34.294  53.973  0.00  0.00     0.004 A 
ATOM     12  C   UNL d   1      52.805  34.820  53.352  0.00  0.00     0.000 A 
ATOM     13  C   UNL d   1      53.012  35.601  53.517  0.00  0.00     0.000 A 
ATOM     14  C   UNL d   1      53.070  35.854  54.314  0.00  0.00     0.000 A 
ATOM     15  C   UNL d   1      52.919  35.318  54.918  0.00  0.00     0.000 A 
ATOM     16  C   UNL d   1      53.277  36.636  54.478  0.00  0.00     0.000 C 
ATOM     17  C   UNL d   1      52.713  34.540  54.755  0.00  0.00     0.000 A 
ENDBRANCH   4  11
BRANCH   3  18
ATOM     18  N   UNL d   1      53.183  30.751  53.392  0.00  0.00    -0.285 N 
ATOM     19  C   UNL d   1      53.177  30.176  54.023  0.00  0.00     0.108 A 
ATOM     20  C   UNL d   1      52.964  29.375  53.849  0.00  0.00     0.142 A 
ATOM     21  O   UNL d   1      52.753  29.138  53.039  0.00  0.00    -0.300 OA
ATOM     22  C   UNL d   1      52.767  29.725  52.434  0.00  0.00     0.142 A 
ATOM     23  C   UNL d   1      52.979  30.527  52.603  0.00  0.00     0.108 A 
ENDBRANCH   3  18
TORSDOF 2
ENDMDL
MODEL 4
REMARK VINA RESULT:      -6.5      1.882      3.382
REMARK  2 active torsions:
REMARK  status: ('A' for Active; 'I' for Inactive)
REMARK    1  A    between atoms: N_9  and  C_3 
REMARK    2  A    between atoms: C_11  and  C_4 
ROOT
ATOM      1  N   UNL d   1      52.935  33.596  53.838  0.00  0.00    -0.196 N 
ATOM      2  C   UNL d   1      53.023  32.772  53.809  0.00  0.00     0.167 A 
ATOM      3  C   UNL d   1      53.326  34.029  54.428  0.00  0.00     0.153 A 
ATOM      4  C   UNL d   1      52.643  32.335  53.232  0.00  0.00     0.057 A 
ATOM      5  N   UNL d   1      52.074  33.550  52.698  0.00  0.00    -0.161 NA
ATOM      6  N   UNL d   1      53.497  32.389  54.364  0.00  0.00    -0.227 NA
ATOM      7  C   UNL d   1      53.793  33.641  54.974  0.00  0.00     0.057 A 
ATOM      8  C   UNL d   1      52.166  32.727  52.673  0.00  0.00     0.124 A 
ATOM      9  C   UNL d   1      53.879  32.817  54.941  0.00  0.00     0.086 A 
ATOM     10  C   UNL d   1      54.352  32.434  55.497  0.00  0.00     0.021 C 
ENDROOT
BRANCH   4  11
ATOM     11  C   UNL d   1      52.729  31.515  53.200  0.00  0.00     0.004 A 
ATOM     12  C   UNL d   1      53.401  31.184  52.850  0.00  0.00     0.000 A 
ATOM     13  C   UNL d   1      53.487  30.365  52.818  0.00  0.00     0.000 A 
ATOM     14  C   UNL d   1      52.889  29.874  53.142  0.00  0.00     0.000 A 
ATOM     15  C   UNL d   1      52.227  30.220  53.486  0.00  0.00     0.000 A 
ATOM     16  C   UNL d   1      52.974  29.054  53.110  0.00  0.00     0.000 C 
ATOM     17  C   UNL d   1      52.142  31.036  53.518  0.00  0.00     0.000 A 
ENDBRANCH   4  11
BRANCH   3  18
ATOM     18  N   UNL d   1      53.237  34.879  54.461  0.00  0.00    -0.285 N 
ATOM     19  C   UNL d   1      53.767  35.375  54.013  0.00  0.00     0.108 A 
ATOM     20  C   UNL d   1      53.675  36.216  54.049  0.00  0.00     0.142 A 
ATOM     21  O   UNL d   1      53.049  36.574  54.536  0.00  0.00    -0.300 OA
ATOM     22  C   UNL d   1      52.539  36.062  54.969  0.00  0.00     0.142 A 
ATOM     23  C   UNL d   1      52.627  35.220  54.936  0.00  0.00     0.108 A 
ENDBRANCH   3  18
TORSDOF 2
ENDMDL
MODEL 5
REMARK VINA RESULT:      -6.3      1.791      4.337
REMARK  2 active torsions:
REMARK  status: ('A' for Active; 'I' for Inactive)
REMARK    1  A    between atoms: N_9  and  C_3 
REMARK    2  A    between atoms: C_11  and  C_4 
ROOT
ATOM      1  N   UNL d   1      51.774  34.330  53.254  0.00  0.00    -0.196 N 
ATOM      2  C   UNL d   1      52.465  34.045  53.613  0.00  0.00     0.167 A 
ATOM      3  C   UNL d   1      51.306  33.816  52.801  0.00  0.00     0.153 A 
ATOM      4  C   UNL d   1      52.933  34.543  54.061  0.00  0.00     0.057 A 
ATOM      5  N   UNL d   1      52.019  35.629  53.796  0.00  0.00    -0.161 NA
ATOM      6  N   UNL d   1      52.682  33.256  53.519  0.00  0.00    -0.227 NA
ATOM      7  C   UNL d   1      51.529  33.035  52.713  0.00  0.00     0.057 A 
ATOM      8  C   UNL d   1      52.709  35.339  54.154  0.00  0.00     0.124 A 
ATOM      9  C   UNL d   1      52.221  32.754  53.074  0.00  0.00     0.086 A 
ATOM     10  C   UNL d   1      52.438  31.965  52.980  0.00  0.00     0.021 C 
ENDROOT
BRANCH   4  11
ATOM     11  C   UNL d   1      53.621  34.263  54.420  0.00  0.00     0.004 A 
ATOM     12  C   UNL d   1      54.337  34.276  54.006  0.00  0.00     0.000 A 
ATOM     13  C   UNL d   1      55.025  33.996  54.365  0.00  0.00     0.000 A 
ATOM     14  C   UNL d   1      54.990  33.700  55.149  0.00  0.00     0.000 A 
ATOM     15  C   UNL d   1      54.270  33.694  55.546  0.00  0.00     0.000 A 
ATOM     16  C   UNL d   1      55.678  33.420  55.508  0.00  0.00     0.000 C 
ATOM     17  C   UNL d   1      53.585  33.973  55.188  0.00  0.00     0.000 A 
ENDBRANCH   4  11
BRANCH   3  18
ATOM     18  N   UNL d   1      50.593  34.106  52.428  0.00  0.00    -0.285 N 
ATOM     19  C   UNL d   1      50.557  34.166  51.577  0.00  0.00     0.108 A 
ATOM     20  C   UNL d   1      49.848  34.454  51.213  0.00  0.00     0.142 A 
ATOM     21  O   UNL d   1      49.164  34.687  51.697  0.00  0.00    -0.300 OA
ATOM     22  C   UNL d   1      49.225  34.618  52.535  0.00  0.00     0.142 A 
ATOM     23  C   UNL d   1      49.931  34.330  52.904  0.00  0.00     0.108 A 
ENDBRANCH   3  18
TORSDOF 2
ENDMDL
MODEL 6
REMARK VINA RESULT:      -6.1      0.668      1.717
REMARK  2 active torsions:
REMARK  status: ('A' for Active; 'I' for Inactive)
REMARK    1  A    between atoms: N_9  and  C_3 
REMARK    2  A    between atoms: C_11  and  C_4 
ROOT
ATOM      1  N   UNL d   1      53.033  33.776  53.880  0.00  0.00    -0.196 N 
ATOM      2  C   UNL d   1      52.343  34.059  53.518  0.00  0.00     0.167 A 
ATOM      3  C   UNL d   1      53.457  34.269  54.396  0.00  0.00     0.153 A 
ATOM      4  C   UNL d   1      51.917  33.582  53.009  0.00  0.00     0.057 A 
ATOM      5  N   UNL d   1      52.874  32.520  53.217  0.00  0.00    -0.161 NA
ATOM      6  N   UNL d   1      52.082  34.826  53.672  0.00  0.00    -0.227 NA
ATOM      7  C   UNL d   1      53.191  35.027  54.541  0.00  0.00     0.057 A 
ATOM      8  C   UNL d   1      52.184  32.807  52.857  0.00  0.00     0.124 A 
ATOM      9  C   UNL d   1      52.501  35.307  54.177  0.00  0.00     0.086 A 
ATOM     10  C   UNL d   1      52.240  36.073  54.331  0.00  0.00     0.021 C 
ENDROOT
BRANCH   4  11
ATOM     11  C   UNL d   1      51.230  33.860  52.647  0.00  0.00     0.004 A 
ATOM     12  C   UNL d   1      51.262  34.158  51.876  0.00  0.00     0.000 A 
ATOM     13  C   UNL d   1      50.575  34.436  51.514  0.00  0.00     0.000 A 
ATOM     14  C   UNL d   1      49.849  34.413  51.934  0.00  0.00     0.000 A 
ATOM     15  C   UNL d   1      49.836  34.114  52.699  0.00  0.00     0.000 A 
ATOM     16  C   UNL d   1      49.162  34.692  51.572  0.00  0.00     0.000 C 
ATOM     17  C   UNL d   1      50.519  33.837  53.059  0.00  0.00     0.000 A 
ENDBRANCH   4  11
BRANCH   3  18
ATOM     18  N   UNL d   1      54.169  33.981  54.771  0.00  0.00    -0.285 N 
ATOM     19  C   UNL d   1      54.920  34.076  54.377  0.00  0.00     0.108 A 
ATOM     20  C   UNL d   1      55.623  33.789  54.752  0.00  0.00     0.142 A 
ATOM     21  O   UNL d   1      55.584  33.401  55.530  0.00  0.00    -0.300 OA
ATOM     22  C   UNL d   1      54.830  33.319  55.898  0.00  0.00     0.142 A 
ATOM     23  C   UNL d   1      54.124  33.605  55.527  0.00  0.00     0.108 A 
ENDBRANCH   3  18
TORSDOF 2
ENDMDL
MODEL 7
REMARK VINA RESULT:      -6.0      1.687      4.597
REMARK  2 active torsions:
REMARK  status: ('A' for Active; 'I' for Inactive)
REMARK    1  A    between atoms: N_9  and  C_3 
REMARK    2  A    between atoms: C_11  and  C_4 
ROOT
ATOM      1  N   UNL d   1      51.995  33.757  53.038  0.00  0.00    -0.196 N 
ATOM      2  C   UNL d   1      52.651  33.827  53.541  0.00  0.00     0.167 A 
ATOM      3  C   UNL d   1      51.468  34.393  52.962  0.00  0.00     0.153 A 
ATOM      4  C   UNL d   1      53.177  33.207  53.624  0.00  0.00     0.057 A 
ATOM      5  N   UNL d   1      52.393  32.429  52.693  0.00  0.00    -0.161 NA
ATOM      6  N   UNL d   1      52.774  34.525  53.961  0.00  0.00    -0.227 NA
ATOM      7  C   UNL d   1      51.599  35.081  53.382  0.00  0.00     0.057 A 
ATOM      8  C   UNL d   1      53.047  32.503  53.197  0.00  0.00     0.124 A 
ATOM      9  C   UNL d   1      52.255  35.147  53.884  0.00  0.00     0.086 A 
ATOM     10  C   UNL d   1      52.379  35.845  54.304  0.00  0.00     0.021 C 
ENDROOT
BRANCH   4  11
ATOM     11  C   UNL d   1      53.830  33.273  54.123  0.00  0.00     0.004 A 
ATOM     12  C   UNL d   1      53.760  33.070  54.922  0.00  0.00     0.000 A 
ATOM     13  C   UNL d   1      54.414  33.137  55.421  0.00  0.00     0.000 A 
ATOM     14  C   UNL d   1      55.144  33.409  55.112  0.00  0.00     0.000 A 
ATOM     15  C   UNL d   1      55.195  33.606  54.315  0.00  0.00     0.000 A 
ATOM     16  C   UNL d   1      55.797  33.475  55.611  0.00  0.00     0.000 C 
ATOM     17  C   UNL d   1      54.545  33.540  53.818  0.00  0.00     0.000 A 
ENDBRANCH   4  11
BRANCH   3  18
ATOM     18  N   UNL d   1      50.790  34.325  52.445  0.00  0.00    -0.285 N 
ATOM     19  C   UNL d   1      50.007  34.278  52.781  0.00  0.00     0.108 A 
ATOM     20  C   UNL d   1      49.339  34.210  52.264  0.00  0.00     0.142 A 
ATOM     21  O   UNL d   1      49.446  34.188  51.401  0.00  0.00    -0.300 OA
ATOM     22  C   UNL d   1      50.230  34.237  51.094  0.00  0.00     0.142 A 
ATOM     23  C   UNL d   1      50.901  34.304  51.607  0.00  0.00     0.108 A 
ENDBRANCH   3  18
TORSDOF 2
ENDMDL
