MODEL 1
REMARK VINA RESULT:      26.2      0.000      0.000
REMARK  8 active torsions:
REMARK  status: ('A' for Active; 'I' for Inactive)
REMARK    1  A    between atoms: C_6  and  N_1 
REMARK    2  A    between atoms: C_7  and  C_2 
REMARK    3  A    between atoms: C_8  and  C_6 
REMARK    4  A    between atoms: O_14  and  C_8 
REMARK    5  A    between atoms: O_15  and  C_8 
REMARK    6  A    between atoms: O_18  and  C_11 
REMARK    7  A    between atoms: C_20  and  O_14 
REMARK    8  A    between atoms: C_19  and  O_15 
ROOT
ATOM      1  N   UNL d   1      46.224 -18.094  43.641  0.00  0.00    -0.286 N 
ATOM      2  C   UNL d   1      46.092 -17.675  44.342  0.00  0.00     0.148 A 
ATOM      3  N   UNL d   1      46.149 -18.230  44.950  0.00  0.00    -0.227 NA
ATOM      4  C   UNL d   1      46.355 -18.868  43.817  0.00  0.00     0.083 A 
ATOM      5  C   UNL d   1      46.308 -18.954  44.637  0.00  0.00     0.099 A 
ATOM      6  C   UNL d   1      46.514 -19.524  43.338  0.00  0.00     0.019 A 
ATOM      7  C   UNL d   1      46.421 -19.692  44.954  0.00  0.00     0.021 A 
ATOM      8  C   UNL d   1      46.621 -20.240  43.689  0.00  0.00     0.002 A 
ATOM      9  C   UNL d   1      46.574 -20.325  44.509  0.00  0.00     0.002 A 
ENDROOT
BRANCH   1  10
ATOM     10  C   UNL d   1      46.221 -17.769  42.901  0.00  0.00     0.133 C 
BRANCH  10  11
ATOM     11  C   UNL d   1      45.944 -18.236  42.265  0.00  0.00     0.222 C 
BRANCH  11  12
ATOM     12  O   UNL d   1      46.460 -18.729  41.845  0.00  0.00    -0.282 OA
BRANCH  12  13
ATOM     13  C   UNL d   1      46.609 -19.228  41.218  0.00  0.00     0.125 C 
ATOM     14  C   UNL d   1      46.636 -18.918  40.448  0.00  0.00     0.029 C 
ENDBRANCH  12  13
ENDBRANCH  11  12
BRANCH  11  15
ATOM     15  O   UNL d   1      45.128 -18.215  42.038  0.00  0.00    -0.282 OA
BRANCH  15  16
ATOM     16  C   UNL d   1      44.699 -18.142  41.340  0.00  0.00     0.125 C 
ATOM     17  C   UNL d   1      43.878 -18.201  41.347  0.00  0.00     0.029 C 
ENDBRANCH  15  16
ENDBRANCH  11  15
ENDBRANCH  10  11
ENDBRANCH   1  10
BRANCH   2  18
ATOM     18  C   UNL d   1      45.936 -16.868  44.417  0.00  0.00     0.035 A 
ATOM     19  C   UNL d   1      45.174 -16.614  44.619  0.00  0.00     0.005 A 
ATOM     20  C   UNL d   1      45.017 -15.807  44.694  0.00  0.00     0.024 A 
ATOM     21  C   UNL d   1      45.623 -15.255  44.567  0.00  0.00     0.094 A 
ATOM     22  C   UNL d   1      46.381 -15.512  44.367  0.00  0.00     0.024 A 
ATOM     23  C   UNL d   1      46.537 -16.319  44.291  0.00  0.00     0.005 A 
BRANCH  21  24
ATOM     24  O   UNL d   1      45.467 -14.449  44.642  0.00  0.00    -0.328 OA
ATOM     25  C   UNL d   1      45.451 -13.967  43.968  0.00  0.00     0.181 C 
ENDBRANCH  21  24
ENDBRANCH   2  18
TORSDOF 8
ENDMDL
