MODEL 1
REMARK VINA RESULT:      -2.7      0.000      0.000
REMARK  3 active torsions:
REMARK  status: ('A' for Active; 'I' for Inactive)
REMARK    1  A    between atoms: C_11  and  C_4 
REMARK    2  A    between atoms: N_14  and  C_7 
REMARK    3  A    between atoms: C_10  and  C_12 
ROOT
ATOM      1  C   UNL d   1      30.433  17.191 -24.240  0.00  0.00     0.186 A 
ATOM      2  N   UNL d   1      29.636  17.223 -24.457  0.00  0.00    -0.193 N 
ATOM      3  N   UNL d   1      30.697  16.601 -23.715  0.00  0.00    -0.204 NA
ATOM      4  C   UNL d   1      30.827  17.806 -24.626  0.00  0.00     0.140 A 
ATOM      5  N   UNL d   1      29.533  17.860 -24.979  0.00  0.00    -0.058 NA
ATOM      6  N   UNL d   1      30.273  18.221 -25.084  0.00  0.00    -0.127 NA
ATOM      7  C   UNL d   1      30.157  16.037 -23.403  0.00  0.00     0.188 A 
ATOM      8  C   UNL d   1      29.361  16.080 -23.629  0.00  0.00     0.056 A 
ATOM      9  C   UNL d   1      29.093  16.669 -24.154  0.00  0.00     0.089 A 
ATOM     10  C   UNL d   1      28.825  15.527 -23.326  0.00  0.00     0.005 A 
ATOM     11  C   UNL d   1      28.302  16.696 -24.366  0.00  0.00     0.019 A 
ATOM     12  C   UNL d   1      28.031  15.561 -23.543  0.00  0.00     0.000 A 
ATOM     13  C   UNL d   1      27.769  16.146 -24.064  0.00  0.00     0.002 A 
ENDROOT
BRANCH   4  14
ATOM     14  C   UNL d   1      31.634  17.975 -24.564  0.00  0.00     0.022 A 
ATOM     15  C   UNL d   1      31.902  18.470 -23.962  0.00  0.00     0.005 A 
ATOM     16  C   UNL d   1      32.702  18.642 -23.895  0.00  0.00     0.071 A 
ATOM     17  C   UNL d   1      33.240  18.319 -24.430  0.00  0.00     0.004 A 
ATOM     18  C   UNL d   1      32.966  17.820 -25.037  0.00  0.00    -0.000 A 
ATOM     19  C   UNL d   1      32.166  17.653 -25.097  0.00  0.00     0.002 A 
BRANCH  16  20
ATOM     20  C   UNL d   1      32.970  19.137 -23.294  0.00  0.00     0.419 C 
ATOM     21  F   UNL d   1      33.231  19.673 -22.723  0.00  0.00    -0.166 F 
ATOM     22  F   UNL d   1      33.082  18.505 -22.787  0.00  0.00    -0.166 F 
ATOM     23  F   UNL d   1      32.858  19.787 -23.805  0.00  0.00    -0.166 F 
ENDBRANCH  16  20
ENDBRANCH   4  14
BRANCH   7  24
ATOM     24  N   UNL d   1      30.419  15.453 -22.883  0.00  0.00    -0.108 NA
ATOM     25  N   UNL d   1      31.207  15.455 -22.621  0.00  0.00    -0.021 N 
ENDBRANCH   7  24
TORSDOF 3
ENDMDL
MODEL 2
REMARK VINA RESULT:      -1.6      2.689      4.693
REMARK  3 active torsions:
REMARK  status: ('A' for Active; 'I' for Inactive)
REMARK    1  A    between atoms: C_11  and  C_4 
REMARK    2  A    between atoms: N_14  and  C_7 
REMARK    3  A    between atoms: C_10  and  C_12 
ROOT
ATOM      1  C   UNL d   1      32.821  19.531 -23.556  0.00  0.00     0.186 A 
ATOM      2  N   UNL d   1      32.929  20.225 -23.993  0.00  0.00    -0.193 N 
ATOM      3  N   UNL d   1      32.815  19.562 -22.723  0.00  0.00    -0.204 NA
ATOM      4  C   UNL d   1      32.736  18.905 -24.088  0.00  0.00     0.140 A 
ATOM      5  N   UNL d   1      32.911  20.030 -24.799  0.00  0.00    -0.058 NA
ATOM      6  N   UNL d   1      32.791  19.211 -24.858  0.00  0.00    -0.127 NA
ATOM      7  C   UNL d   1      32.918  20.295 -22.324  0.00  0.00     0.188 A 
ATOM      8  C   UNL d   1      33.025  20.983 -22.775  0.00  0.00     0.056 A 
ATOM      9  C   UNL d   1      33.031  20.956 -23.607  0.00  0.00     0.089 A 
ATOM     10  C   UNL d   1      33.126  21.707 -22.387  0.00  0.00     0.005 A 
ATOM     11  C   UNL d   1      33.138  21.646 -24.036  0.00  0.00     0.019 A 
ATOM     12  C   UNL d   1      33.233  22.397 -22.825  0.00  0.00     0.000 A 
ATOM     13  C   UNL d   1      33.239  22.366 -23.650  0.00  0.00     0.002 A 
ENDROOT
BRANCH   4  14
ATOM     14  C   UNL d   1      32.617  18.112 -23.884  0.00  0.00     0.022 A 
ATOM     15  C   UNL d   1      31.871  17.775 -23.975  0.00  0.00     0.005 A 
ATOM     16  C   UNL d   1      31.746  16.989 -23.775  0.00  0.00     0.071 A 
ATOM     17  C   UNL d   1      32.368  16.534 -23.481  0.00  0.00     0.004 A 
ATOM     18  C   UNL d   1      33.121  16.878 -23.390  0.00  0.00    -0.000 A 
ATOM     19  C   UNL d   1      33.237  17.663 -23.592  0.00  0.00     0.002 A 
BRANCH  16  20
ATOM     20  C   UNL d   1      31.000  16.652 -23.867  0.00  0.00     0.419 C 
ATOM     21  F   UNL d   1      30.262  16.312 -24.008  0.00  0.00    -0.166 F 
ATOM     22  F   UNL d   1      30.855  16.690 -23.062  0.00  0.00    -0.166 F 
ATOM     23  F   UNL d   1      31.141  16.610 -24.688  0.00  0.00    -0.166 F 
ENDBRANCH  16  20
ENDBRANCH   4  14
BRANCH   7  24
ATOM     24  N   UNL d   1      32.911  20.325 -21.500  0.00  0.00    -0.108 NA
ATOM     25  N   UNL d   1      33.227  19.695 -21.061  0.00  0.00    -0.021 N 
ENDBRANCH   7  24
TORSDOF 3
ENDMDL
MODEL 3
REMARK VINA RESULT:      -1.2      3.495      5.692
REMARK  3 active torsions:
REMARK  status: ('A' for Active; 'I' for Inactive)
REMARK    1  A    between atoms: C_11  and  C_4 
REMARK    2  A    between atoms: N_14  and  C_7 
REMARK    3  A    between atoms: C_10  and  C_12 
ROOT
ATOM      1  C   UNL d   1      33.008  20.746 -22.070  0.00  0.00     0.186 A 
ATOM      2  N   UNL d   1      33.118  20.883 -21.261  0.00  0.00    -0.193 N 
ATOM      3  N   UNL d   1      32.895  21.388 -22.588  0.00  0.00    -0.204 NA
ATOM      4  C   UNL d   1      33.037  19.930 -22.197  0.00  0.00     0.140 A 
ATOM      5  N   UNL d   1      33.216  20.150 -20.884  0.00  0.00    -0.058 NA
ATOM      6  N   UNL d   1      33.165  19.559 -21.464  0.00  0.00    -0.127 NA
ATOM      7  C   UNL d   1      32.892  22.176 -22.294  0.00  0.00     0.188 A 
ATOM      8  C   UNL d   1      33.003  22.300 -21.482  0.00  0.00     0.056 A 
ATOM      9  C   UNL d   1      33.116  21.660 -20.961  0.00  0.00     0.089 A 
ATOM     10  C   UNL d   1      33.001  23.073 -21.187  0.00  0.00     0.005 A 
ATOM     11  C   UNL d   1      33.225  21.801 -20.161  0.00  0.00     0.019 A 
ATOM     12  C   UNL d   1      33.111  23.207 -20.382  0.00  0.00     0.000 A 
ATOM     13  C   UNL d   1      33.223  22.571 -19.868  0.00  0.00     0.002 A 
ENDROOT
BRANCH   4  14
ATOM     14  C   UNL d   1      32.952  19.553 -22.927  0.00  0.00     0.022 A 
ATOM     15  C   UNL d   1      32.576  18.821 -22.967  0.00  0.00     0.005 A 
ATOM     16  C   UNL d   1      32.488  18.441 -23.690  0.00  0.00     0.071 A 
ATOM     17  C   UNL d   1      32.778  18.791 -24.378  0.00  0.00     0.004 A 
ATOM     18  C   UNL d   1      33.158  19.531 -24.334  0.00  0.00    -0.000 A 
ATOM     19  C   UNL d   1      33.241  19.903 -23.609  0.00  0.00     0.002 A 
BRANCH  16  20
ATOM     20  C   UNL d   1      32.112  17.710 -23.730  0.00  0.00     0.419 C 
ATOM     21  F   UNL d   1      31.779  16.955 -23.757  0.00  0.00    -0.166 F 
ATOM     22  F   UNL d   1      31.401  18.057 -23.939  0.00  0.00    -0.166 F 
ATOM     23  F   UNL d   1      32.833  17.348 -23.517  0.00  0.00    -0.166 F 
ENDBRANCH  16  20
ENDBRANCH   4  14
BRANCH   7  24
ATOM     24  N   UNL d   1      32.780  22.812 -22.808  0.00  0.00    -0.108 NA
ATOM     25  N   UNL d   1      33.116  22.794 -23.567  0.00  0.00    -0.021 N 
ENDBRANCH   7  24
TORSDOF 3
ENDMDL
MODEL 4
REMARK VINA RESULT:      -1.0      3.696      5.064
REMARK  3 active torsions:
REMARK  status: ('A' for Active; 'I' for Inactive)
REMARK    1  A    between atoms: C_11  and  C_4 
REMARK    2  A    between atoms: N_14  and  C_7 
REMARK    3  A    between atoms: C_10  and  C_12 
ROOT
ATOM      1  C   UNL d   1      33.010  20.223 -22.446  0.00  0.00     0.186 A 
ATOM      2  N   UNL d   1      33.118  19.457 -22.153  0.00  0.00    -0.193 N 
ATOM      3  N   UNL d   1      32.908  20.344 -23.263  0.00  0.00    -0.204 NA
ATOM      4  C   UNL d   1      33.028  20.746 -21.806  0.00  0.00     0.140 A 
ATOM      5  N   UNL d   1      33.204  19.503 -21.329  0.00  0.00    -0.058 NA
ATOM      6  N   UNL d   1      33.148  20.303 -21.114  0.00  0.00    -0.127 NA
ATOM      7  C   UNL d   1      32.915  19.692 -23.794  0.00  0.00     0.188 A 
ATOM      8  C   UNL d   1      33.024  18.929 -23.487  0.00  0.00     0.056 A 
ATOM      9  C   UNL d   1      33.126  18.804 -22.670  0.00  0.00     0.089 A 
ATOM     10  C   UNL d   1      33.032  18.283 -24.004  0.00  0.00     0.005 A 
ATOM     11  C   UNL d   1      33.233  18.043 -22.384  0.00  0.00     0.019 A 
ATOM     12  C   UNL d   1      33.140  17.521 -23.710  0.00  0.00     0.000 A 
ATOM     13  C   UNL d   1      33.241  17.401 -22.900  0.00  0.00     0.002 A 
ENDROOT
BRANCH   4  14
ATOM     14  C   UNL d   1      32.941  21.567 -21.852  0.00  0.00     0.022 A 
ATOM     15  C   UNL d   1      32.551  21.970 -21.249  0.00  0.00     0.005 A 
ATOM     16  C   UNL d   1      32.462  22.785 -21.289  0.00  0.00     0.071 A 
ATOM     17  C   UNL d   1      32.762  23.203 -21.933  0.00  0.00     0.004 A 
ATOM     18  C   UNL d   1      33.156  22.791 -22.541  0.00  0.00    -0.000 A 
ATOM     19  C   UNL d   1      33.241  21.978 -22.494  0.00  0.00     0.002 A 
BRANCH  16  20
ATOM     20  C   UNL d   1      32.072  23.188 -20.686  0.00  0.00     0.419 C 
ATOM     21  F   UNL d   1      31.725  23.592 -20.055  0.00  0.00    -0.166 F 
ATOM     22  F   UNL d   1      31.371  23.198 -21.108  0.00  0.00    -0.166 F 
ATOM     23  F   UNL d   1      32.783  23.183 -20.249  0.00  0.00    -0.166 F 
ENDBRANCH  16  20
ENDBRANCH   4  14
BRANCH   7  24
ATOM     24  N   UNL d   1      32.814  19.811 -24.604  0.00  0.00    -0.108 NA
ATOM     25  N   UNL d   1      33.112  20.501 -24.959  0.00  0.00    -0.021 N 
ENDBRANCH   7  24
TORSDOF 3
ENDMDL
