MODEL 1
REMARK VINA RESULT:      47.2      0.000      0.000
REMARK  5 active torsions:
REMARK  status: ('A' for Active; 'I' for Inactive)
REMARK    1  A    between atoms: N_9  and  C_1 
REMARK    2  A    between atoms: C_12  and  C_2 
REMARK       I    between atoms: C_13  and  N_9 
REMARK    3  A    between atoms: C_11  and  C_14 
REMARK    4  A    between atoms: O_19  and  C_12 
REMARK    5  A    between atoms: C_14  and  C_13 
ROOT
ATOM      1  C   UNL d   1      59.838  49.483  50.847  0.00  0.00     0.119 A 
ATOM      2  C   UNL d   1      60.623  49.228  50.687  0.00  0.00     0.087 A 
ATOM      3  S   UNL d   1      59.770  49.692  51.642  0.00  0.00    -0.068 SA
ATOM      4  C   UNL d   1      61.029  49.285  51.390  0.00  0.00     0.013 A 
ATOM      5  C   UNL d   1      60.514  49.570  51.987  0.00  0.00     0.031 A 
ATOM      6  C   UNL d   1      61.819  49.088  51.476  0.00  0.00     0.001 C 
ATOM      7  C   UNL d   1      60.707  49.705  52.777  0.00  0.00     0.007 C 
ENDROOT
BRANCH   1   8
ATOM      8  N   UNL d   1      59.176  49.545  50.348  0.00  0.00    -0.201 NA
ATOM      9  C   UNL d   1      58.424  49.642  50.667  0.00  0.00     0.280 C 
ATOM     10  O   UNL d   1      58.311  49.679  51.499  0.00  0.00    -0.265 OA
BRANCH   9  11
ATOM     11  C   UNL d   1      57.750  49.705  50.159  0.00  0.00     0.074 C 
BRANCH  11  12
ATOM     12  C   UNL d   1      57.222  49.067  50.058  0.00  0.00     0.095 A 
ATOM     13  C   UNL d   1      56.453  49.051  50.296  0.00  0.00     0.287 A 
ATOM     14  N   UNL d   1      56.138  48.316  50.087  0.00  0.00    -0.181 NA
ATOM     15  O   UNL d   1      56.035  49.659  50.685  0.00  0.00    -0.265 OA
ATOM     16  C   UNL d   1      56.747  47.891  49.715  0.00  0.00     0.217 A 
ATOM     17  S   UNL d   1      57.423  48.370  49.701  0.00  0.00    -0.042 SA
ATOM     18  N   UNL d   1      56.674  47.111  49.410  0.00  0.00    -0.119 N 
ENDBRANCH  11  12
ENDBRANCH   9  11
ENDBRANCH   1   8
BRANCH   2  19
ATOM     19  C   UNL d   1      60.937  48.974  49.987  0.00  0.00     0.298 C 
ATOM     20  O   UNL d   1      61.190  49.522  49.447  0.00  0.00    -0.259 OA
BRANCH  19  21
ATOM     21  O   UNL d   1      60.995  48.178  49.834  0.00  0.00    -0.296 OA
ATOM     22  C   UNL d   1      61.725  47.828  49.743  0.00  0.00     0.185 C 
ENDBRANCH  19  21
ENDBRANCH   2  19
TORSDOF 5
ENDMDL
