MODEL 1
REMARK VINA RESULT:      56.7      0.000      0.000
REMARK  5 active torsions:
REMARK  status: ('A' for Active; 'I' for Inactive)
REMARK    1  A    between atoms: C_7  and  N_2 
REMARK    2  A    between atoms: C_14  and  C_7 
REMARK    3  A    between atoms: C_8  and  O_16 
REMARK    4  A    between atoms: C_18  and  C_14 
REMARK    5  A    between atoms: O_16  and  C_18 
ROOT
ATOM      1  C   UNL d   1      60.656  49.704  50.454  0.00  0.00     0.086 C 
ENDROOT
BRANCH   1   2
ATOM      2  N   UNL d   1      60.148  49.704  51.102  0.00  0.00    -0.268 N 
ATOM      3  C   UNL d   1      60.379  49.705  51.893  0.00  0.00     0.296 A 
ATOM      4  S   UNL d   1      59.686  49.704  52.357  0.00  0.00    -0.025 SA
ATOM      5  O   UNL d   1      61.150  49.707  52.183  0.00  0.00    -0.259 OA
ATOM      6  C   UNL d   1      59.041  49.702  51.842  0.00  0.00     0.050 A 
ATOM      7  C   UNL d   1      58.216  49.701  51.981  0.00  0.00     0.008 A 
ATOM      8  C   UNL d   1      59.320  49.702  51.070  0.00  0.00     0.073 A 
ATOM      9  C   UNL d   1      57.695  49.699  51.345  0.00  0.00     0.001 A 
ATOM     10  C   UNL d   1      57.986  49.699  50.569  0.00  0.00     0.002 A 
ATOM     11  C   UNL d   1      58.800  49.700  50.429  0.00  0.00     0.018 A 
ENDBRANCH   1   2
BRANCH   1  12
ATOM     12  C   UNL d   1      60.899  48.987  50.111  0.00  0.00     0.046 C 
BRANCH  12  13
ATOM     13  C   UNL d   1      61.462  48.513  50.482  0.00  0.00     0.124 C 
BRANCH  13  14
ATOM     14  O   UNL d   1      61.434  47.699  50.399  0.00  0.00    -0.305 OA
BRANCH  14  15
ATOM     15  C   UNL d   1      61.407  46.875  50.317  0.00  0.00     0.100 A 
ATOM     16  C   UNL d   1      60.969  46.440  50.843  0.00  0.00     0.025 A 
ATOM     17  C   UNL d   1      60.936  45.614  50.769  0.00  0.00     0.002 A 
ATOM     18  C   UNL d   1      61.351  45.241  50.158  0.00  0.00     0.000 A 
ATOM     19  C   UNL d   1      61.793  45.694  49.629  0.00  0.00     0.002 A 
ATOM     20  C   UNL d   1      61.323  44.427  50.079  0.00  0.00     0.000 C 
ATOM     21  C   UNL d   1      61.821  46.509  49.707  0.00  0.00     0.025 A 
ENDBRANCH  14  15
ENDBRANCH  13  14
ENDBRANCH  12  13
ENDBRANCH   1  12
TORSDOF 5
ENDMDL
MODEL 2
REMARK VINA RESULT:      59.7      2.778      3.851
REMARK  5 active torsions:
REMARK  status: ('A' for Active; 'I' for Inactive)
REMARK    1  A    between atoms: C_7  and  N_2 
REMARK    2  A    between atoms: C_14  and  C_7 
REMARK    3  A    between atoms: C_8  and  O_16 
REMARK    4  A    between atoms: C_18  and  C_14 
REMARK    5  A    between atoms: O_16  and  C_18 
ROOT
ATOM      1  C   UNL d   1      57.205  48.594  51.769  0.00  0.00     0.086 C 
ENDROOT
BRANCH   1   2
ATOM      2  N   UNL d   1      56.936  48.241  51.077  0.00  0.00    -0.268 N 
ATOM      3  C   UNL d   1      56.908  47.430  50.930  0.00  0.00     0.296 A 
ATOM      4  S   UNL d   1      56.598  47.323  50.163  0.00  0.00    -0.025 SA
ATOM      5  O   UNL d   1      57.141  46.827  51.441  0.00  0.00    -0.259 OA
ATOM      6  C   UNL d   1      56.441  48.072  49.852  0.00  0.00     0.050 A 
ATOM      7  C   UNL d   1      56.130  48.314  49.115  0.00  0.00     0.008 A 
ATOM      8  C   UNL d   1      56.647  48.637  50.409  0.00  0.00     0.073 A 
ATOM      9  C   UNL d   1      56.033  49.115  48.956  0.00  0.00     0.001 A 
ATOM     10  C   UNL d   1      56.244  49.680  49.525  0.00  0.00     0.002 A 
ATOM     11  C   UNL d   1      56.551  49.443  50.253  0.00  0.00     0.018 A 
ENDBRANCH   1   2
BRANCH   1  12
ATOM     12  C   UNL d   1      57.356  49.411  51.792  0.00  0.00     0.046 C 
BRANCH  12  13
ATOM     13  C   UNL d   1      58.022  49.705  52.180  0.00  0.00     0.124 C 
BRANCH  13  14
ATOM     14  O   UNL d   1      58.755  49.679  51.816  0.00  0.00    -0.305 OA
BRANCH  14  15
ATOM     15  C   UNL d   1      59.496  49.655  51.447  0.00  0.00     0.100 A 
ATOM     16  C   UNL d   1      60.163  49.584  51.904  0.00  0.00     0.025 A 
ATOM     17  C   UNL d   1      60.910  49.559  51.542  0.00  0.00     0.002 A 
ATOM     18  C   UNL d   1      60.968  49.607  50.718  0.00  0.00     0.000 A 
ATOM     19  C   UNL d   1      60.283  49.679  50.264  0.00  0.00     0.002 A 
ATOM     20  C   UNL d   1      61.702  49.583  50.356  0.00  0.00     0.000 C 
ATOM     21  C   UNL d   1      59.549  49.703  50.626  0.00  0.00     0.025 A 
ENDBRANCH  14  15
ENDBRANCH  13  14
ENDBRANCH  12  13
ENDBRANCH   1  12
TORSDOF 5
ENDMDL
