MODEL 1
REMARK VINA RESULT:      -8.3      0.000      0.000
REMARK  3 active torsions:
REMARK  status: ('A' for Active; 'I' for Inactive)
REMARK    1  A    between atoms: C_6  and  N_1 
REMARK    2  A    between atoms: C_2  and  C_8 
REMARK    3  A    between atoms: N_3  and  C_2 
REMARK       I    between atoms: C_5  and  N_4 
ROOT
ATOM      1  C   UNL d   1      52.645  32.563  53.214  0.00  0.00     0.120 C 
ATOM      2  S   UNL d   1      52.668  31.792  52.918  0.00  0.00    -0.059 SA
ENDROOT
BRANCH   1   3
ATOM      3  C   UNL d   1      52.001  33.048  53.050  0.00  0.00     0.027 A 
ATOM      4  C   UNL d   1      52.063  33.637  52.476  0.00  0.00     0.004 A 
ATOM      5  C   UNL d   1      51.415  34.124  52.312  0.00  0.00     0.024 A 
ATOM      6  C   UNL d   1      50.708  34.020  52.722  0.00  0.00     0.127 A 
ATOM      7  C   UNL d   1      50.645  33.431  53.295  0.00  0.00     0.024 A 
ATOM      8  C   UNL d   1      51.290  32.945  53.460  0.00  0.00     0.004 A 
BRANCH   6   9
ATOM      9  N   UNL d   1      50.063  34.506  52.557  0.00  0.00    -0.114 N 
ATOM     10  O   UNL d   1      49.832  35.024  53.158  0.00  0.00    -0.532 OA
ATOM     11  O   UNL d   1      49.650  34.499  51.838  0.00  0.00    -0.532 OA
ENDBRANCH   6   9
ENDBRANCH   1   3
BRANCH   1  12
ATOM     12  N   UNL d   1      53.265  32.846  53.675  0.00  0.00    -0.293 N 
ATOM     13  C   UNL d   1      53.978  33.080  53.318  0.00  0.00     0.100 A 
ATOM     14  C   UNL d   1      54.598  33.363  53.779  0.00  0.00     0.102 A 
ATOM     15  N   UNL d   1      54.513  33.416  54.598  0.00  0.00    -0.269 N 
ATOM     16  C   UNL d   1      53.802  33.182  54.956  0.00  0.00     0.102 A 
ATOM     17  C   UNL d   1      55.134  33.699  55.060  0.00  0.00     0.265 C 
ATOM     18  C   UNL d   1      53.181  32.898  54.494  0.00  0.00     0.100 A 
ATOM     19  O   UNL d   1      55.050  33.751  55.879  0.00  0.00    -0.267 OA
ATOM     20  C   UNL d   1      55.843  33.932  54.706  0.00  0.00     0.066 C 
ENDBRANCH   1  12
TORSDOF 3
ENDMDL
MODEL 2
REMARK VINA RESULT:      -8.2      2.425      4.108
REMARK  3 active torsions:
REMARK  status: ('A' for Active; 'I' for Inactive)
REMARK    1  A    between atoms: C_6  and  N_1 
REMARK    2  A    between atoms: C_2  and  C_8 
REMARK    3  A    between atoms: N_3  and  C_2 
REMARK       I    between atoms: C_5  and  N_4 
ROOT
ATOM      1  C   UNL d   1      53.690  32.395  53.490  0.00  0.00     0.120 C 
ATOM      2  S   UNL d   1      54.465  32.677  53.449  0.00  0.00    -0.059 SA
ENDROOT
BRANCH   1   3
ATOM      3  C   UNL d   1      53.550  31.599  53.643  0.00  0.00     0.027 A 
ATOM      4  C   UNL d   1      53.489  31.332  54.421  0.00  0.00     0.004 A 
ATOM      5  C   UNL d   1      53.347  30.531  54.574  0.00  0.00     0.024 A 
ATOM      6  C   UNL d   1      53.267  30.001  53.948  0.00  0.00     0.127 A 
ATOM      7  C   UNL d   1      53.327  30.268  53.170  0.00  0.00     0.024 A 
ATOM      8  C   UNL d   1      53.468  31.065  53.017  0.00  0.00     0.004 A 
BRANCH   6   9
ATOM      9  N   UNL d   1      53.126  29.204  54.102  0.00  0.00    -0.114 N 
ATOM     10  O   UNL d   1      52.684  28.795  53.535  0.00  0.00    -0.532 OA
ATOM     11  O   UNL d   1      53.398  28.808  54.777  0.00  0.00    -0.532 OA
ENDBRANCH   6   9
ENDBRANCH   1   3
BRANCH   1  12
ATOM     12  N   UNL d   1      53.058  32.910  53.378  0.00  0.00    -0.293 N 
ATOM     13  C   UNL d   1      52.549  32.812  52.729  0.00  0.00     0.100 A 
ATOM     14  C   UNL d   1      51.917  33.326  52.617  0.00  0.00     0.102 A 
ATOM     15  N   UNL d   1      51.786  33.942  53.150  0.00  0.00    -0.269 N 
ATOM     16  C   UNL d   1      52.294  34.041  53.799  0.00  0.00     0.102 A 
ATOM     17  C   UNL d   1      51.154  34.458  53.038  0.00  0.00     0.265 C 
ATOM     18  C   UNL d   1      52.927  33.526  53.911  0.00  0.00     0.100 A 
ATOM     19  O   UNL d   1      51.023  35.074  53.571  0.00  0.00    -0.267 OA
ATOM     20  C   UNL d   1      50.648  34.361  52.393  0.00  0.00     0.066 C 
ENDBRANCH   1  12
TORSDOF 3
ENDMDL
MODEL 3
REMARK VINA RESULT:      -8.0      2.331      3.176
REMARK  3 active torsions:
REMARK  status: ('A' for Active; 'I' for Inactive)
REMARK    1  A    between atoms: C_6  and  N_1 
REMARK    2  A    between atoms: C_2  and  C_8 
REMARK    3  A    between atoms: N_3  and  C_2 
REMARK       I    between atoms: C_5  and  N_4 
ROOT
ATOM      1  C   UNL d   1      54.192  32.844  53.509  0.00  0.00     0.120 C 
ATOM      2  S   UNL d   1      54.975  32.919  53.258  0.00  0.00    -0.059 SA
ENDROOT
BRANCH   1   3
ATOM      3  C   UNL d   1      53.768  33.510  53.739  0.00  0.00     0.027 A 
ATOM      4  C   UNL d   1      53.333  33.936  53.182  0.00  0.00     0.004 A 
ATOM      5  C   UNL d   1      52.907  34.606  53.416  0.00  0.00     0.024 A 
ATOM      6  C   UNL d   1      52.917  34.846  54.204  0.00  0.00     0.127 A 
ATOM      7  C   UNL d   1      53.352  34.420  54.761  0.00  0.00     0.024 A 
ATOM      8  C   UNL d   1      53.777  33.754  54.529  0.00  0.00     0.004 A 
BRANCH   6   9
ATOM      9  N   UNL d   1      52.492  35.513  54.435  0.00  0.00    -0.114 N 
ATOM     10  O   UNL d   1      51.685  35.513  54.255  0.00  0.00    -0.532 OA
ATOM     11  O   UNL d   1      52.827  36.163  54.826  0.00  0.00    -0.532 OA
ENDBRANCH   6   9
ENDBRANCH   1   3
BRANCH   1  12
ATOM     12  N   UNL d   1      53.835  32.102  53.528  0.00  0.00    -0.293 N 
ATOM     13  C   UNL d   1      54.042  31.554  54.117  0.00  0.00     0.100 A 
ATOM     14  C   UNL d   1      53.685  30.813  54.136  0.00  0.00     0.102 A 
ATOM     15  N   UNL d   1      53.119  30.612  53.570  0.00  0.00    -0.269 N 
ATOM     16  C   UNL d   1      52.912  31.159  52.981  0.00  0.00     0.102 A 
ATOM     17  C   UNL d   1      52.761  29.870  53.589  0.00  0.00     0.265 C 
ATOM     18  C   UNL d   1      53.270  31.901  52.962  0.00  0.00     0.100 A 
ATOM     19  O   UNL d   1      52.196  29.669  53.023  0.00  0.00    -0.267 OA
ATOM     20  C   UNL d   1      52.966  29.325  54.174  0.00  0.00     0.066 C 
ENDBRANCH   1  12
TORSDOF 3
ENDMDL
MODEL 4
REMARK VINA RESULT:      -7.9      1.928      2.569
REMARK  3 active torsions:
REMARK  status: ('A' for Active; 'I' for Inactive)
REMARK    1  A    between atoms: C_6  and  N_1 
REMARK    2  A    between atoms: C_2  and  C_8 
REMARK    3  A    between atoms: N_3  and  C_2 
REMARK       I    between atoms: C_5  and  N_4 
ROOT
ATOM      1  C   UNL d   1      53.002  32.992  53.263  0.00  0.00     0.120 C 
ATOM      2  S   UNL d   1      53.696  33.435  53.321  0.00  0.00    -0.059 SA
ENDROOT
BRANCH   1   3
ATOM      3  C   UNL d   1      52.286  33.366  53.110  0.00  0.00     0.027 A 
ATOM      4  C   UNL d   1      51.698  33.385  53.688  0.00  0.00     0.004 A 
ATOM      5  C   UNL d   1      50.977  33.762  53.533  0.00  0.00     0.024 A 
ATOM      6  C   UNL d   1      50.849  34.118  52.801  0.00  0.00     0.127 A 
ATOM      7  C   UNL d   1      51.437  34.099  52.223  0.00  0.00     0.024 A 
ATOM      8  C   UNL d   1      52.154  33.724  52.376  0.00  0.00     0.004 A 
BRANCH   6   9
ATOM      9  N   UNL d   1      50.131  34.493  52.648  0.00  0.00    -0.114 N 
ATOM     10  O   UNL d   1      49.830  34.968  53.254  0.00  0.00    -0.532 OA
ATOM     11  O   UNL d   1      49.711  34.417  51.937  0.00  0.00    -0.532 OA
ENDBRANCH   6   9
ENDBRANCH   1   3
BRANCH   1  12
ATOM     12  N   UNL d   1      53.026  32.174  53.358  0.00  0.00    -0.293 N 
ATOM     13  C   UNL d   1      53.366  31.842  54.039  0.00  0.00     0.100 A 
ATOM     14  C   UNL d   1      53.390  31.025  54.133  0.00  0.00     0.102 A 
ATOM     15  N   UNL d   1      53.076  30.533  53.551  0.00  0.00    -0.269 N 
ATOM     16  C   UNL d   1      52.736  30.863  52.869  0.00  0.00     0.102 A 
ATOM     17  C   UNL d   1      53.100  29.714  53.645  0.00  0.00     0.265 C 
ATOM     18  C   UNL d   1      52.712  31.681  52.775  0.00  0.00     0.100 A 
ATOM     19  O   UNL d   1      52.786  29.222  53.062  0.00  0.00    -0.267 OA
ATOM     20  C   UNL d   1      53.437  29.384  54.322  0.00  0.00     0.066 C 
ENDBRANCH   1  12
TORSDOF 3
ENDMDL
MODEL 5
REMARK VINA RESULT:      -7.9      0.736      4.211
REMARK  3 active torsions:
REMARK  status: ('A' for Active; 'I' for Inactive)
REMARK    1  A    between atoms: C_6  and  N_1 
REMARK    2  A    between atoms: C_2  and  C_8 
REMARK    3  A    between atoms: N_3  and  C_2 
REMARK       I    between atoms: C_5  and  N_4 
ROOT
ATOM      1  C   UNL d   1      52.866  32.437  53.370  0.00  0.00     0.120 C 
ATOM      2  S   UNL d   1      52.898  31.639  53.158  0.00  0.00    -0.059 SA
ENDROOT
BRANCH   1   3
ATOM      3  C   UNL d   1      53.464  32.766  53.828  0.00  0.00     0.027 A 
ATOM      4  C   UNL d   1      54.174  32.998  53.478  0.00  0.00     0.004 A 
ATOM      5  C   UNL d   1      54.775  33.329  53.940  0.00  0.00     0.024 A 
ATOM      6  C   UNL d   1      54.663  33.427  54.751  0.00  0.00     0.127 A 
ATOM      7  C   UNL d   1      53.954  33.195  55.102  0.00  0.00     0.024 A 
ATOM      8  C   UNL d   1      53.355  32.865  54.642  0.00  0.00     0.004 A 
BRANCH   6   9
ATOM      9  N   UNL d   1      55.263  33.756  55.210  0.00  0.00    -0.114 N 
ATOM     10  O   UNL d   1      55.163  33.710  56.030  0.00  0.00    -0.532 OA
ATOM     11  O   UNL d   1      55.938  34.120  54.898  0.00  0.00    -0.532 OA
ENDBRANCH   6   9
ENDBRANCH   1   3
BRANCH   1  12
ATOM     12  N   UNL d   1      52.235  32.904  53.121  0.00  0.00    -0.293 N 
ATOM     13  C   UNL d   1      51.551  32.966  53.588  0.00  0.00     0.100 A 
ATOM     14  C   UNL d   1      50.921  33.432  53.339  0.00  0.00     0.102 A 
ATOM     15  N   UNL d   1      50.966  33.841  52.624  0.00  0.00    -0.269 N 
ATOM     16  C   UNL d   1      51.649  33.781  52.156  0.00  0.00     0.102 A 
ATOM     17  C   UNL d   1      50.335  34.309  52.375  0.00  0.00     0.265 C 
ATOM     18  C   UNL d   1      52.280  33.313  52.406  0.00  0.00     0.100 A 
ATOM     19  O   UNL d   1      50.381  34.718  51.659  0.00  0.00    -0.267 OA
ATOM     20  C   UNL d   1      49.655  34.370  52.838  0.00  0.00     0.066 C 
ENDBRANCH   1  12
TORSDOF 3
ENDMDL
