MODEL 1
REMARK VINA RESULT:      63.8      0.000      0.000
REMARK  3 active torsions:
REMARK  status: ('A' for Active; 'I' for Inactive)
REMARK       I    between atoms: C_6  and  N_7 
REMARK    1  A    between atoms: C_9  and  C_6 
REMARK    2  A    between atoms: N_7  and  C_13 
REMARK    3  A    between atoms: C_15  and  C_14 
ROOT
ATOM      1  C   UNL d   1     -50.254  27.066  33.996  0.00  0.00     0.279 C 
ATOM      2  N   UNL d   1     -50.368  26.633  33.309  0.00  0.00    -0.208 NA
ATOM      3  O   UNL d   1     -49.735  27.702  33.992  0.00  0.00    -0.265 OA
ENDROOT
BRANCH   2   4
ATOM      4  C   UNL d   1     -50.888  25.993  33.308  0.00  0.00     0.085 A 
ATOM      5  C   UNL d   1     -50.588  25.231  33.307  0.00  0.00     0.024 A 
ATOM      6  C   UNL d   1     -51.108  24.591  33.307  0.00  0.00     0.064 A 
ATOM      7  C   UNL d   1     -50.973  23.773  33.306  0.00  0.00     0.282 A 
ATOM      8  C   UNL d   1     -51.918  24.705  33.307  0.00  0.00     0.063 A 
ATOM      9  N   UNL d   1     -51.703  23.397  33.306  0.00  0.00    -0.169 NA
ATOM     10  O   UNL d   1     -50.248  23.387  33.306  0.00  0.00    -0.265 OA
ATOM     11  C   UNL d   1     -52.286  23.973  33.306  0.00  0.00     0.282 A 
ATOM     12  O   UNL d   1     -53.099  23.845  33.306  0.00  0.00    -0.265 OA
ATOM     13  C   UNL d   1     -52.219  25.473  33.307  0.00  0.00     0.006 A 
ATOM     14  C   UNL d   1     -51.707  26.119  33.308  0.00  0.00     0.019 A 
ENDBRANCH   2   4
BRANCH   1  15
ATOM     15  C   UNL d   1     -50.650  26.869  34.680  0.00  0.00     0.058 A 
ATOM     16  C   UNL d   1     -51.470  26.869  34.701  0.00  0.00     0.005 A 
ATOM     17  C   UNL d   1     -51.866  26.668  35.399  0.00  0.00     0.003 A 
ATOM     18  C   UNL d   1     -51.437  26.468  36.075  0.00  0.00     0.039 A 
ATOM     19  C   UNL d   1     -50.612  26.469  36.053  0.00  0.00     0.003 A 
ATOM     20  C   UNL d   1     -50.217  26.670  35.354  0.00  0.00     0.005 A 
BRANCH  18  21
ATOM     21  C   UNL d   1     -51.832  26.267  36.774  0.00  0.00     0.196 C 
ATOM     22  O   UNL d   1     -51.504  26.460  37.504  0.00  0.00    -0.287 OA
ATOM     23  C   UNL d   1     -52.556  25.872  36.736  0.00  0.00     0.045 C 
ENDBRANCH  18  21
ENDBRANCH   1  15
TORSDOF 3
ENDMDL
