MODEL 1
REMARK VINA RESULT:       1.7      0.000      0.000
REMARK  7 active torsions:
REMARK  status: ('A' for Active; 'I' for Inactive)
REMARK    1  A    between atoms: N_3  and  C_1 
REMARK       I    between atoms: C_8  and  N_3 
REMARK    2  A    between atoms: C_12  and  N_3 
REMARK    3  A    between atoms: S_5  and  C_11 
REMARK    4  A    between atoms: C_16  and  S_5 
REMARK    5  A    between atoms: C_9  and  C_8 
REMARK    6  A    between atoms: C_11  and  C_9 
REMARK    7  A    between atoms: C_21  and  C_12 
ROOT
ATOM      1  N   UNL d   1      32.703  19.398 -22.889  0.00  0.00    -0.253 N 
ATOM      2  C   UNL d   1      32.508  19.708 -22.135  0.00  0.00     0.267 C 
ATOM      3  O   UNL d   1      31.971  19.307 -21.659  0.00  0.00    -0.267 OA
ENDROOT
BRANCH   1   4
ATOM      4  C   UNL d   1      32.354  18.696 -23.143  0.00  0.00     0.182 A 
ATOM      5  N   UNL d   1      31.552  18.583 -23.326  0.00  0.00    -0.222 NA
ATOM      6  C   UNL d   1      31.439  17.792 -23.559  0.00  0.00     0.089 A 
ATOM      7  C   UNL d   1      30.778  17.388 -23.793  0.00  0.00     0.020 A 
ATOM      8  C   UNL d   1      32.176  17.420 -23.520  0.00  0.00     0.050 A 
ATOM      9  C   UNL d   1      30.836  16.607 -23.991  0.00  0.00     0.002 A 
ATOM     10  C   UNL d   1      30.159  16.190 -24.232  0.00  0.00     0.000 C 
ATOM     11  C   UNL d   1      31.565  16.226 -23.956  0.00  0.00     0.001 A 
ATOM     12  C   UNL d   1      32.235  16.630 -23.721  0.00  0.00     0.007 A 
ATOM     13  C   UNL d   1      32.967  16.261 -23.681  0.00  0.00     0.001 C 
ATOM     14  S   UNL d   1      32.736  17.970 -23.266  0.00  0.00    -0.048 SA
ENDBRANCH   1   4
BRANCH   1  15
ATOM     15  C   UNL d   1      33.240  19.794 -23.372  0.00  0.00     0.086 C 
BRANCH  15  16
ATOM     16  C   UNL d   1      32.968  20.322 -23.945  0.00  0.00     0.037 A 
ATOM     17  C   UNL d   1      33.226  21.103 -23.942  0.00  0.00     0.100 A 
ATOM     18  N   UNL d   1      32.954  21.631 -24.515  0.00  0.00    -0.242 NA
ATOM     19  C   UNL d   1      32.425  21.377 -25.091  0.00  0.00     0.099 A 
ATOM     20  C   UNL d   1      32.164  20.592 -25.097  0.00  0.00     0.021 A 
ATOM     21  C   UNL d   1      32.435  20.065 -24.523  0.00  0.00     0.005 A 
ENDBRANCH  15  16
ENDBRANCH   1  15
BRANCH   2  22
ATOM     22  C   UNL d   1      32.856  20.406 -21.884  0.00  0.00     0.073 C 
BRANCH  22  23
ATOM     23  C   UNL d   1      33.008  20.520 -21.077  0.00  0.00     0.104 C 
BRANCH  23  24
ATOM     24  S   UNL d   1      32.958  21.278 -20.750  0.00  0.00     0.211 S 
ATOM     25  O   UNL d   1      33.237  20.983 -20.016  0.00  0.00    -0.217 OA
ATOM     26  O   UNL d   1      32.681  21.572 -21.478  0.00  0.00    -0.217 OA
BRANCH  24  27
ATOM     27  C   UNL d   1      32.908  22.038 -20.419  0.00  0.00     0.088 A 
ATOM     28  C   UNL d   1      32.777  22.124 -19.609  0.00  0.00     0.011 A 
ATOM     29  C   UNL d   1      32.726  22.875 -19.276  0.00  0.00     0.001 A 
ATOM     30  C   UNL d   1      32.808  23.541 -19.754  0.00  0.00     0.000 A 
ATOM     31  C   UNL d   1      32.938  23.460 -20.555  0.00  0.00     0.001 A 
ATOM     32  C   UNL d   1      32.989  22.707 -20.896  0.00  0.00     0.011 A 
ENDBRANCH  24  27
ENDBRANCH  23  24
ENDBRANCH  22  23
ENDBRANCH   2  22
TORSDOF 7
ENDMDL
MODEL 2
REMARK VINA RESULT:       2.8      1.647      3.173
REMARK  7 active torsions:
REMARK  status: ('A' for Active; 'I' for Inactive)
REMARK    1  A    between atoms: N_3  and  C_1 
REMARK       I    between atoms: C_8  and  N_3 
REMARK    2  A    between atoms: C_12  and  N_3 
REMARK    3  A    between atoms: S_5  and  C_11 
REMARK    4  A    between atoms: C_16  and  S_5 
REMARK    5  A    between atoms: C_9  and  C_8 
REMARK    6  A    between atoms: C_11  and  C_9 
REMARK    7  A    between atoms: C_21  and  C_12 
ROOT
ATOM      1  N   UNL d   1      31.630  17.919 -23.897  0.00  0.00    -0.253 N 
ATOM      2  C   UNL d   1      31.830  18.400 -23.241  0.00  0.00     0.267 C 
ATOM      3  O   UNL d   1      31.246  18.614 -22.704  0.00  0.00    -0.267 OA
ENDROOT
BRANCH   1   4
ATOM      4  C   UNL d   1      30.851  17.667 -23.996  0.00  0.00     0.182 A 
ATOM      5  N   UNL d   1      30.536  16.937 -23.756  0.00  0.00    -0.222 NA
ATOM      6  C   UNL d   1      29.731  16.911 -23.963  0.00  0.00     0.089 A 
ATOM      7  C   UNL d   1      29.166  16.340 -23.862  0.00  0.00     0.020 A 
ATOM      8  C   UNL d   1      29.552  17.630 -24.331  0.00  0.00     0.050 A 
ATOM      9  C   UNL d   1      28.414  16.472 -24.124  0.00  0.00     0.002 A 
ATOM     10  C   UNL d   1      27.832  15.888 -24.022  0.00  0.00     0.000 C 
ATOM     11  C   UNL d   1      28.223  17.184 -24.492  0.00  0.00     0.001 A 
ATOM     12  C   UNL d   1      28.791  17.763 -24.596  0.00  0.00     0.007 A 
ATOM     13  C   UNL d   1      28.614  18.476 -24.960  0.00  0.00     0.001 C 
ATOM     14  S   UNL d   1      30.235  18.092 -24.352  0.00  0.00    -0.048 SA
ENDBRANCH   1   4
BRANCH   1  15
ATOM     15  C   UNL d   1      32.209  17.700 -24.440  0.00  0.00     0.086 C 
BRANCH  15  16
ATOM     16  C   UNL d   1      32.552  16.951 -24.398  0.00  0.00     0.037 A 
ATOM     17  C   UNL d   1      32.879  16.686 -23.691  0.00  0.00     0.100 A 
ATOM     18  N   UNL d   1      33.222  15.936 -23.649  0.00  0.00    -0.242 NA
ATOM     19  C   UNL d   1      33.238  15.453 -24.315  0.00  0.00     0.099 A 
ATOM     20  C   UNL d   1      32.910  15.717 -25.026  0.00  0.00     0.021 A 
ATOM     21  C   UNL d   1      32.567  16.466 -25.068  0.00  0.00     0.005 A 
ENDBRANCH  15  16
ENDBRANCH   1  15
BRANCH   2  22
ATOM     22  C   UNL d   1      32.605  18.649 -23.145  0.00  0.00     0.073 C 
BRANCH  22  23
ATOM     23  C   UNL d   1      32.819  19.416 -23.378  0.00  0.00     0.104 C 
BRANCH  23  24
ATOM     24  S   UNL d   1      32.924  20.006 -22.808  0.00  0.00     0.211 S 
ATOM     25  O   UNL d   1      32.758  20.594 -23.382  0.00  0.00    -0.217 OA
ATOM     26  O   UNL d   1      33.089  19.424 -22.236  0.00  0.00    -0.217 OA
BRANCH  24  27
ATOM     27  C   UNL d   1      33.028  20.601 -22.238  0.00  0.00     0.088 A 
ATOM     28  C   UNL d   1      33.118  21.386 -22.477  0.00  0.00     0.011 A 
ATOM     29  C   UNL d   1      33.222  21.979 -21.916  0.00  0.00     0.001 A 
ATOM     30  C   UNL d   1      33.235  21.787 -21.114  0.00  0.00     0.000 A 
ATOM     31  C   UNL d   1      33.146  21.013 -20.874  0.00  0.00     0.001 A 
ATOM     32  C   UNL d   1      33.042  20.411 -21.434  0.00  0.00     0.011 A 
ENDBRANCH  24  27
ENDBRANCH  23  24
ENDBRANCH  22  23
ENDBRANCH   2  22
TORSDOF 7
ENDMDL
MODEL 3
REMARK VINA RESULT:       4.5      1.043      1.572
REMARK  7 active torsions:
REMARK  status: ('A' for Active; 'I' for Inactive)
REMARK    1  A    between atoms: N_3  and  C_1 
REMARK       I    between atoms: C_8  and  N_3 
REMARK    2  A    between atoms: C_12  and  N_3 
REMARK    3  A    between atoms: S_5  and  C_11 
REMARK    4  A    between atoms: C_16  and  S_5 
REMARK    5  A    between atoms: C_9  and  C_8 
REMARK    6  A    between atoms: C_11  and  C_9 
REMARK    7  A    between atoms: C_21  and  C_12 
ROOT
ATOM      1  N   UNL d   1      32.799  20.575 -22.609  0.00  0.00    -0.253 N 
ATOM      2  C   UNL d   1      32.527  20.731 -21.831  0.00  0.00     0.267 C 
ATOM      3  O   UNL d   1      32.087  20.161 -21.435  0.00  0.00    -0.267 OA
ENDROOT
BRANCH   1   4
ATOM      4  C   UNL d   1      32.622  19.854 -22.966  0.00  0.00     0.182 A 
ATOM      5  N   UNL d   1      33.032  19.139 -22.860  0.00  0.00    -0.222 NA
ATOM      6  C   UNL d   1      32.669  18.551 -23.323  0.00  0.00     0.089 A 
ATOM      7  C   UNL d   1      32.838  17.766 -23.427  0.00  0.00     0.020 A 
ATOM      8  C   UNL d   1      32.034  18.907 -23.714  0.00  0.00     0.050 A 
ATOM      9  C   UNL d   1      32.379  17.321 -23.922  0.00  0.00     0.002 A 
ATOM     10  C   UNL d   1      32.550  16.516 -24.031  0.00  0.00     0.000 C 
ATOM     11  C   UNL d   1      31.744  17.665 -24.317  0.00  0.00     0.001 A 
ATOM     12  C   UNL d   1      31.570  18.457 -24.214  0.00  0.00     0.007 A 
ATOM     13  C   UNL d   1      30.940  18.812 -24.602  0.00  0.00     0.001 C 
ATOM     14  S   UNL d   1      32.004  19.703 -23.497  0.00  0.00    -0.048 SA
ENDBRANCH   1   4
BRANCH   1  15
ATOM     15  C   UNL d   1      33.241  21.141 -23.012  0.00  0.00     0.086 C 
BRANCH  15  16
ATOM     16  C   UNL d   1      32.892  21.586 -23.612  0.00  0.00     0.037 A 
ATOM     17  C   UNL d   1      33.040  21.403 -24.401  0.00  0.00     0.100 A 
ATOM     18  N   UNL d   1      32.691  21.848 -25.002  0.00  0.00    -0.242 NA
ATOM     19  C   UNL d   1      32.194  22.476 -24.814  0.00  0.00     0.099 A 
ATOM     20  C   UNL d   1      32.043  22.662 -24.022  0.00  0.00     0.021 A 
ATOM     21  C   UNL d   1      32.392  22.217 -23.422  0.00  0.00     0.005 A 
ENDBRANCH  15  16
ENDBRANCH   1  15
BRANCH   2  22
ATOM     22  C   UNL d   1      32.704  21.449 -21.478  0.00  0.00     0.073 C 
BRANCH  22  23
ATOM     23  C   UNL d   1      33.087  21.459 -20.743  0.00  0.00     0.104 C 
BRANCH  23  24
ATOM     24  S   UNL d   1      32.876  22.022 -20.175  0.00  0.00     0.211 S 
ATOM     25  O   UNL d   1      33.241  21.561 -19.578  0.00  0.00    -0.217 OA
ATOM     26  O   UNL d   1      32.513  22.482 -20.767  0.00  0.00    -0.217 OA
BRANCH  24  27
ATOM     27  C   UNL d   1      32.665  22.586 -19.603  0.00  0.00     0.088 A 
ATOM     28  C   UNL d   1      33.080  22.622 -18.891  0.00  0.00     0.011 A 
ATOM     29  C   UNL d   1      32.875  23.178 -18.320  0.00  0.00     0.001 A 
ATOM     30  C   UNL d   1      32.253  23.701 -18.463  0.00  0.00     0.000 A 
ATOM     31  C   UNL d   1      31.841  23.669 -19.166  0.00  0.00     0.001 A 
ATOM     32  C   UNL d   1      32.042  23.111 -19.743  0.00  0.00     0.011 A 
ENDBRANCH  24  27
ENDBRANCH  23  24
ENDBRANCH  22  23
ENDBRANCH   2  22
TORSDOF 7
ENDMDL
