MODEL 1
REMARK VINA RESULT:      61.5      0.000      0.000
REMARK  5 active torsions:
REMARK  status: ('A' for Active; 'I' for Inactive)
REMARK    1  A    between atoms: N_2  and  C_1 
REMARK       I    between atoms: C_7  and  N_2 
REMARK    2  A    between atoms: C_17  and  N_3 
REMARK    3  A    between atoms: C_14  and  C_7 
REMARK       I    between atoms: C_10  and  N_11 
REMARK    4  A    between atoms: N_11  and  C_12 
REMARK    5  A    between atoms: C_16  and  C_17 
ROOT
ATOM      1  C   UNL d   1     -54.765-101.676 -41.510  0.00  0.00     0.182 A 
ATOM      2  N   UNL d   1     -54.736-101.047 -40.982  0.00  0.00    -0.285 N 
ATOM      3  S   UNL d   1     -54.782-102.374 -41.072  0.00  0.00    -0.048 SA
ATOM      4  C   UNL d   1     -54.764-102.174 -40.268  0.00  0.00     0.050 A 
ATOM      5  C   UNL d   1     -54.736-101.351 -40.212  0.00  0.00     0.072 A 
ATOM      6  C   UNL d   1     -54.769-102.635 -39.585  0.00  0.00     0.027 A 
ATOM      7  C   UNL d   1     -54.713-100.987 -39.473  0.00  0.00     0.020 A 
ATOM      8  C   UNL d   1     -54.747-102.272 -38.844  0.00  0.00     0.085 A 
ATOM      9  C   UNL d   1     -54.718-101.448 -38.788  0.00  0.00     0.021 A 
ENDROOT
BRANCH   1  10
ATOM     10  N   UNL d   1     -54.775-101.610 -42.333  0.00  0.00    -0.184 NA
ATOM     11  C   UNL d   1     -54.986-100.893 -42.680  0.00  0.00     0.281 C 
ATOM     12  O   UNL d   1     -55.185-100.250 -42.205  0.00  0.00    -0.265 OA
BRANCH  11  13
ATOM     13  C   UNL d   1     -54.998-100.819 -43.503  0.00  0.00     0.058 A 
ATOM     14  C   UNL d   1     -54.820-101.471 -43.992  0.00  0.00     0.005 A 
ATOM     15  C   UNL d   1     -54.832-101.398 -44.815  0.00  0.00     0.000 A 
ATOM     16  C   UNL d   1     -55.023-100.670 -45.161  0.00  0.00     0.000 A 
ATOM     17  C   UNL d   1     -55.199-100.025 -44.678  0.00  0.00     0.000 A 
ATOM     18  C   UNL d   1     -55.187-100.099 -43.855  0.00  0.00     0.005 A 
ENDBRANCH  11  13
ENDBRANCH   1  10
BRANCH   2  19
ATOM     19  C   UNL d   1     -54.712-100.244 -41.178  0.00  0.00     0.082 C 
BRANCH  19  20
ATOM     20  C   UNL d   1     -55.276 -99.722 -40.878  0.00  0.00     0.019 C 
ATOM     21  C   UNL d   1     -55.159 -98.910 -40.935  0.00  0.00     0.002 C 
ENDBRANCH  19  20
ENDBRANCH   2  19
BRANCH   8  22
ATOM     22  N   UNL d   1     -54.752-102.737 -38.148  0.00  0.00    -0.208 NA
ATOM     23  C   UNL d   1     -55.031-102.418 -37.450  0.00  0.00     0.279 C 
ATOM     24  O   UNL d   1     -55.036-102.879 -36.766  0.00  0.00    -0.265 OA
ATOM     25  C   UNL d   1     -55.310-101.641 -37.419  0.00  0.00     0.068 C 
ENDBRANCH   8  22
TORSDOF 5
ENDMDL
