MODEL 1
REMARK VINA RESULT:      -3.4      0.000      0.000
REMARK  1 active torsions:
REMARK  status: ('A' for Active; 'I' for Inactive)
REMARK    1  A    between atoms: C_2  and  C_1 
REMARK       I    between atoms: N_6  and  C_2 
ROOT
ATOM      1  C   UNL d   1      30.830  16.528 -24.147  0.00  0.00     0.057 A 
ATOM      2  C   UNL d   1      30.459  16.031 -23.605  0.00  0.00     0.005 A 
ATOM      3  C   UNL d   1      29.632  16.062 -23.513  0.00  0.00     0.001 A 
ATOM      4  C   UNL d   1      30.383  17.056 -24.597  0.00  0.00     0.011 A 
ATOM      5  C   UNL d   1      29.191  16.589 -23.964  0.00  0.00     0.006 A 
ATOM      6  C   UNL d   1      29.559  17.086 -24.505  0.00  0.00     0.035 A 
ATOM      7 BR   UNL d   1      29.118  17.613 -24.956  0.00  0.00    -0.049 Br
ATOM      8  C   UNL d   1      30.711  15.453 -23.075  0.00  0.00     0.000 C 
ATOM      9  C   UNL d   1      29.464  15.499 -22.936  0.00  0.00     0.000 C 
ATOM     10  C   UNL d   1      28.368  16.621 -23.873  0.00  0.00     0.001 C 
ENDROOT
BRANCH   1  11
ATOM     11  C   UNL d   1      31.651  16.499 -24.240  0.00  0.00     0.265 C 
ATOM     12  N   UNL d   1      32.118  17.125 -23.974  0.00  0.00    -0.272 N 
ATOM     13  C   UNL d   1      31.849  17.810 -23.608  0.00  0.00     0.083 A 
ATOM     14  C   UNL d   1      32.941  17.172 -24.029  0.00  0.00     0.083 A 
ATOM     15  C   UNL d   1      32.500  18.283 -23.435  0.00  0.00     0.021 A 
ATOM     16  C   UNL d   1      33.176  17.889 -23.696  0.00  0.00     0.021 A 
ATOM     17  O   UNL d   1      32.001  15.846 -24.598  0.00  0.00    -0.267 OA
ENDBRANCH   1  11
TORSDOF 1
ENDMDL
MODEL 2
REMARK VINA RESULT:      -3.0      1.042      1.565
REMARK  1 active torsions:
REMARK  status: ('A' for Active; 'I' for Inactive)
REMARK    1  A    between atoms: C_2  and  C_1 
REMARK       I    between atoms: N_6  and  C_2 
ROOT
ATOM      1  C   UNL d   1      30.452  16.255 -24.108  0.00  0.00     0.057 A 
ATOM      2  C   UNL d   1      29.944  16.796 -24.464  0.00  0.00     0.005 A 
ATOM      3  C   UNL d   1      29.169  16.891 -24.173  0.00  0.00     0.001 A 
ATOM      4  C   UNL d   1      30.193  15.807 -23.465  0.00  0.00     0.011 A 
ATOM      5  C   UNL d   1      28.916  16.443 -23.532  0.00  0.00     0.006 A 
ATOM      6  C   UNL d   1      29.422  15.901 -23.176  0.00  0.00     0.035 A 
ATOM      7 BR   UNL d   1      29.169  15.453 -22.535  0.00  0.00    -0.049 Br
ATOM      8  C   UNL d   1      30.001  17.324 -25.094  0.00  0.00     0.000 C 
ATOM      9  C   UNL d   1      28.833  17.467 -24.656  0.00  0.00     0.000 C 
ATOM     10  C   UNL d   1      28.146  16.535 -23.243  0.00  0.00     0.001 C 
ENDROOT
BRANCH   1  11
ATOM     11  C   UNL d   1      31.221  16.159 -24.394  0.00  0.00     0.265 C 
ATOM     12  N   UNL d   1      31.859  16.474 -23.976  0.00  0.00    -0.272 N 
ATOM     13  C   UNL d   1      31.816  16.893 -23.270  0.00  0.00     0.083 A 
ATOM     14  C   UNL d   1      32.654  16.422 -24.194  0.00  0.00     0.083 A 
ATOM     15  C   UNL d   1      32.581  17.102 -23.048  0.00  0.00     0.021 A 
ATOM     16  C   UNL d   1      33.100  16.811 -23.620  0.00  0.00     0.021 A 
ATOM     17  O   UNL d   1      31.351  15.750 -25.097  0.00  0.00    -0.267 OA
ENDBRANCH   1  11
TORSDOF 1
ENDMDL
MODEL 3
REMARK VINA RESULT:      -2.9      1.566      3.346
REMARK  1 active torsions:
REMARK  status: ('A' for Active; 'I' for Inactive)
REMARK    1  A    between atoms: C_2  and  C_1 
REMARK       I    between atoms: N_6  and  C_2 
ROOT
ATOM      1  C   UNL d   1      30.872  16.434 -24.124  0.00  0.00     0.057 A 
ATOM      2  C   UNL d   1      31.138  17.209 -24.205  0.00  0.00     0.005 A 
ATOM      3  C   UNL d   1      31.924  17.400 -24.005  0.00  0.00     0.001 A 
ATOM      4  C   UNL d   1      31.383  15.849 -23.845  0.00  0.00     0.011 A 
ATOM      5  C   UNL d   1      32.429  16.814 -23.728  0.00  0.00     0.006 A 
ATOM      6  C   UNL d   1      32.164  16.039 -23.646  0.00  0.00     0.035 A 
ATOM      7 BR   UNL d   1      32.670  15.453 -23.368  0.00  0.00    -0.049 Br
ATOM      8  C   UNL d   1      30.804  17.919 -24.456  0.00  0.00     0.000 C 
ATOM      9  C   UNL d   1      31.988  18.207 -24.155  0.00  0.00     0.000 C 
ATOM     10  C   UNL d   1      33.210  17.002 -23.529  0.00  0.00     0.001 C 
ENDROOT
BRANCH   1  11
ATOM     11  C   UNL d   1      30.093  16.242 -24.321  0.00  0.00     0.265 C 
ATOM     12  N   UNL d   1      29.584  15.940 -23.746  0.00  0.00    -0.272 N 
ATOM     13  C   UNL d   1      29.772  15.801 -22.958  0.00  0.00     0.083 A 
ATOM     14  C   UNL d   1      28.795  15.725 -23.862  0.00  0.00     0.083 A 
ATOM     15  C   UNL d   1      29.103  15.500 -22.583  0.00  0.00     0.021 A 
ATOM     16  C   UNL d   1      28.498  15.453 -23.143  0.00  0.00     0.021 A 
ATOM     17  O   UNL d   1      29.825  16.352 -25.092  0.00  0.00    -0.267 OA
ENDBRANCH   1  11
TORSDOF 1
ENDMDL
MODEL 4
REMARK VINA RESULT:      -2.6      1.364      3.009
REMARK  1 active torsions:
REMARK  status: ('A' for Active; 'I' for Inactive)
REMARK    1  A    between atoms: C_2  and  C_1 
REMARK       I    between atoms: N_6  and  C_2 
ROOT
ATOM      1  C   UNL d   1      31.460  16.923 -24.462  0.00  0.00     0.057 A 
ATOM      2  C   UNL d   1      31.916  16.757 -23.797  0.00  0.00     0.005 A 
ATOM      3  C   UNL d   1      32.515  17.287 -23.562  0.00  0.00     0.001 A 
ATOM      4  C   UNL d   1      31.596  17.612 -24.895  0.00  0.00     0.011 A 
ATOM      5  C   UNL d   1      32.646  17.973 -23.997  0.00  0.00     0.006 A 
ATOM      6  C   UNL d   1      32.191  18.139 -24.662  0.00  0.00     0.035 A 
ATOM      7 BR   UNL d   1      32.322  18.825 -25.096  0.00  0.00    -0.049 Br
ATOM      8  C   UNL d   1      31.944  16.148 -23.243  0.00  0.00     0.000 C 
ATOM      9  C   UNL d   1      32.846  16.946 -22.890  0.00  0.00     0.000 C 
ATOM     10  C   UNL d   1      33.241  18.501 -23.766  0.00  0.00     0.001 C 
ENDROOT
BRANCH   1  11
ATOM     11  C   UNL d   1      30.866  16.398 -24.696  0.00  0.00     0.265 C 
ATOM     12  N   UNL d   1      30.073  16.614 -24.620  0.00  0.00    -0.272 N 
ATOM     13  C   UNL d   1      29.790  17.326 -24.324  0.00  0.00     0.083 A 
ATOM     14  C   UNL d   1      29.423  16.149 -24.830  0.00  0.00     0.083 A 
ATOM     15  C   UNL d   1      28.967  17.307 -24.348  0.00  0.00     0.021 A 
ATOM     16  C   UNL d   1      28.740  16.578 -24.661  0.00  0.00     0.021 A 
ATOM     17  O   UNL d   1      31.065  15.661 -25.004  0.00  0.00    -0.267 OA
ENDBRANCH   1  11
TORSDOF 1
ENDMDL
MODEL 5
REMARK VINA RESULT:      -2.1      1.687      3.668
REMARK  1 active torsions:
REMARK  status: ('A' for Active; 'I' for Inactive)
REMARK    1  A    between atoms: C_2  and  C_1 
REMARK       I    between atoms: N_6  and  C_2 
ROOT
ATOM      1  C   UNL d   1      32.814  18.225 -23.480  0.00  0.00     0.057 A 
ATOM      2  C   UNL d   1      32.939  18.704 -22.823  0.00  0.00     0.005 A 
ATOM      3  C   UNL d   1      33.083  19.518 -22.925  0.00  0.00     0.001 A 
ATOM      4  C   UNL d   1      32.830  18.551 -24.239  0.00  0.00     0.011 A 
ATOM      5  C   UNL d   1      33.098  19.839 -23.682  0.00  0.00     0.006 A 
ATOM      6  C   UNL d   1      32.973  19.361 -24.340  0.00  0.00     0.035 A 
ATOM      7 BR   UNL d   1      32.988  19.681 -25.097  0.00  0.00    -0.049 Br
ATOM      8  C   UNL d   1      32.964  18.585 -22.008  0.00  0.00     0.000 C 
ATOM      9  C   UNL d   1      33.181  19.811 -22.161  0.00  0.00     0.000 C 
ATOM     10  C   UNL d   1      33.241  20.648 -23.785  0.00  0.00     0.001 C 
ENDROOT
BRANCH   1  11
ATOM     11  C   UNL d   1      32.671  17.417 -23.382  0.00  0.00     0.265 C 
ATOM     12  N   UNL d   1      31.959  17.090 -23.641  0.00  0.00    -0.272 N 
ATOM     13  C   UNL d   1      31.344  17.494 -24.005  0.00  0.00     0.083 A 
ATOM     14  C   UNL d   1      31.741  16.295 -23.579  0.00  0.00     0.083 A 
ATOM     15  C   UNL d   1      30.743  16.955 -24.170  0.00  0.00     0.021 A 
ATOM     16  C   UNL d   1      30.989  16.213 -23.907  0.00  0.00     0.021 A 
ATOM     17  O   UNL d   1      33.239  16.940 -23.025  0.00  0.00    -0.267 OA
ENDBRANCH   1  11
TORSDOF 1
ENDMDL
MODEL 6
REMARK VINA RESULT:      -1.4      4.271      5.893
REMARK  1 active torsions:
REMARK  status: ('A' for Active; 'I' for Inactive)
REMARK    1  A    between atoms: C_2  and  C_1 
REMARK       I    between atoms: N_6  and  C_2 
ROOT
ATOM      1  C   UNL d   1      32.882  21.240 -21.425  0.00  0.00     0.057 A 
ATOM      2  C   UNL d   1      32.452  21.660 -20.863  0.00  0.00     0.005 A 
ATOM      3  C   UNL d   1      32.282  22.466 -20.987  0.00  0.00     0.001 A 
ATOM      4  C   UNL d   1      33.145  21.618 -22.110  0.00  0.00     0.011 A 
ATOM      5  C   UNL d   1      32.547  22.838 -21.671  0.00  0.00     0.006 A 
ATOM      6  C   UNL d   1      32.977  22.420 -22.233  0.00  0.00     0.035 A 
ATOM      7 BR   UNL d   1      33.241  22.792 -22.918  0.00  0.00    -0.049 Br
ATOM      8  C   UNL d   1      32.108  21.480 -20.136  0.00  0.00     0.000 C 
ATOM      9  C   UNL d   1      31.853  22.695 -20.323  0.00  0.00     0.000 C 
ATOM     10  C   UNL d   1      32.379  23.639 -21.796  0.00  0.00     0.001 C 
ENDROOT
BRANCH   1  11
ATOM     11  C   UNL d   1      33.051  20.441 -21.304  0.00  0.00     0.265 C 
ATOM     12  N   UNL d   1      33.070  19.921 -21.945  0.00  0.00    -0.272 N 
ATOM     13  C   UNL d   1      32.933  20.117 -22.731  0.00  0.00     0.083 A 
ATOM     14  C   UNL d   1      33.230  19.112 -21.908  0.00  0.00     0.083 A 
ATOM     15  C   UNL d   1      33.008  19.433 -23.184  0.00  0.00     0.021 A 
ATOM     16  C   UNL d   1      33.192  18.811 -22.674  0.00  0.00     0.021 A 
ATOM     17  O   UNL d   1      33.201  20.162 -20.544  0.00  0.00    -0.267 OA
ENDBRANCH   1  11
TORSDOF 1
ENDMDL
