MODEL 1
REMARK VINA RESULT:      54.3      0.000      0.000
REMARK  2 active torsions:
REMARK  status: ('A' for Active; 'I' for Inactive)
REMARK    1  A    between atoms: C_7  and  C_3 
REMARK    2  A    between atoms: N_9  and  C_8 
ROOT
ATOM      1  N   UNL d   1     -51.712  26.125  33.330  0.00  0.00    -0.227 NA
ATOM      2  N   UNL d   1     -50.489  25.405  33.341  0.00  0.00    -0.227 NA
ATOM      3  C   UNL d   1     -50.894  26.133  33.339  0.00  0.00     0.162 A 
ATOM      4  C   UNL d   1     -50.922  24.701  33.334  0.00  0.00     0.085 A 
ATOM      5  C   UNL d   1     -52.155  25.416  33.324  0.00  0.00     0.085 A 
ATOM      6  C   UNL d   1     -51.758  24.701  33.325  0.00  0.00     0.035 A 
ATOM      7  C   UNL d   1     -52.180  23.978  33.319  0.00  0.00     0.003 A 
ATOM      8  C   UNL d   1     -50.511  23.961  33.336  0.00  0.00     0.019 A 
ATOM      9  C   UNL d   1     -52.981  25.421  33.315  0.00  0.00     0.019 A 
ATOM     10  C   UNL d   1     -53.421  24.714  33.308  0.00  0.00     0.002 A 
ATOM     11  C   UNL d   1     -50.954  23.252  33.329  0.00  0.00     0.002 A 
ATOM     12  C   UNL d   1     -53.024  23.998  33.310  0.00  0.00     0.000 A 
ATOM     13  C   UNL d   1     -51.780  23.257  33.321  0.00  0.00     0.000 A 
ENDROOT
BRANCH   3  14
ATOM     14  C   UNL d   1     -50.501  26.848  33.345  0.00  0.00     0.036 A 
ATOM     15  C   UNL d   1     -50.923  27.555  33.308  0.00  0.00     0.004 A 
ATOM     16  C   UNL d   1     -50.531  28.278  33.314  0.00  0.00     0.018 A 
ATOM     17  C   UNL d   1     -49.718  28.304  33.357  0.00  0.00     0.064 A 
ATOM     18  C   UNL d   1     -49.286  27.599  33.395  0.00  0.00     0.018 A 
ATOM     19  C   UNL d   1     -49.682  26.883  33.389  0.00  0.00     0.004 A 
BRANCH  17  20
ATOM     20  N   UNL d   1     -49.326  29.028  33.364  0.00  0.00    -0.301 N 
ATOM     21  C   UNL d   1     -48.506  29.054  33.366  0.00  0.00     0.100 C 
ATOM     22  C   UNL d   1     -49.760  29.723  33.368  0.00  0.00     0.100 C 
ENDBRANCH  17  20
ENDBRANCH   3  14
TORSDOF 2
ENDMDL
