MODEL 1
REMARK VINA RESULT:      -3.4      0.000      0.000
REMARK  9 active torsions:
REMARK  status: ('A' for Active; 'I' for Inactive)
REMARK    1  A    between atoms: N_2  and  C_1 
REMARK    2  A    between atoms: N_3  and  C_5 
REMARK    3  A    between atoms: N_16  and  C_6 
REMARK    4  A    between atoms: C_11  and  C_18 
REMARK    5  A    between atoms: O_14  and  C_11 
REMARK    6  A    between atoms: C_17  and  O_14 
REMARK    7  A    between atoms: C_19  and  N_16 
REMARK    8  A    between atoms: C_18  and  C_20 
REMARK    9  A    between atoms: C_20  and  C_19 
ROOT
ATOM      1  C   UNL d   1      55.849  -0.934  33.044  0.00  0.00     0.146 A 
ATOM      2  C   UNL d   1      55.373  -0.648  33.654  0.00  0.00     0.049 A 
ATOM      3  C   UNL d   1      55.360   0.140  33.835  0.00  0.00     0.128 A 
ATOM      4  C   UNL d   1      56.313  -0.433  32.612  0.00  0.00     0.103 A 
ATOM      5  C   UNL d   1      55.840   0.682  33.395  0.00  0.00     0.025 A 
ATOM      6  C   UNL d   1      56.308   0.376  32.788  0.00  0.00     0.022 A 
ENDROOT
BRANCH   4   7
ATOM      7  N   UNL d   1      56.798  -0.724  31.990  0.00  0.00    -0.242 NA
BRANCH   7   8
ATOM      8  C   UNL d   1      57.265  -0.224  31.561  0.00  0.00     0.099 C 
BRANCH   8   9
ATOM      9  C   UNL d   1      57.616  -0.473  30.862  0.00  0.00     0.026 C 
BRANCH   9  10
ATOM     10  C   UNL d   1      58.260  -0.058  30.551  0.00  0.00     0.070 C 
BRANCH  10  11
ATOM     11  C   UNL d   1      58.601  -0.297  29.839  0.00  0.00     0.300 C 
ATOM     12  O   UNL d   1      58.127  -0.624  29.250  0.00  0.00    -0.259 OA
BRANCH  11  13
ATOM     13  O   UNL d   1      59.413  -0.205  29.725  0.00  0.00    -0.273 OA
BRANCH  13  14
ATOM     14  C   UNL d   1      59.778  -0.461  29.027  0.00  0.00     0.103 C 
ATOM     15  C   UNL d   1      59.986   0.105  28.463  0.00  0.00     0.027 C 
ATOM     16  C   UNL d   1      59.935  -1.261  28.892  0.00  0.00     0.027 C 
ENDBRANCH  13  14
ENDBRANCH  11  13
ENDBRANCH  10  11
ENDBRANCH   9  10
ENDBRANCH   8   9
ENDBRANCH   7   8
ENDBRANCH   4   7
BRANCH   1  17
ATOM     17  N   UNL d   1      55.855  -1.768  32.860  0.00  0.00    -0.112 N 
ATOM     18  O   UNL d   1      56.278  -2.304  33.349  0.00  0.00    -0.532 OA
ATOM     19  O   UNL d   1      55.445  -2.047  32.199  0.00  0.00    -0.532 OA
ENDBRANCH   1  17
BRANCH   3  20
ATOM     20  N   UNL d   1      54.881   0.408  34.445  0.00  0.00    -0.114 N 
ATOM     21  O   UNL d   1      55.167   0.424  35.211  0.00  0.00    -0.532 OA
ATOM     22  O   UNL d   1      54.114   0.656  34.266  0.00  0.00    -0.532 OA
ENDBRANCH   3  20
TORSDOF 9
ENDMDL
MODEL 2
REMARK VINA RESULT:      -2.9      2.066      5.668
REMARK  9 active torsions:
REMARK  status: ('A' for Active; 'I' for Inactive)
REMARK    1  A    between atoms: N_2  and  C_1 
REMARK    2  A    between atoms: N_3  and  C_5 
REMARK    3  A    between atoms: N_16  and  C_6 
REMARK    4  A    between atoms: C_11  and  C_18 
REMARK    5  A    between atoms: O_14  and  C_11 
REMARK    6  A    between atoms: C_17  and  O_14 
REMARK    7  A    between atoms: C_19  and  N_16 
REMARK    8  A    between atoms: C_18  and  C_20 
REMARK    9  A    between atoms: C_20  and  C_19 
ROOT
ATOM      1  C   UNL d   1      59.427  -0.591  29.317  0.00  0.00     0.146 A 
ATOM      2  C   UNL d   1      59.867  -1.191  28.960  0.00  0.00     0.049 A 
ATOM      3  C   UNL d   1      59.631  -1.962  29.008  0.00  0.00     0.128 A 
ATOM      4  C   UNL d   1      58.749  -0.761  29.723  0.00  0.00     0.103 A 
ATOM      5  C   UNL d   1      58.923  -2.162  29.428  0.00  0.00     0.025 A 
ATOM      6  C   UNL d   1      58.497  -1.548  29.778  0.00  0.00     0.022 A 
ENDROOT
BRANCH   4   7
ATOM      7  N   UNL d   1      58.300  -0.150  30.086  0.00  0.00    -0.242 NA
BRANCH   7   8
ATOM      8  C   UNL d   1      57.716  -0.325  30.616  0.00  0.00     0.099 C 
BRANCH   8   9
ATOM      9  C   UNL d   1      57.495   0.217  31.192  0.00  0.00     0.026 C 
BRANCH   9  10
ATOM     10  C   UNL d   1      56.732   0.196  31.509  0.00  0.00     0.070 C 
BRANCH  10  11
ATOM     11  C   UNL d   1      56.601   0.440  32.286  0.00  0.00     0.300 C 
ATOM     12  O   UNL d   1      57.240   0.529  32.798  0.00  0.00    -0.259 OA
BRANCH  11  13
ATOM     13  O   UNL d   1      55.831   0.592  32.541  0.00  0.00    -0.273 OA
BRANCH  13  14
ATOM     14  C   UNL d   1      55.517   0.210  33.205  0.00  0.00     0.103 C 
ATOM     15  C   UNL d   1      55.211   0.673  33.816  0.00  0.00     0.027 C 
ATOM     16  C   UNL d   1      55.507  -0.615  33.262  0.00  0.00     0.027 C 
ENDBRANCH  13  14
ENDBRANCH  11  13
ENDBRANCH  10  11
ENDBRANCH   9  10
ENDBRANCH   8   9
ENDBRANCH   7   8
ENDBRANCH   4   7
BRANCH   1  17
ATOM     17  N   UNL d   1      59.685   0.221  29.261  0.00  0.00    -0.112 N 
ATOM     18  O   UNL d   1      60.138   0.563  29.880  0.00  0.00    -0.532 OA
ATOM     19  O   UNL d   1      59.487   0.671  28.596  0.00  0.00    -0.532 OA
ENDBRANCH   1  17
BRANCH   3  20
ATOM     20  N   UNL d   1      60.080  -2.547  28.648  0.00  0.00    -0.114 N 
ATOM     21  O   UNL d   1      59.739  -3.264  28.455  0.00  0.00    -0.532 OA
ATOM     22  O   UNL d   1      60.875  -2.392  28.488  0.00  0.00    -0.532 OA
ENDBRANCH   3  20
TORSDOF 9
ENDMDL
MODEL 3
REMARK VINA RESULT:      -0.4      9.235      9.588
REMARK  9 active torsions:
REMARK  status: ('A' for Active; 'I' for Inactive)
REMARK    1  A    between atoms: N_2  and  C_1 
REMARK    2  A    between atoms: N_3  and  C_5 
REMARK    3  A    between atoms: N_16  and  C_6 
REMARK    4  A    between atoms: C_11  and  C_18 
REMARK    5  A    between atoms: O_14  and  C_11 
REMARK    6  A    between atoms: C_17  and  O_14 
REMARK    7  A    between atoms: C_19  and  N_16 
REMARK    8  A    between atoms: C_18  and  C_20 
REMARK    9  A    between atoms: C_20  and  C_19 
ROOT
ATOM      1  C   UNL d   1      59.969  -9.143  33.776  0.00  0.00     0.146 A 
ATOM      2  C   UNL d   1      60.201  -8.864  34.517  0.00  0.00     0.049 A 
ATOM      3  C   UNL d   1      59.686  -8.865  35.140  0.00  0.00     0.128 A 
ATOM      4  C   UNL d   1      59.221  -9.424  33.655  0.00  0.00     0.103 A 
ATOM      5  C   UNL d   1      58.896  -9.155  35.035  0.00  0.00     0.025 A 
ATOM      6  C   UNL d   1      58.684  -9.429  34.286  0.00  0.00     0.022 A 
ENDROOT
BRANCH   4   7
ATOM      7  N   UNL d   1      58.984  -9.707  32.901  0.00  0.00    -0.242 NA
BRANCH   7   8
ATOM      8  C   UNL d   1      58.253  -9.535  32.604  0.00  0.00     0.099 C 
BRANCH   8   9
ATOM      9  C   UNL d   1      58.020  -9.816  31.869  0.00  0.00     0.026 C 
BRANCH   9  10
ATOM     10  C   UNL d   1      57.535  -9.354  31.383  0.00  0.00     0.070 C 
BRANCH  10  11
ATOM     11  C   UNL d   1      57.321  -9.625  30.634  0.00  0.00     0.300 C 
ATOM     12  O   UNL d   1      56.525  -9.728  30.451  0.00  0.00    -0.259 OA
BRANCH  11  13
ATOM     13  O   UNL d   1      57.908  -9.791  30.079  0.00  0.00    -0.273 OA
BRANCH  13  14
ATOM     14  C   UNL d   1      57.805  -9.601  29.279  0.00  0.00     0.103 C 
ATOM     15  C   UNL d   1      57.054  -9.371  29.024  0.00  0.00     0.027 C 
ATOM     16  C   UNL d   1      58.434  -9.639  28.744  0.00  0.00     0.027 C 
ENDBRANCH  13  14
ENDBRANCH  11  13
ENDBRANCH  10  11
ENDBRANCH   9  10
ENDBRANCH   8   9
ENDBRANCH   7   8
ENDBRANCH   4   7
BRANCH   1  17
ATOM     17  N   UNL d   1      60.520  -9.138  33.124  0.00  0.00    -0.112 N 
ATOM     18  O   UNL d   1      60.619  -8.445  32.660  0.00  0.00    -0.532 OA
ATOM     19  O   UNL d   1      60.958  -9.818  32.950  0.00  0.00    -0.532 OA
ENDBRANCH   1  17
BRANCH   3  20
ATOM     20  N   UNL d   1      59.933  -8.584  35.871  0.00  0.00    -0.114 N 
ATOM     21  O   UNL d   1      59.607  -7.899  36.176  0.00  0.00    -0.532 OA
ATOM     22  O   UNL d   1      60.511  -9.006  36.282  0.00  0.00    -0.532 OA
ENDBRANCH   3  20
TORSDOF 9
ENDMDL
