MODEL 1
REMARK VINA RESULT:      69.3      0.000      0.000
REMARK  3 active torsions:
REMARK  status: ('A' for Active; 'I' for Inactive)
REMARK    1  A    between atoms: C_5  and  N_1 
REMARK    2  A    between atoms: C_13  and  C_3 
REMARK    3  A    between atoms: C_4  and  C_5 
ROOT
ATOM      1  N   UNL d   1      59.996  49.678  50.671  0.00  0.00    -0.286 N 
ATOM      2  N   UNL d   1      59.579  49.682  49.385  0.00  0.00    -0.224 NA
ATOM      3  C   UNL d   1      60.252  49.678  49.884  0.00  0.00     0.191 A 
ATOM      4  C   UNL d   1      59.162  49.682  50.672  0.00  0.00     0.083 A 
ATOM      5  C   UNL d   1      58.908  49.684  49.882  0.00  0.00     0.099 A 
ATOM      6  C   UNL d   1      58.594  49.683  51.283  0.00  0.00     0.019 A 
ATOM      7  C   UNL d   1      58.095  49.688  49.697  0.00  0.00     0.021 A 
ATOM      8  C   UNL d   1      57.789  49.687  51.104  0.00  0.00     0.002 A 
ATOM      9  C   UNL d   1      57.540  49.689  50.312  0.00  0.00     0.002 A 
ENDROOT
BRANCH   1  10
ATOM     10  C   UNL d   1      60.606  49.674  51.227  0.00  0.00     0.082 C 
BRANCH  10  11
ATOM     11  C   UNL d   1      60.823  48.972  51.592  0.00  0.00     0.018 A 
ATOM     12  C   UNL d   1      60.691  48.250  51.209  0.00  0.00     0.001 A 
ATOM     13  C   UNL d   1      60.908  47.547  51.573  0.00  0.00     0.000 A 
ATOM     14  C   UNL d   1      60.343  48.238  50.465  0.00  0.00     0.000 C 
ATOM     15  C   UNL d   1      60.776  46.826  51.191  0.00  0.00     0.000 C 
ATOM     16  C   UNL d   1      61.256  47.558  52.318  0.00  0.00     0.000 A 
ATOM     17  C   UNL d   1      61.387  48.281  52.699  0.00  0.00     0.000 A 
ATOM     18  C   UNL d   1      61.170  48.984  52.333  0.00  0.00     0.001 A 
ATOM     19  C   UNL d   1      61.734  48.309  53.443  0.00  0.00     0.000 C 
ATOM     20  C   UNL d   1      61.297  49.705  52.705  0.00  0.00     0.000 C 
ENDBRANCH  10  11
ENDBRANCH   1  10
BRANCH   3  21
ATOM     21  C   UNL d   1      61.035  49.675  49.630  0.00  0.00     0.271 C 
ATOM     22  O   UNL d   1      61.211  49.704  48.828  0.00  0.00    -0.280 OA
ENDBRANCH   3  21
TORSDOF 3
ENDMDL
