MODEL 1
REMARK VINA RESULT:      46.7      0.000      0.000
REMARK  6 active torsions:
REMARK  status: ('A' for Active; 'I' for Inactive)
REMARK    1  A    between atoms: C_2  and  S_1 
REMARK    2  A    between atoms: N_5  and  S_1 
REMARK    3  A    between atoms: C_14  and  N_5 
REMARK    4  A    between atoms: C_7  and  C_6 
REMARK    5  A    between atoms: C_19  and  C_14 
REMARK    6  A    between atoms: O_18  and  C_19 
ROOT
ATOM      1  C   UNL d   1      60.708  49.523  50.777  0.00  0.00     0.105 A 
ATOM      2  C   UNL d   1      59.141  49.586  50.228  0.00  0.00     0.000 A 
ATOM      3  C   UNL d   1      60.091  49.668  51.305  0.00  0.00     0.013 A 
ATOM      4  C   UNL d   1      60.546  49.409  49.976  0.00  0.00     0.013 A 
ATOM      5  C   UNL d   1      59.758  49.441  49.700  0.00  0.00     0.001 A 
ATOM      6  C   UNL d   1      59.302  49.700  51.028  0.00  0.00     0.001 A 
ENDROOT
BRANCH   1   7
ATOM      7  S   UNL d   1      61.488  49.492  51.046  0.00  0.00     0.285 S 
ATOM      8  O   UNL d   1      62.263  49.461  51.309  0.00  0.00    -0.198 OA
ATOM      9  O   UNL d   1      61.759  49.699  50.298  0.00  0.00    -0.198 OA
BRANCH   7  10
ATOM     10  N   UNL d   1      61.223  49.285  51.792  0.00  0.00    -0.155 NA
BRANCH  10  11
ATOM     11  C   UNL d   1      61.676  48.775  52.269  0.00  0.00     0.138 C 
BRANCH  11  12
ATOM     12  C   UNL d   1      61.365  48.052  52.499  0.00  0.00     0.138 C 
BRANCH  12  13
ATOM     13  O   UNL d   1      61.565  47.359  52.086  0.00  0.00    -0.325 OA
ATOM     14  C   UNL d   1      61.041  46.728  52.047  0.00  0.00     0.182 C 
ENDBRANCH  12  13
ENDBRANCH  11  12
ENDBRANCH  10  11
ENDBRANCH   7  10
ENDBRANCH   1   7
BRANCH   2  15
ATOM     15  C   UNL d   1      58.370  49.616  49.953  0.00  0.00     0.000 A 
ATOM     16  C   UNL d   1      57.745  49.667  50.490  0.00  0.00     0.000 A 
ATOM     17  C   UNL d   1      56.965  49.697  50.221  0.00  0.00     0.000 A 
ATOM     18  C   UNL d   1      56.814  49.677  49.398  0.00  0.00     0.000 A 
ATOM     19  C   UNL d   1      57.439  49.626  48.862  0.00  0.00     0.000 A 
ATOM     20  C   UNL d   1      56.035  49.707  49.125  0.00  0.00     0.000 C 
ATOM     21  C   UNL d   1      58.218  49.596  49.135  0.00  0.00     0.000 A 
ENDBRANCH   2  15
TORSDOF 6
ENDMDL
