MODEL 1
REMARK VINA RESULT:       7.0      0.000      0.000
REMARK  6 active torsions:
REMARK  status: ('A' for Active; 'I' for Inactive)
REMARK    1  A    between atoms: C_8  and  C_3 
REMARK    2  A    between atoms: C_6  and  O_10 
REMARK    3  A    between atoms: S_9  and  C_8 
REMARK    4  A    between atoms: C_16  and  S_9 
REMARK    5  A    between atoms: O_10  and  C_17 
REMARK    6  A    between atoms: C_17  and  C_16 
ROOT
ATOM      1  S   UNL d   1      45.840 -16.386  44.342  0.00  0.00    -0.081 SA
ENDROOT
BRANCH   1   2
ATOM      2  C   UNL d   1      46.236 -17.100  44.447  0.00  0.00     0.074 C 
BRANCH   2   3
ATOM      3  C   UNL d   1      46.340 -17.609  43.809  0.00  0.00     0.169 A 
ATOM      4  N   UNL d   1      46.450 -17.806  43.003  0.00  0.00    -0.225 NA
ATOM      5  C   UNL d   1      46.498 -18.641  42.946  0.00  0.00     0.101 A 
ATOM      6  C   UNL d   1      46.416 -18.948  43.716  0.00  0.00     0.101 A 
ATOM      7  C   UNL d   1      46.602 -19.164  42.310  0.00  0.00     0.021 A 
ATOM      8  N   UNL d   1      46.319 -18.318  44.254  0.00  0.00    -0.225 NA
ATOM      9  C   UNL d   1      46.441 -19.773  43.835  0.00  0.00     0.021 A 
ATOM     10  C   UNL d   1      46.545 -20.275  43.200  0.00  0.00     0.002 A 
ATOM     11  C   UNL d   1      46.625 -19.970  42.437  0.00  0.00     0.002 A 
ENDBRANCH   2   3
ENDBRANCH   1   2
BRANCH   1  12
ATOM     12  C   UNL d   1      45.848 -15.820  44.940  0.00  0.00     0.062 C 
BRANCH  12  13
ATOM     13  C   UNL d   1      45.798 -15.021  44.750  0.00  0.00     0.130 C 
BRANCH  13  14
ATOM     14  O   UNL d   1      45.136 -14.741  44.345  0.00  0.00    -0.305 OA
BRANCH  14  15
ATOM     15  C   UNL d   1      45.441 -13.976  44.400  0.00  0.00     0.100 A 
ATOM     16  C   UNL d   1      45.082 -13.362  44.000  0.00  0.00     0.023 A 
ATOM     17  C   UNL d   1      44.409 -13.509  43.536  0.00  0.00     0.002 C 
ATOM     18  C   UNL d   1      45.384 -12.596  44.053  0.00  0.00     0.002 A 
ATOM     19  C   UNL d   1      46.050 -12.451  44.511  0.00  0.00     0.000 A 
ATOM     20  C   UNL d   1      46.412 -13.076  44.916  0.00  0.00     0.002 A 
ATOM     21  C   UNL d   1      46.103 -13.839  44.858  0.00  0.00     0.025 A 
ENDBRANCH  14  15
ENDBRANCH  13  14
ENDBRANCH  12  13
ENDBRANCH   1  12
TORSDOF 6
ENDMDL
