MODEL 1
REMARK VINA RESULT:      -2.4      0.000      0.000
REMARK  4 active torsions:
REMARK  status: ('A' for Active; 'I' for Inactive)
REMARK    1  A    between atoms: S_6  and  C_2 
REMARK    2  A    between atoms: C_8  and  C_3 
REMARK    3  A    between atoms: C_10  and  S_6 
REMARK    4  A    between atoms: C_7  and  C_10 
ROOT
ATOM      1  N   UNL d   1      30.596  17.152 -24.335  0.00  0.00    -0.282 N 
ATOM      2  C   UNL d   1      30.193  16.504 -24.017  0.00  0.00     0.180 A 
ATOM      3  C   UNL d   1      31.375  17.116 -24.081  0.00  0.00     0.085 A 
ATOM      4  N   UNL d   1      30.730  16.064 -23.564  0.00  0.00    -0.219 NA
ATOM      5  C   UNL d   1      31.465  16.450 -23.607  0.00  0.00     0.119 A 
ATOM      6  C   UNL d   1      30.254  17.746 -24.834  0.00  0.00     0.101 C 
ENDROOT
BRANCH   3   7
ATOM      7  C   UNL d   1      31.991  17.637 -24.251  0.00  0.00     0.018 A 
ATOM      8  C   UNL d   1      32.147  18.258 -23.734  0.00  0.00     0.002 A 
ATOM      9  C   UNL d   1      32.765  18.784 -23.902  0.00  0.00     0.000 A 
ATOM     10  C   UNL d   1      33.221  18.673 -24.594  0.00  0.00     0.000 A 
ATOM     11  C   UNL d   1      33.059  18.058 -25.096  0.00  0.00     0.000 A 
ATOM     12  C   UNL d   1      32.440  17.530 -24.930  0.00  0.00     0.002 A 
ENDBRANCH   3   7
BRANCH   2  13
ATOM     13  S   UNL d   1      29.386  16.319 -24.130  0.00  0.00    -0.044 SA
BRANCH  13  14
ATOM     14  C   UNL d   1      28.929  16.061 -23.486  0.00  0.00     0.102 C 
BRANCH  14  15
ATOM     15  C   UNL d   1      28.111  16.031 -23.551  0.00  0.00     0.303 C 
ATOM     16  O   UNL d   1      27.650  16.585 -23.130  0.00  0.00    -0.263 OA
ATOM     17  N   UNL d   1      27.756  15.462 -24.025  0.00  0.00    -0.102 N 
ENDBRANCH  14  15
ENDBRANCH  13  14
ENDBRANCH   2  13
TORSDOF 4
ENDMDL
MODEL 2
REMARK VINA RESULT:      -2.4      2.062      4.007
REMARK  4 active torsions:
REMARK  status: ('A' for Active; 'I' for Inactive)
REMARK    1  A    between atoms: S_6  and  C_2 
REMARK    2  A    between atoms: C_8  and  C_3 
REMARK    3  A    between atoms: C_10  and  S_6 
REMARK    4  A    between atoms: C_7  and  C_10 
ROOT
ATOM      1  N   UNL d   1      30.762  17.285 -24.399  0.00  0.00    -0.282 N 
ATOM      2  C   UNL d   1      31.561  17.420 -24.238  0.00  0.00     0.180 A 
ATOM      3  C   UNL d   1      30.552  16.569 -24.057  0.00  0.00     0.085 A 
ATOM      4  N   UNL d   1      31.846  16.781 -23.792  0.00  0.00    -0.219 NA
ATOM      5  C   UNL d   1      31.213  16.254 -23.682  0.00  0.00     0.119 A 
ATOM      6  C   UNL d   1      30.256  17.801 -24.842  0.00  0.00     0.101 C 
ENDROOT
BRANCH   3   7
ATOM      7  C   UNL d   1      29.816  16.197 -24.066  0.00  0.00     0.018 A 
ATOM      8  C   UNL d   1      29.371  16.167 -23.374  0.00  0.00     0.002 A 
ATOM      9  C   UNL d   1      28.632  15.794 -23.379  0.00  0.00     0.000 A 
ATOM     10  C   UNL d   1      28.350  15.453 -24.089  0.00  0.00     0.000 A 
ATOM     11  C   UNL d   1      28.796  15.488 -24.764  0.00  0.00     0.000 A 
ATOM     12  C   UNL d   1      29.538  15.861 -24.762  0.00  0.00     0.002 A 
ENDBRANCH   3   7
BRANCH   2  13
ATOM     13  S   UNL d   1      32.010  18.083 -24.479  0.00  0.00    -0.044 SA
BRANCH  13  14
ATOM     14  C   UNL d   1      32.723  18.260 -24.091  0.00  0.00     0.102 C 
BRANCH  14  15
ATOM     15  C   UNL d   1      33.064  19.001 -24.181  0.00  0.00     0.303 C 
ATOM     16  O   UNL d   1      33.228  19.281 -24.951  0.00  0.00    -0.263 OA
ATOM     17  N   UNL d   1      33.240  19.458 -23.522  0.00  0.00    -0.102 N 
ENDBRANCH  14  15
ENDBRANCH  13  14
ENDBRANCH   2  13
TORSDOF 4
ENDMDL
MODEL 3
REMARK VINA RESULT:      -2.2      3.090      4.287
REMARK  4 active torsions:
REMARK  status: ('A' for Active; 'I' for Inactive)
REMARK    1  A    between atoms: S_6  and  C_2 
REMARK    2  A    between atoms: C_8  and  C_3 
REMARK    3  A    between atoms: C_10  and  S_6 
REMARK    4  A    between atoms: C_7  and  C_10 
ROOT
ATOM      1  N   UNL d   1      32.625  18.816 -23.310  0.00  0.00    -0.282 N 
ATOM      2  C   UNL d   1      32.900  19.189 -22.626  0.00  0.00     0.180 A 
ATOM      3  C   UNL d   1      32.788  18.014 -23.245  0.00  0.00     0.085 A 
ATOM      4  N   UNL d   1      33.236  18.612 -22.135  0.00  0.00    -0.219 NA
ATOM      5  C   UNL d   1      33.164  17.881 -22.525  0.00  0.00     0.119 A 
ATOM      6  C   UNL d   1      32.242  19.202 -23.960  0.00  0.00     0.101 C 
ENDROOT
BRANCH   3   7
ATOM      7  C   UNL d   1      32.621  17.414 -23.786  0.00  0.00     0.018 A 
ATOM      8  C   UNL d   1      33.215  17.147 -24.288  0.00  0.00     0.002 A 
ATOM      9  C   UNL d   1      33.050  16.545 -24.832  0.00  0.00     0.000 A 
ATOM     10  C   UNL d   1      32.281  16.218 -24.861  0.00  0.00     0.000 A 
ATOM     11  C   UNL d   1      31.703  16.488 -24.362  0.00  0.00     0.000 A 
ATOM     12  C   UNL d   1      31.866  17.092 -23.815  0.00  0.00     0.002 A 
ENDBRANCH   3   7
BRANCH   2  13
ATOM     13  S   UNL d   1      32.851  20.005 -22.453  0.00  0.00    -0.044 SA
BRANCH  13  14
ATOM     14  C   UNL d   1      32.927  20.264 -21.667  0.00  0.00     0.102 C 
BRANCH  14  15
ATOM     15  C   UNL d   1      32.717  21.033 -21.469  0.00  0.00     0.303 C 
ATOM     16  O   UNL d   1      31.967  21.174 -21.130  0.00  0.00    -0.263 OA
ATOM     17  N   UNL d   1      33.241  21.651 -21.604  0.00  0.00    -0.102 N 
ENDBRANCH  14  15
ENDBRANCH  13  14
ENDBRANCH   2  13
TORSDOF 4
ENDMDL
MODEL 4
REMARK VINA RESULT:      -1.5      2.839      3.825
REMARK  4 active torsions:
REMARK  status: ('A' for Active; 'I' for Inactive)
REMARK    1  A    between atoms: S_6  and  C_2 
REMARK    2  A    between atoms: C_8  and  C_3 
REMARK    3  A    between atoms: C_10  and  S_6 
REMARK    4  A    between atoms: C_7  and  C_10 
ROOT
ATOM      1  N   UNL d   1      32.817  19.091 -23.223  0.00  0.00    -0.282 N 
ATOM      2  C   UNL d   1      32.911  18.270 -23.230  0.00  0.00     0.180 A 
ATOM      3  C   UNL d   1      33.018  19.363 -22.475  0.00  0.00     0.085 A 
ATOM      4  N   UNL d   1      33.174  18.034 -22.480  0.00  0.00    -0.219 NA
ATOM      5  C   UNL d   1      33.238  18.719 -22.013  0.00  0.00     0.119 A 
ATOM      6  C   UNL d   1      32.556  19.561 -23.878  0.00  0.00     0.101 C 
ENDROOT
BRANCH   3   7
ATOM      7  C   UNL d   1      33.013  20.139 -22.197  0.00  0.00     0.018 A 
ATOM      8  C   UNL d   1      32.780  20.288 -21.422  0.00  0.00     0.002 A 
ATOM      9  C   UNL d   1      32.774  21.066 -21.139  0.00  0.00     0.000 A 
ATOM     10  C   UNL d   1      33.005  21.689 -21.647  0.00  0.00     0.000 A 
ATOM     11  C   UNL d   1      33.233  21.531 -22.409  0.00  0.00     0.000 A 
ATOM     12  C   UNL d   1      33.240  20.751 -22.695  0.00  0.00     0.002 A 
ENDBRANCH   3   7
BRANCH   2  13
ATOM     13  S   UNL d   1      32.770  17.761 -23.877  0.00  0.00    -0.044 SA
BRANCH  13  14
ATOM     14  C   UNL d   1      32.815  16.938 -23.771  0.00  0.00     0.102 C 
BRANCH  14  15
ATOM     15  C   UNL d   1      32.555  16.435 -24.365  0.00  0.00     0.303 C 
ATOM     16  O   UNL d   1      31.823  16.043 -24.275  0.00  0.00    -0.263 OA
ATOM     17  N   UNL d   1      33.013  16.320 -25.038  0.00  0.00    -0.102 N 
ENDBRANCH  14  15
ENDBRANCH  13  14
ENDBRANCH   2  13
TORSDOF 4
ENDMDL
MODEL 5
REMARK VINA RESULT:      -0.8      5.328      6.573
REMARK  4 active torsions:
REMARK  status: ('A' for Active; 'I' for Inactive)
REMARK    1  A    between atoms: S_6  and  C_2 
REMARK    2  A    between atoms: C_8  and  C_3 
REMARK    3  A    between atoms: C_10  and  S_6 
REMARK    4  A    between atoms: C_7  and  C_10 
ROOT
ATOM      1  N   UNL d   1      32.460  21.440 -20.642  0.00  0.00    -0.282 N 
ATOM      2  C   UNL d   1      32.738  21.181 -21.376  0.00  0.00     0.180 A 
ATOM      3  C   UNL d   1      32.770  22.186 -20.501  0.00  0.00     0.085 A 
ATOM      4  N   UNL d   1      33.223  21.774 -21.691  0.00  0.00    -0.219 NA
ATOM      5  C   UNL d   1      33.240  22.399 -21.143  0.00  0.00     0.119 A 
ATOM      6  C   UNL d   1      31.945  21.002 -20.129  0.00  0.00     0.101 C 
ENDROOT
BRANCH   3   7
ATOM      7  C   UNL d   1      32.655  22.672 -19.845  0.00  0.00     0.018 A 
ATOM      8  C   UNL d   1      31.951  23.093 -19.774  0.00  0.00     0.002 A 
ATOM      9  C   UNL d   1      31.832  23.581 -19.116  0.00  0.00     0.000 A 
ATOM     10  C   UNL d   1      32.430  23.638 -18.534  0.00  0.00     0.000 A 
ATOM     11  C   UNL d   1      33.119  23.219 -18.614  0.00  0.00     0.000 A 
ATOM     12  C   UNL d   1      33.241  22.728 -19.273  0.00  0.00     0.002 A 
ENDBRANCH   3   7
BRANCH   2  13
ATOM     13  S   UNL d   1      32.563  20.450 -21.742  0.00  0.00    -0.044 SA
BRANCH  13  14
ATOM     14  C   UNL d   1      33.163  20.036 -22.140  0.00  0.00     0.102 C 
BRANCH  14  15
ATOM     15  C   UNL d   1      32.971  19.387 -22.606  0.00  0.00     0.303 C 
ATOM     16  O   UNL d   1      32.915  18.634 -22.250  0.00  0.00    -0.263 OA
ATOM     17  N   UNL d   1      32.837  19.483 -23.411  0.00  0.00    -0.102 N 
ENDBRANCH  14  15
ENDBRANCH  13  14
ENDBRANCH   2  13
TORSDOF 4
ENDMDL
MODEL 6
REMARK VINA RESULT:       0.3      6.938      8.042
REMARK  4 active torsions:
REMARK  status: ('A' for Active; 'I' for Inactive)
REMARK    1  A    between atoms: S_6  and  C_2 
REMARK    2  A    between atoms: C_8  and  C_3 
REMARK    3  A    between atoms: C_10  and  S_6 
REMARK    4  A    between atoms: C_7  and  C_10 
ROOT
ATOM      1  N   UNL d   1      32.534  22.539 -19.563  0.00  0.00    -0.282 N 
ATOM      2  C   UNL d   1      32.710  23.088 -18.972  0.00  0.00     0.180 A 
ATOM      3  C   UNL d   1      32.860  22.808 -20.266  0.00  0.00     0.085 A 
ATOM      4  N   UNL d   1      33.150  23.702 -19.314  0.00  0.00    -0.219 NA
ATOM      5  C   UNL d   1      33.241  23.523 -20.120  0.00  0.00     0.119 A 
ATOM      6  C   UNL d   1      32.091  21.823 -19.453  0.00  0.00     0.101 C 
ENDROOT
BRANCH   3   7
ATOM      7  C   UNL d   1      32.834  22.453 -21.010  0.00  0.00     0.018 A 
ATOM      8  C   UNL d   1      32.570  22.889 -21.655  0.00  0.00     0.002 A 
ATOM      9  C   UNL d   1      32.542  22.536 -22.404  0.00  0.00     0.000 A 
ATOM     10  C   UNL d   1      32.783  21.740 -22.490  0.00  0.00     0.000 A 
ATOM     11  C   UNL d   1      33.041  21.319 -21.848  0.00  0.00     0.000 A 
ATOM     12  C   UNL d   1      33.070  21.671 -21.096  0.00  0.00     0.002 A 
ENDBRANCH   3   7
BRANCH   2  13
ATOM     13  S   UNL d   1      32.487  23.039 -18.168  0.00  0.00    -0.044 SA
BRANCH  13  14
ATOM     14  C   UNL d   1      32.904  23.478 -17.598  0.00  0.00     0.102 C 
BRANCH  14  15
ATOM     15  C   UNL d   1      32.658  23.468 -16.815  0.00  0.00     0.303 C 
ATOM     16  O   UNL d   1      33.230  23.524 -16.209  0.00  0.00    -0.263 OA
ATOM     17  N   UNL d   1      31.859  23.404 -16.634  0.00  0.00    -0.102 N 
ENDBRANCH  14  15
ENDBRANCH  13  14
ENDBRANCH   2  13
TORSDOF 4
ENDMDL
