MODEL 1
REMARK VINA RESULT:      37.9      0.000      0.000
REMARK  4 active torsions:
REMARK  status: ('A' for Active; 'I' for Inactive)
REMARK    1  A    between atoms: C_2  and  S_1 
REMARK    2  A    between atoms: C_4  and  S_1 
REMARK    3  A    between atoms: C_3  and  C_2 
REMARK    4  A    between atoms: C_8  and  C_3 
ROOT
ATOM      1  S   UNL d   1      14.645  15.309  -1.172  0.00  0.00     0.214 S 
ATOM      2  O   UNL d   1      15.001  15.792  -0.606  0.00  0.00    -0.217 OA
ATOM      3  O   UNL d   1      14.295  14.831  -1.721  0.00  0.00    -0.217 OA
ENDROOT
BRANCH   1   4
ATOM      4  C   UNL d   1      14.472  14.776  -0.580  0.00  0.00     0.141 C 
BRANCH   4   5
ATOM      5  C   UNL d   1      15.039  14.246  -0.335  0.00  0.00     0.207 C 
ATOM      6  O   UNL d   1      15.717  14.553  -0.039  0.00  0.00    -0.286 OA
BRANCH   5   7
ATOM      7  C   UNL d   1      14.914  13.431  -0.392  0.00  0.00     0.040 A 
ATOM      8  C   UNL d   1      14.203  13.111  -0.122  0.00  0.00     0.003 A 
ATOM      9  C   UNL d   1      14.078  12.297  -0.178  0.00  0.00     0.000 A 
ATOM     10  C   UNL d   1      14.632  11.795  -0.492  0.00  0.00     0.000 A 
ATOM     11  C   UNL d   1      15.338  12.116  -0.759  0.00  0.00     0.000 A 
ATOM     12  C   UNL d   1      15.463  12.930  -0.703  0.00  0.00     0.003 A 
ENDBRANCH   5   7
ENDBRANCH   4   5
ENDBRANCH   1   4
BRANCH   1  13
ATOM     13  C   UNL d   1      14.824  15.848  -1.746  0.00  0.00     0.088 A 
ATOM     14  C   UNL d   1      14.685  15.663  -2.534  0.00  0.00     0.011 A 
ATOM     15  C   UNL d   1      14.857  16.193  -3.146  0.00  0.00     0.001 A 
ATOM     16  C   UNL d   1      15.186  16.942  -2.928  0.00  0.00     0.000 A 
ATOM     17  C   UNL d   1      15.318  17.114  -2.157  0.00  0.00     0.001 A 
ATOM     18  C   UNL d   1      15.376  17.512  -3.517  0.00  0.00     0.000 C 
ATOM     19  C   UNL d   1      15.140  16.573  -1.558  0.00  0.00     0.011 A 
ENDBRANCH   1  13
TORSDOF 4
ENDMDL
MODEL 2
REMARK VINA RESULT:      40.2      2.619      4.123
REMARK  4 active torsions:
REMARK  status: ('A' for Active; 'I' for Inactive)
REMARK    1  A    between atoms: C_2  and  S_1 
REMARK    2  A    between atoms: C_4  and  S_1 
REMARK    3  A    between atoms: C_3  and  C_2 
REMARK    4  A    between atoms: C_8  and  C_3 
ROOT
ATOM      1  S   UNL d   1      13.493  14.388  -3.484  0.00  0.00     0.214 S 
ATOM      2  O   UNL d   1      12.796  14.749  -3.737  0.00  0.00    -0.217 OA
ATOM      3  O   UNL d   1      14.176  14.040  -3.231  0.00  0.00    -0.217 OA
ENDROOT
BRANCH   1   4
ATOM      4  C   UNL d   1      13.635  15.037  -3.012  0.00  0.00     0.141 C 
BRANCH   4   5
ATOM      5  C   UNL d   1      14.339  15.439  -3.078  0.00  0.00     0.207 C 
ATOM      6  O   UNL d   1      14.689  15.437  -3.799  0.00  0.00    -0.286 OA
BRANCH   5   7
ATOM      7  C   UNL d   1      14.671  15.828  -2.431  0.00  0.00     0.040 A 
ATOM      8  C   UNL d   1      14.918  16.612  -2.511  0.00  0.00     0.003 A 
ATOM      9  C   UNL d   1      15.250  17.002  -1.865  0.00  0.00     0.000 A 
ATOM     10  C   UNL d   1      15.345  16.640  -1.144  0.00  0.00     0.000 A 
ATOM     11  C   UNL d   1      15.099  15.862  -1.067  0.00  0.00     0.000 A 
ATOM     12  C   UNL d   1      14.767  15.472  -1.714  0.00  0.00     0.003 A 
ENDBRANCH   5   7
ENDBRANCH   4   5
ENDBRANCH   1   4
BRANCH   1  13
ATOM     13  C   UNL d   1      13.337  13.752  -3.957  0.00  0.00     0.088 A 
ATOM     14  C   UNL d   1      13.197  13.018  -3.617  0.00  0.00     0.011 A 
ATOM     15  C   UNL d   1      13.034  12.347  -4.074  0.00  0.00     0.001 A 
ATOM     16  C   UNL d   1      13.017  12.446  -4.915  0.00  0.00     0.000 A 
ATOM     17  C   UNL d   1      13.155  13.166  -5.237  0.00  0.00     0.001 A 
ATOM     18  C   UNL d   1      12.856  11.792  -5.418  0.00  0.00     0.000 C 
ATOM     19  C   UNL d   1      13.316  13.827  -4.767  0.00  0.00     0.011 A 
ENDBRANCH   1  13
TORSDOF 4
ENDMDL
