MODEL 1
REMARK VINA RESULT:      -8.7      0.000      0.000
REMARK  5 active torsions:
REMARK  status: ('A' for Active; 'I' for Inactive)
REMARK    1  A    between atoms: C_7  and  C_1 
REMARK    2  A    between atoms: C_9  and  C_17 
REMARK       I    between atoms: N_11  and  C_9 
REMARK    3  A    between atoms: S_12  and  C_10 
REMARK    4  A    between atoms: C_13  and  N_11 
REMARK    5  A    between atoms: C_17  and  S_12 
ROOT
ATOM      1  N   UNL d   1      51.656  33.188  53.753  0.00  0.00    -0.147 NA
ATOM      2  C   UNL d   1      52.358  33.576  53.522  0.00  0.00     0.111 A 
ATOM      3  N   UNL d   1      50.934  33.454  53.466  0.00  0.00    -0.141 NA
ATOM      4  C   UNL d   1      50.906  34.102  52.952  0.00  0.00     0.133 A 
ATOM      5  C   UNL d   1      52.322  34.210  53.018  0.00  0.00     0.024 A 
ATOM      6  C   UNL d   1      51.608  34.474  52.733  0.00  0.00     0.029 A 
ENDROOT
BRANCH   4   7
ATOM      7  S   UNL d   1      50.180  34.368  52.665  0.00  0.00    -0.061 SA
BRANCH   7   8
ATOM      8  C   UNL d   1      49.801  35.013  53.022  0.00  0.00     0.099 C 
BRANCH   8   9
ATOM      9  C   UNL d   1      49.040  35.208  52.803  0.00  0.00     0.286 C 
ATOM     10  N   UNL d   1      48.629  35.803  53.200  0.00  0.00    -0.208 NA
ATOM     11  O   UNL d   1      48.666  34.809  52.173  0.00  0.00    -0.265 OA
BRANCH  10  12
ATOM     12  C   UNL d   1      47.858  36.004  52.980  0.00  0.00     0.086 A 
ATOM     13  C   UNL d   1      47.239  35.898  53.516  0.00  0.00     0.031 A 
ATOM     14  C   UNL d   1      46.463  36.098  53.299  0.00  0.00     0.059 A 
ATOM     15 CL   UNL d   1      45.840  35.992  53.837  0.00  0.00    -0.082 Cl
ATOM     16  C   UNL d   1      46.321  36.404  52.542  0.00  0.00     0.011 A 
ATOM     17  C   UNL d   1      46.942  36.508  52.011  0.00  0.00     0.002 A 
ATOM     18  C   UNL d   1      47.711  36.309  52.226  0.00  0.00     0.019 A 
ENDBRANCH  10  12
ENDBRANCH   8   9
ENDBRANCH   7   8
ENDBRANCH   4   7
BRANCH   2  19
ATOM     19  C   UNL d   1      53.084  33.304  53.814  0.00  0.00     0.068 A 
ATOM     20  C   UNL d   1      53.470  32.610  53.566  0.00  0.00     0.089 A 
ATOM     21  N   UNL d   1      54.178  32.554  54.004  0.00  0.00    -0.238 NA
ATOM     22  C   UNL d   1      53.204  32.086  53.002  0.00  0.00     0.021 C 
ATOM     23  C   UNL d   1      54.219  33.204  54.508  0.00  0.00     0.111 A 
ATOM     24  S   UNL d   1      53.544  33.665  54.389  0.00  0.00    -0.065 SA
ATOM     25  C   UNL d   1      54.836  33.361  55.041  0.00  0.00     0.028 C 
ENDBRANCH   2  19
TORSDOF 5
ENDMDL
MODEL 2
REMARK VINA RESULT:      -7.7      2.281      6.222
REMARK  5 active torsions:
REMARK  status: ('A' for Active; 'I' for Inactive)
REMARK    1  A    between atoms: C_7  and  C_1 
REMARK    2  A    between atoms: C_9  and  C_17 
REMARK       I    between atoms: N_11  and  C_9 
REMARK    3  A    between atoms: S_12  and  C_10 
REMARK    4  A    between atoms: C_13  and  N_11 
REMARK    5  A    between atoms: C_17  and  S_12 
ROOT
ATOM      1  N   UNL d   1      48.936  35.267  53.040  0.00  0.00    -0.147 NA
ATOM      2  C   UNL d   1      48.545  35.266  52.303  0.00  0.00     0.111 A 
ATOM      3  N   UNL d   1      49.673  34.910  53.107  0.00  0.00    -0.141 NA
ATOM      4  C   UNL d   1      50.022  34.554  52.447  0.00  0.00     0.133 A 
ATOM      5  C   UNL d   1      48.894  34.915  51.660  0.00  0.00     0.024 A 
ATOM      6  C   UNL d   1      49.623  34.562  51.725  0.00  0.00     0.029 A 
ENDROOT
BRANCH   4   7
ATOM      7  S   UNL d   1      50.762  34.196  52.515  0.00  0.00    -0.061 SA
BRANCH   7   8
ATOM      8  C   UNL d   1      51.128  34.132  53.256  0.00  0.00     0.099 C 
BRANCH   8   9
ATOM      9  C   UNL d   1      51.907  33.895  53.304  0.00  0.00     0.286 C 
ATOM     10  N   UNL d   1      52.164  33.427  53.933  0.00  0.00    -0.208 NA
ATOM     11  O   UNL d   1      52.455  34.123  52.719  0.00  0.00    -0.265 OA
BRANCH  10  12
ATOM     12  C   UNL d   1      52.953  33.185  53.986  0.00  0.00     0.086 A 
ATOM     13  C   UNL d   1      53.457  33.549  54.528  0.00  0.00     0.031 A 
ATOM     14  C   UNL d   1      54.250  33.309  54.584  0.00  0.00     0.059 A 
ATOM     15 CL   UNL d   1      54.759  33.675  55.129  0.00  0.00    -0.082 Cl
ATOM     16  C   UNL d   1      54.524  32.703  54.090  0.00  0.00     0.011 A 
ATOM     17  C   UNL d   1      54.017  32.342  53.551  0.00  0.00     0.002 A 
ATOM     18  C   UNL d   1      53.231  32.580  53.495  0.00  0.00     0.019 A 
ENDBRANCH  10  12
ENDBRANCH   8   9
ENDBRANCH   7   8
ENDBRANCH   4   7
BRANCH   2  19
ATOM     19  C   UNL d   1      47.802  35.628  52.240  0.00  0.00     0.068 A 
ATOM     20  C   UNL d   1      47.526  36.243  52.728  0.00  0.00     0.089 A 
ATOM     21  N   UNL d   1      46.757  36.434  52.469  0.00  0.00    -0.238 NA
ATOM     22  C   UNL d   1      47.933  36.590  53.343  0.00  0.00     0.021 C 
ATOM     23  C   UNL d   1      46.571  35.942  51.834  0.00  0.00     0.111 A 
ATOM     24  S   UNL d   1      47.217  35.447  51.696  0.00  0.00    -0.065 SA
ATOM     25  C   UNL d   1      45.856  35.951  51.414  0.00  0.00     0.028 C 
ENDBRANCH   2  19
TORSDOF 5
ENDMDL
