MODEL 1
REMARK VINA RESULT:      -8.2      0.000      0.000
REMARK  3 active torsions:
REMARK  status: ('A' for Active; 'I' for Inactive)
REMARK    1  A    between atoms: C_8  and  C_1 
REMARK    2  A    between atoms: C_3  and  N_14 
REMARK       I    between atoms: N_13  and  C_8 
REMARK    3  A    between atoms: N_14  and  N_13 
ROOT
ATOM      1  C   UNL d   1     -50.017  11.729  23.492  0.00  0.00     0.320 C 
ATOM      2  N   UNL d   1     -49.207  11.646  23.569  0.00  0.00    -0.102 NA
ATOM      3  O   UNL d   1     -50.663  11.242  23.698  0.00  0.00    -0.261 OA
ENDROOT
BRANCH   1   4
ATOM      4  C   UNL d   1     -50.252  12.433  23.141  0.00  0.00     0.162 A 
ATOM      5  C   UNL d   1     -50.377  12.459  22.332  0.00  0.00     0.072 A 
ATOM      6  C   UNL d   1     -50.612  13.164  21.973  0.00  0.00     0.200 A 
ATOM      7  O   UNL d   1     -50.741  13.190  21.144  0.00  0.00    -0.286 OA
ATOM      8  C   UNL d   1     -50.722  13.846  22.431  0.00  0.00     0.062 A 
ATOM      9  C   UNL d   1     -50.596  13.816  23.239  0.00  0.00     0.103 A 
ATOM     10  C   UNL d   1     -50.958  14.551  22.072  0.00  0.00     0.005 A 
ATOM     11  O   UNL d   1     -50.361  13.111  23.590  0.00  0.00    -0.302 OA
ATOM     12  C   UNL d   1     -50.702  14.487  23.697  0.00  0.00     0.025 A 
ATOM     13  C   UNL d   1     -50.938  15.195  23.345  0.00  0.00     0.002 A 
ATOM     14  C   UNL d   1     -51.064  15.221  22.528  0.00  0.00     0.000 A 
ENDBRANCH   1   4
BRANCH   2  15
ATOM     15  N   UNL d   1     -48.712  12.243  23.302  0.00  0.00    -0.118 NA
BRANCH  15  16
ATOM     16  C   UNL d   1     -47.888  12.126  23.276  0.00  0.00     0.215 A 
ATOM     17  N   UNL d   1     -47.341  12.615  22.909  0.00  0.00    -0.219 NA
ATOM     18  C   UNL d   1     -46.590  12.301  23.014  0.00  0.00     0.090 A 
ATOM     19  C   UNL d   1     -45.844  12.546  22.774  0.00  0.00     0.018 A 
ATOM     20  C   UNL d   1     -46.677  11.602  23.456  0.00  0.00     0.050 A 
ATOM     21  C   UNL d   1     -45.180  12.098  22.972  0.00  0.00     0.002 A 
ATOM     22  C   UNL d   1     -45.762  13.244  22.333  0.00  0.00     0.002 C 
ATOM     23  C   UNL d   1     -45.267  11.406  23.410  0.00  0.00     0.001 A 
ATOM     24  C   UNL d   1     -46.018  11.147  23.659  0.00  0.00     0.008 A 
ATOM     25  S   UNL d   1     -47.477  11.499  23.615  0.00  0.00    -0.045 SA
ENDBRANCH  15  16
ENDBRANCH   2  15
TORSDOF 3
ENDMDL
MODEL 2
REMARK VINA RESULT:      -6.3      8.881     10.636
REMARK  3 active torsions:
REMARK  status: ('A' for Active; 'I' for Inactive)
REMARK    1  A    between atoms: C_8  and  C_1 
REMARK    2  A    between atoms: C_3  and  N_14 
REMARK       I    between atoms: N_13  and  C_8 
REMARK    3  A    between atoms: N_14  and  N_13 
ROOT
ATOM      1  C   UNL d   1     -40.840  14.486  20.625  0.00  0.00     0.320 C 
ATOM      2  N   UNL d   1     -40.593  14.450  19.846  0.00  0.00    -0.102 NA
ATOM      3  O   UNL d   1     -41.592  14.518  20.985  0.00  0.00    -0.261 OA
ENDROOT
BRANCH   1   4
ATOM      4  C   UNL d   1     -40.228  14.492  21.172  0.00  0.00     0.162 A 
ATOM      5  C   UNL d   1     -39.953  13.784  21.479  0.00  0.00     0.072 A 
ATOM      6  C   UNL d   1     -39.338  13.783  22.029  0.00  0.00     0.200 A 
ATOM      7  O   UNL d   1     -39.057  13.057  22.344  0.00  0.00    -0.286 OA
ATOM      8  C   UNL d   1     -38.997  14.499  22.272  0.00  0.00     0.062 A 
ATOM      9  C   UNL d   1     -39.275  15.205  21.963  0.00  0.00     0.103 A 
ATOM     10  C   UNL d   1     -38.382  14.498  22.822  0.00  0.00     0.005 A 
ATOM     11  O   UNL d   1     -39.887  15.198  21.415  0.00  0.00    -0.302 OA
ATOM     12  C   UNL d   1     -38.942  15.915  22.198  0.00  0.00     0.025 A 
ATOM     13  C   UNL d   1     -38.327  15.922  22.748  0.00  0.00     0.002 A 
ATOM     14  C   UNL d   1     -38.050  15.207  23.057  0.00  0.00     0.000 A 
ENDBRANCH   1   4
BRANCH   2  15
ATOM     15  N   UNL d   1     -39.791  14.424  19.677  0.00  0.00    -0.118 NA
BRANCH  15  16
ATOM     16  C   UNL d   1     -39.530  14.333  18.891  0.00  0.00     0.215 A 
ATOM     17  N   UNL d   1     -39.133  13.684  18.585  0.00  0.00    -0.219 NA
ATOM     18  C   UNL d   1     -38.978  13.816  17.791  0.00  0.00     0.090 A 
ATOM     19  C   UNL d   1     -38.603  13.369  17.213  0.00  0.00     0.018 A 
ATOM     20  C   UNL d   1     -39.287  14.565  17.602  0.00  0.00     0.050 A 
ATOM     21  C   UNL d   1     -38.533  13.663  16.445  0.00  0.00     0.002 A 
ATOM     22  C   UNL d   1     -38.296  12.622  17.405  0.00  0.00     0.002 C 
ATOM     23  C   UNL d   1     -38.839  14.405  16.260  0.00  0.00     0.001 A 
ATOM     24  C   UNL d   1     -39.221  14.868  16.837  0.00  0.00     0.008 A 
ATOM     25  S   UNL d   1     -39.625  14.879  18.283  0.00  0.00    -0.045 SA
ENDBRANCH  15  16
ENDBRANCH   2  15
TORSDOF 3
ENDMDL
MODEL 3
REMARK VINA RESULT:      -5.6      1.640      2.528
REMARK  3 active torsions:
REMARK  status: ('A' for Active; 'I' for Inactive)
REMARK    1  A    between atoms: C_8  and  C_1 
REMARK    2  A    between atoms: C_3  and  N_14 
REMARK       I    between atoms: N_13  and  C_8 
REMARK    3  A    between atoms: N_14  and  N_13 
ROOT
ATOM      1  C   UNL d   1     -47.694  15.097  22.556  0.00  0.00     0.320 C 
ATOM      2  N   UNL d   1     -47.243  14.463  22.809  0.00  0.00    -0.102 NA
ATOM      3  O   UNL d   1     -47.519  15.900  22.411  0.00  0.00    -0.261 OA
ENDROOT
BRANCH   1   4
ATOM      4  C   UNL d   1     -48.482  14.915  22.415  0.00  0.00     0.162 A 
ATOM      5  C   UNL d   1     -49.070  15.343  22.790  0.00  0.00     0.072 A 
ATOM      6  C   UNL d   1     -49.864  15.165  22.652  0.00  0.00     0.200 A 
ATOM      7  O   UNL d   1     -50.467  15.605  23.037  0.00  0.00    -0.286 OA
ATOM      8  C   UNL d   1     -50.067  14.552  22.133  0.00  0.00     0.062 A 
ATOM      9  C   UNL d   1     -49.476  14.125  21.759  0.00  0.00     0.103 A 
ATOM     10  C   UNL d   1     -50.861  14.373  21.995  0.00  0.00     0.005 A 
ATOM     11  O   UNL d   1     -48.688  14.308  21.901  0.00  0.00    -0.302 OA
ATOM     12  C   UNL d   1     -49.670  13.518  21.245  0.00  0.00     0.025 A 
ATOM     13  C   UNL d   1     -50.461  13.334  21.102  0.00  0.00     0.002 A 
ATOM     14  C   UNL d   1     -51.055  13.767  21.481  0.00  0.00     0.000 A 
ENDBRANCH   1   4
BRANCH   2  15
ATOM     15  N   UNL d   1     -47.595  13.727  22.898  0.00  0.00    -0.118 NA
BRANCH  15  16
ATOM     16  C   UNL d   1     -47.128  13.054  23.046  0.00  0.00     0.215 A 
ATOM     17  N   UNL d   1     -47.403  12.309  23.252  0.00  0.00    -0.219 NA
ATOM     18  C   UNL d   1     -46.763  11.805  23.347  0.00  0.00     0.090 A 
ATOM     19  C   UNL d   1     -46.703  11.011  23.547  0.00  0.00     0.018 A 
ATOM     20  C   UNL d   1     -46.077  12.249  23.195  0.00  0.00     0.050 A 
ATOM     21  C   UNL d   1     -45.961  10.654  23.599  0.00  0.00     0.002 A 
ATOM     22  C   UNL d   1     -47.391  10.570  23.698  0.00  0.00     0.002 C 
ATOM     23  C   UNL d   1     -45.283  11.095  23.449  0.00  0.00     0.001 A 
ATOM     24  C   UNL d   1     -45.330  11.900  23.244  0.00  0.00     0.008 A 
ATOM     25  S   UNL d   1     -46.306  13.016  23.011  0.00  0.00    -0.045 SA
ENDBRANCH  15  16
ENDBRANCH   2  15
TORSDOF 3
ENDMDL
MODEL 4
REMARK VINA RESULT:      -5.2      8.759     10.859
REMARK  3 active torsions:
REMARK  status: ('A' for Active; 'I' for Inactive)
REMARK    1  A    between atoms: C_8  and  C_1 
REMARK    2  A    between atoms: C_3  and  N_14 
REMARK       I    between atoms: N_13  and  C_8 
REMARK    3  A    between atoms: N_14  and  N_13 
ROOT
ATOM      1  C   UNL d   1     -38.406  15.448  20.269  0.00  0.00     0.320 C 
ATOM      2  N   UNL d   1     -38.202  15.198  19.517  0.00  0.00    -0.102 NA
ATOM      3  O   UNL d   1     -38.012  15.904  20.845  0.00  0.00    -0.261 OA
ENDROOT
BRANCH   1   4
ATOM      4  C   UNL d   1     -39.150  15.202  20.515  0.00  0.00     0.162 A 
ATOM      5  C   UNL d   1     -39.237  14.469  20.869  0.00  0.00     0.072 A 
ATOM      6  C   UNL d   1     -39.981  14.216  21.118  0.00  0.00     0.200 A 
ATOM      7  O   UNL d   1     -40.070  13.464  21.482  0.00  0.00    -0.286 OA
ATOM      8  C   UNL d   1     -40.643  14.703  21.009  0.00  0.00     0.062 A 
ATOM      9  C   UNL d   1     -40.553  15.435  20.654  0.00  0.00     0.103 A 
ATOM     10  C   UNL d   1     -41.388  14.450  21.258  0.00  0.00     0.005 A 
ATOM     11  O   UNL d   1     -39.808  15.681  20.409  0.00  0.00    -0.302 OA
ATOM     12  C   UNL d   1     -41.202  15.921  20.544  0.00  0.00     0.025 A 
ATOM     13  C   UNL d   1     -41.950  15.675  20.790  0.00  0.00     0.002 A 
ATOM     14  C   UNL d   1     -42.038  14.935  21.148  0.00  0.00     0.000 A 
ENDBRANCH   1   4
BRANCH   2  15
ATOM     15  N   UNL d   1     -38.730  14.743  19.084  0.00  0.00    -0.118 NA
BRANCH  15  16
ATOM     16  C   UNL d   1     -38.559  14.538  18.295  0.00  0.00     0.215 A 
ATOM     17  N   UNL d   1     -38.571  15.045  17.651  0.00  0.00    -0.219 NA
ATOM     18  C   UNL d   1     -38.370  14.624  16.977  0.00  0.00     0.090 A 
ATOM     19  C   UNL d   1     -38.293  14.837  16.187  0.00  0.00     0.018 A 
ATOM     20  C   UNL d   1     -38.231  13.838  17.211  0.00  0.00     0.050 A 
ATOM     21  C   UNL d   1     -38.078  14.271  15.627  0.00  0.00     0.002 A 
ATOM     22  C   UNL d   1     -38.432  15.622  15.957  0.00  0.00     0.002 C 
ATOM     23  C   UNL d   1     -37.941  13.494  15.860  0.00  0.00     0.001 A 
ATOM     24  C   UNL d   1     -38.016  13.265  16.658  0.00  0.00     0.008 A 
ATOM     25  S   UNL d   1     -38.349  13.791  18.023  0.00  0.00    -0.045 SA
ENDBRANCH  15  16
ENDBRANCH   2  15
TORSDOF 3
ENDMDL
