MODEL 1
REMARK VINA RESULT:      56.3      0.000      0.000
REMARK  6 active torsions:
REMARK  status: ('A' for Active; 'I' for Inactive)
REMARK    1  A    between atoms: C_2  and  C_1 
REMARK       I    between atoms: N_6  and  C_1 
REMARK    2  A    between atoms: O_15  and  C_3 
REMARK    3  A    between atoms: O_17  and  C_4 
REMARK    4  A    between atoms: O_16  and  C_5 
REMARK    5  A    between atoms: C_12  and  N_6 
REMARK    6  A    between atoms: N_11  and  C_9 
ROOT
ATOM      1  C   UNL d   1      14.896  14.718  -0.561  0.00  0.00     0.074 A 
ATOM      2  C   UNL d   1      15.041  13.118  -0.203  0.00  0.00     0.138 A 
ATOM      3  C   UNL d   1      14.301  13.447  -0.321  0.00  0.00     0.118 A 
ATOM      4  C   UNL d   1      15.706  13.594  -0.265  0.00  0.00     0.118 A 
ATOM      5  C   UNL d   1      14.216  14.241  -0.500  0.00  0.00     0.032 A 
ATOM      6  C   UNL d   1      15.648  14.398  -0.444  0.00  0.00     0.032 A 
ENDROOT
BRANCH   1   7
ATOM      7  C   UNL d   1      14.823  15.521  -0.740  0.00  0.00     0.328 C 
ATOM      8  N   UNL d   1      14.821  15.760  -1.523  0.00  0.00    -0.365 NA
ATOM      9  O   UNL d   1      14.753  16.076  -0.133  0.00  0.00    -0.251 OA
BRANCH   8  10
ATOM     10  C   UNL d   1      14.818  16.009  -2.307  0.00  0.00     0.135 A 
ATOM     11  C   UNL d   1      15.169  16.729  -2.524  0.00  0.00     0.034 A 
ATOM     12  C   UNL d   1      15.167  16.977  -3.309  0.00  0.00     0.020 A 
ATOM     13  C   UNL d   1      14.815  16.511  -3.882  0.00  0.00     0.064 A 
ATOM     14  C   UNL d   1      14.464  15.794  -3.674  0.00  0.00     0.020 A 
ATOM     15  C   UNL d   1      14.467  15.543  -2.880  0.00  0.00     0.034 A 
BRANCH  13  16
ATOM     16  N   UNL d   1      14.811  16.760  -4.672  0.00  0.00    -0.301 N 
ATOM     17  C   UNL d   1      14.578  16.233  -5.266  0.00  0.00     0.100 C 
ATOM     18  C   UNL d   1      15.042  17.539  -4.866  0.00  0.00     0.100 C 
ENDBRANCH  13  16
ENDBRANCH   8  10
ENDBRANCH   1   7
BRANCH   3  19
ATOM     19  O   UNL d   1      13.628  12.971  -0.260  0.00  0.00    -0.326 OA
ATOM     20  C   UNL d   1      12.900  13.312  -0.019  0.00  0.00     0.181 C 
ENDBRANCH   3  19
BRANCH   4  21
ATOM     21  O   UNL d   1      16.461  13.258  -0.144  0.00  0.00    -0.326 OA
ATOM     22  C   UNL d   1      17.118  13.753  -0.016  0.00  0.00     0.181 C 
ENDBRANCH   4  21
BRANCH   2  23
ATOM     23  O   UNL d   1      15.114  12.317  -0.023  0.00  0.00    -0.324 OA
ATOM     24  C   UNL d   1      15.367  11.779  -0.594  0.00  0.00     0.182 C 
ENDBRANCH   2  23
TORSDOF 6
ENDMDL
MODEL 2
REMARK VINA RESULT:      56.8      2.739      4.155
REMARK  6 active torsions:
REMARK  status: ('A' for Active; 'I' for Inactive)
REMARK    1  A    between atoms: C_2  and  C_1 
REMARK       I    between atoms: N_6  and  C_1 
REMARK    2  A    between atoms: O_15  and  C_3 
REMARK    3  A    between atoms: O_17  and  C_4 
REMARK    4  A    between atoms: O_16  and  C_5 
REMARK    5  A    between atoms: C_12  and  N_6 
REMARK    6  A    between atoms: N_11  and  C_9 
ROOT
ATOM      1  C   UNL d   1      13.327  14.251  -3.983  0.00  0.00     0.074 A 
ATOM      2  C   UNL d   1      13.222  12.716  -4.569  0.00  0.00     0.138 A 
ATOM      3  C   UNL d   1      13.195  12.850  -3.762  0.00  0.00     0.118 A 
ATOM      4  C   UNL d   1      13.302  13.353  -5.079  0.00  0.00     0.118 A 
ATOM      5  C   UNL d   1      13.246  13.609  -3.459  0.00  0.00     0.032 A 
ATOM      6  C   UNL d   1      13.355  14.128  -4.799  0.00  0.00     0.032 A 
ENDROOT
BRANCH   1   7
ATOM      7  C   UNL d   1      13.379  15.020  -3.689  0.00  0.00     0.328 C 
ATOM      8  N   UNL d   1      13.860  15.174  -3.045  0.00  0.00    -0.365 NA
ATOM      9  O   UNL d   1      12.948  15.629  -4.043  0.00  0.00    -0.251 OA
BRANCH   8  10
ATOM     10  C   UNL d   1      14.342  15.337  -2.398  0.00  0.00     0.135 A 
ATOM     11  C   UNL d   1      14.745  16.060  -2.341  0.00  0.00     0.034 A 
ATOM     12  C   UNL d   1      15.226  16.223  -1.694  0.00  0.00     0.020 A 
ATOM     13  C   UNL d   1      15.311  15.667  -1.100  0.00  0.00     0.064 A 
ATOM     14  C   UNL d   1      14.914  14.945  -1.149  0.00  0.00     0.020 A 
ATOM     15  C   UNL d   1      14.427  14.781  -1.804  0.00  0.00     0.034 A 
BRANCH  13  16
ATOM     16  N   UNL d   1      15.795  15.829  -0.448  0.00  0.00    -0.301 N 
ATOM     17  C   UNL d   1      16.128  15.204  -0.019  0.00  0.00     0.100 C 
ATOM     18  C   UNL d   1      15.946  16.619  -0.226  0.00  0.00     0.100 C 
ENDBRANCH  13  16
ENDBRANCH   8  10
ENDBRANCH   1   7
BRANCH   3  19
ATOM     19  O   UNL d   1      13.115  12.212  -3.244  0.00  0.00    -0.326 OA
ATOM     20  C   UNL d   1      13.788  11.920  -2.838  0.00  0.00     0.181 C 
ENDBRANCH   3  19
BRANCH   4  21
ATOM     21  O   UNL d   1      13.329  13.216  -5.902  0.00  0.00    -0.326 OA
ATOM     22  C   UNL d   1      13.867  13.641  -6.374  0.00  0.00     0.181 C 
ENDBRANCH   4  21
BRANCH   2  23
ATOM     23  O   UNL d   1      13.170  11.948  -4.863  0.00  0.00    -0.324 OA
ATOM     24  C   UNL d   1      13.376  11.781  -5.642  0.00  0.00     0.182 C 
ENDBRANCH   2  23
TORSDOF 6
ENDMDL
MODEL 3
REMARK VINA RESULT:      57.6      2.120      3.715
REMARK  6 active torsions:
REMARK  status: ('A' for Active; 'I' for Inactive)
REMARK    1  A    between atoms: C_2  and  C_1 
REMARK       I    between atoms: N_6  and  C_1 
REMARK    2  A    between atoms: O_15  and  C_3 
REMARK    3  A    between atoms: O_17  and  C_4 
REMARK    4  A    between atoms: O_16  and  C_5 
REMARK    5  A    between atoms: C_12  and  N_6 
REMARK    6  A    between atoms: N_11  and  C_9 
ROOT
ATOM      1  C   UNL d   1      15.370  14.703  -0.657  0.00  0.00     0.074 A 
ATOM      2  C   UNL d   1      15.920  16.253  -0.588  0.00  0.00     0.138 A 
ATOM      3  C   UNL d   1      16.433  15.629  -0.459  0.00  0.00     0.118 A 
ATOM      4  C   UNL d   1      15.132  16.097  -0.752  0.00  0.00     0.118 A 
ATOM      5  C   UNL d   1      16.171  14.853  -0.491  0.00  0.00     0.032 A 
ATOM      6  C   UNL d   1      14.842  15.324  -0.790  0.00  0.00     0.032 A 
ENDROOT
BRANCH   1   7
ATOM      7  C   UNL d   1      15.094  13.926  -0.692  0.00  0.00     0.328 C 
ATOM      8  N   UNL d   1      14.696  13.669  -1.360  0.00  0.00    -0.365 NA
ATOM      9  O   UNL d   1      15.219  13.413  -0.057  0.00  0.00    -0.251 OA
BRANCH   8  10
ATOM     10  C   UNL d   1      14.296  13.403  -2.027  0.00  0.00     0.135 A 
ATOM     11  C   UNL d   1      13.945  12.651  -2.039  0.00  0.00     0.034 A 
ATOM     12  C   UNL d   1      13.545  12.384  -2.707  0.00  0.00     0.020 A 
ATOM     13  C   UNL d   1      13.490  12.865  -3.367  0.00  0.00     0.064 A 
ATOM     14  C   UNL d   1      13.836  13.614  -3.363  0.00  0.00     0.020 A 
ATOM     15  C   UNL d   1      14.241  13.883  -2.687  0.00  0.00     0.034 A 
BRANCH  13  16
ATOM     16  N   UNL d   1      13.087  12.599  -4.040  0.00  0.00    -0.301 N 
ATOM     17  C   UNL d   1      12.977  11.787  -4.158  0.00  0.00     0.100 C 
ATOM     18  C   UNL d   1      12.795  13.149  -4.596  0.00  0.00     0.100 C 
ENDBRANCH  13  16
ENDBRANCH   8  10
ENDBRANCH   1   7
BRANCH   3  19
ATOM     19  O   UNL d   1      17.229  15.781  -0.294  0.00  0.00    -0.326 OA
ATOM     20  C   UNL d   1      17.730  15.153  -0.053  0.00  0.00     0.181 C 
ENDBRANCH   3  19
BRANCH   4  21
ATOM     21  O   UNL d   1      14.608  16.733  -0.883  0.00  0.00    -0.326 OA
ATOM     22  C   UNL d   1      14.276  16.847  -1.638  0.00  0.00     0.181 C 
ENDBRANCH   4  21
BRANCH   2  23
ATOM     23  O   UNL d   1      16.196  17.029  -0.554  0.00  0.00    -0.324 OA
ATOM     24  C   UNL d   1      15.670  17.663  -0.576  0.00  0.00     0.182 C 
ENDBRANCH   2  23
TORSDOF 6
ENDMDL
