MODEL 1
REMARK VINA RESULT:      -6.0      0.000      0.000
REMARK  1 active torsions:
REMARK  status: ('A' for Active; 'I' for Inactive)
REMARK    1  A    between atoms: C_10  and  C_5 
ROOT
ATOM      1  C   UNL d   1      57.441   0.294  31.259  0.00  0.00     0.118 A 
ATOM      2  C   UNL d   1      57.243  -0.493  31.286  0.00  0.00     0.088 A 
ATOM      3  N   UNL d   1      57.957   0.575  30.654  0.00  0.00    -0.219 NA
ATOM      4  C   UNL d   1      57.562  -0.995  30.708  0.00  0.00     0.303 A 
ATOM      5  C   UNL d   1      58.258   0.061  30.097  0.00  0.00     0.162 A 
ATOM      6  O   UNL d   1      58.060  -0.722  30.126  0.00  0.00    -0.259 OA
ATOM      7  S   UNL d   1      57.051   0.682  31.894  0.00  0.00    -0.068 SA
ATOM      8  C   UNL d   1      56.740  -0.598  31.925  0.00  0.00     0.013 A 
ATOM      9  C   UNL d   1      56.632   0.107  32.281  0.00  0.00     0.031 A 
ATOM     10  O   UNL d   1      57.383  -1.805  30.704  0.00  0.00    -0.259 OA
ATOM     11  C   UNL d   1      56.374  -1.276  32.209  0.00  0.00     0.001 A 
ATOM     12  C   UNL d   1      56.154   0.202  32.947  0.00  0.00     0.006 A 
ATOM     13  C   UNL d   1      55.884  -1.189  32.889  0.00  0.00     0.000 A 
ATOM     14  C   UNL d   1      55.774  -0.494  33.245  0.00  0.00     0.001 A 
ENDROOT
BRANCH   5  15
ATOM     15  C   UNL d   1      58.771   0.377  29.508  0.00  0.00     0.058 C 
ATOM     16  C   UNL d   1      59.406   0.244  30.019  0.00  0.00     0.008 C 
ATOM     17  C   UNL d   1      59.298   0.679  28.955  0.00  0.00     0.008 C 
ATOM     18  C   UNL d   1      58.137   0.512  28.994  0.00  0.00     0.008 C 
ENDBRANCH   5  15
TORSDOF 1
ENDMDL
MODEL 2
REMARK VINA RESULT:      -5.9      1.410      3.662
REMARK  1 active torsions:
REMARK  status: ('A' for Active; 'I' for Inactive)
REMARK    1  A    between atoms: C_10  and  C_5 
ROOT
ATOM      1  C   UNL d   1      56.584   0.288  32.253  0.00  0.00     0.118 A 
ATOM      2  C   UNL d   1      56.630  -0.511  32.111  0.00  0.00     0.088 A 
ATOM      3  N   UNL d   1      56.120   0.571  32.898  0.00  0.00    -0.219 NA
ATOM      4  C   UNL d   1      56.213  -1.021  32.615  0.00  0.00     0.303 A 
ATOM      5  C   UNL d   1      55.719   0.049  33.379  0.00  0.00     0.162 A 
ATOM      6  O   UNL d   1      55.767  -0.745  33.236  0.00  0.00    -0.259 OA
ATOM      7  S   UNL d   1      57.049   0.682  31.675  0.00  0.00    -0.068 SA
ATOM      8  C   UNL d   1      57.114  -0.616  31.458  0.00  0.00     0.013 A 
ATOM      9  C   UNL d   1      57.358   0.100  31.205  0.00  0.00     0.031 A 
ATOM     10  O   UNL d   1      56.237  -1.842  32.501  0.00  0.00    -0.259 OA
ATOM     11  C   UNL d   1      57.350  -1.303  31.075  0.00  0.00     0.001 A 
ATOM     12  C   UNL d   1      57.855   0.196  30.554  0.00  0.00     0.006 A 
ATOM     13  C   UNL d   1      57.858  -1.214  30.408  0.00  0.00     0.000 A 
ATOM     14  C   UNL d   1      58.102  -0.509  30.155  0.00  0.00     0.001 A 
ENDROOT
BRANCH   5  15
ATOM     15  C   UNL d   1      55.266   0.368  34.013  0.00  0.00     0.058 C 
ATOM     16  C   UNL d   1      55.953   0.377  34.473  0.00  0.00     0.008 C 
ATOM     17  C   UNL d   1      54.853   0.681  34.651  0.00  0.00     0.008 C 
ATOM     18  C   UNL d   1      54.576   0.362  33.557  0.00  0.00     0.008 C 
ENDBRANCH   5  15
TORSDOF 1
ENDMDL
MODEL 3
REMARK VINA RESULT:      -4.6      0.819      3.381
REMARK  1 active torsions:
REMARK  status: ('A' for Active; 'I' for Inactive)
REMARK    1  A    between atoms: C_10  and  C_5 
ROOT
ATOM      1  C   UNL d   1      57.762   0.127  31.133  0.00  0.00     0.118 A 
ATOM      2  C   UNL d   1      57.831  -0.561  30.707  0.00  0.00     0.088 A 
ATOM      3  N   UNL d   1      57.204   0.174  31.763  0.00  0.00    -0.219 NA
ATOM      4  C   UNL d   1      57.342  -1.198  30.913  0.00  0.00     0.303 A 
ATOM      5  C   UNL d   1      56.734  -0.467  31.947  0.00  0.00     0.162 A 
ATOM      6  O   UNL d   1      56.805  -1.151  31.521  0.00  0.00    -0.259 OA
ATOM      7  S   UNL d   1      58.310   0.682  30.820  0.00  0.00    -0.068 SA
ATOM      8  C   UNL d   1      58.410  -0.442  30.139  0.00  0.00     0.013 A 
ATOM      9  C   UNL d   1      58.689   0.302  30.215  0.00  0.00     0.031 A 
ATOM     10  O   UNL d   1      57.385  -1.917  30.501  0.00  0.00    -0.259 OA
ATOM     11  C   UNL d   1      58.704  -0.947  29.562  0.00  0.00     0.001 A 
ATOM     12  C   UNL d   1      59.281   0.607  29.727  0.00  0.00     0.006 A 
ATOM     13  C   UNL d   1      59.309  -0.643  29.060  0.00  0.00     0.000 A 
ATOM     14  C   UNL d   1      59.588   0.090  29.131  0.00  0.00     0.001 A 
ENDROOT
BRANCH   5  15
ATOM     15  C   UNL d   1      56.188  -0.384  32.582  0.00  0.00     0.058 C 
ATOM     16  C   UNL d   1      56.259  -1.195  32.723  0.00  0.00     0.008 C 
ATOM     17  C   UNL d   1      55.658  -0.336  33.208  0.00  0.00     0.008 C 
ATOM     18  C   UNL d   1      56.114   0.429  32.445  0.00  0.00     0.008 C 
ENDBRANCH   5  15
TORSDOF 1
ENDMDL
MODEL 4
REMARK VINA RESULT:      -4.1      1.449      2.089
REMARK  1 active torsions:
REMARK  status: ('A' for Active; 'I' for Inactive)
REMARK    1  A    between atoms: C_10  and  C_5 
ROOT
ATOM      1  C   UNL d   1      56.361   0.045  32.262  0.00  0.00     0.118 A 
ATOM      2  C   UNL d   1      56.824   0.306  32.877  0.00  0.00     0.088 A 
ATOM      3  N   UNL d   1      56.711  -0.102  31.509  0.00  0.00    -0.219 NA
ATOM      4  C   UNL d   1      57.634   0.417  32.735  0.00  0.00     0.303 A 
ATOM      5  C   UNL d   1      57.510   0.015  31.395  0.00  0.00     0.162 A 
ATOM      6  O   UNL d   1      57.968   0.274  32.008  0.00  0.00    -0.259 OA
ATOM      7  S   UNL d   1      55.572  -0.023  32.542  0.00  0.00    -0.068 SA
ATOM      8  C   UNL d   1      56.337   0.399  33.529  0.00  0.00     0.013 A 
ATOM      9  C   UNL d   1      55.593   0.201  33.320  0.00  0.00     0.031 A 
ATOM     10  O   UNL d   1      58.138   0.682  33.338  0.00  0.00    -0.259 OA
ATOM     11  C   UNL d   1      56.509   0.647  34.293  0.00  0.00     0.001 A 
ATOM     12  C   UNL d   1      54.959   0.232  33.847  0.00  0.00     0.006 A 
ATOM     13  C   UNL d   1      55.868   0.682  34.838  0.00  0.00     0.000 A 
ATOM     14  C   UNL d   1      55.131   0.487  34.637  0.00  0.00     0.001 A 
ENDROOT
BRANCH   5  15
ATOM     15  C   UNL d   1      57.824  -0.143  30.630  0.00  0.00     0.058 C 
ATOM     16  C   UNL d   1      57.865   0.672  30.501  0.00  0.00     0.008 C 
ATOM     17  C   UNL d   1      58.132  -0.262  29.877  0.00  0.00     0.008 C 
ATOM     18  C   UNL d   1      57.784  -0.960  30.754  0.00  0.00     0.008 C 
ENDBRANCH   5  15
TORSDOF 1
ENDMDL
