MODEL 1
REMARK VINA RESULT:      -7.0      0.000      0.000
REMARK  5 active torsions:
REMARK  status: ('A' for Active; 'I' for Inactive)
REMARK    1  A    between atoms: N_8  and  C_6 
REMARK    2  A    between atoms: C_7  and  O_9 
REMARK    3  A    between atoms: C_10  and  C_7 
REMARK    4  A    between atoms: O_9  and  N_8 
REMARK    5  A    between atoms: O_20  and  C_15 
ROOT
ATOM      1  O   UNL d   1     -47.335  13.272  21.794  0.00  0.00    -0.169 OA
ENDROOT
BRANCH   1   2
ATOM      2  C   UNL d   1     -46.552  13.046  22.692  0.00  0.00     0.319 C 
ATOM      3  O   UNL d   1     -46.398  13.704  23.141  0.00  0.00    -0.257 OA
BRANCH   2   4
ATOM      4  C   UNL d   1     -46.181  12.493  22.946  0.00  0.00     0.065 A 
ATOM      5  C   UNL d   1     -46.477  12.058  23.416  0.00  0.00     0.007 A 
ATOM      6  C   UNL d   1     -46.108  11.510  23.668  0.00  0.00     0.024 A 
ATOM      7  C   UNL d   1     -45.442  11.405  23.443  0.00  0.00     0.094 A 
ATOM      8  C   UNL d   1     -45.150  11.844  22.972  0.00  0.00     0.024 A 
ATOM      9  C   UNL d   1     -45.514  12.387  22.723  0.00  0.00     0.007 A 
BRANCH   7  10
ATOM     10  O   UNL d   1     -45.070  10.851  23.698  0.00  0.00    -0.328 OA
ATOM     11  C   UNL d   1     -44.302  10.327  23.459  0.00  0.00     0.181 C 
ENDBRANCH   7  10
ENDBRANCH   2   4
ENDBRANCH   1   2
BRANCH   1  12
ATOM     12  N   UNL d   1     -48.059  13.873  22.695  0.00  0.00    -0.123 NA
BRANCH  12  13
ATOM     13  C   UNL d   1     -48.811  14.211  22.603  0.00  0.00     0.108 A 
ATOM     14  C   UNL d   1     -49.002  14.888  23.035  0.00  0.00     0.025 A 
ATOM     15  C   UNL d   1     -49.751  15.237  22.953  0.00  0.00     0.041 A 
ATOM     16  C   UNL d   1     -50.313  14.900  22.428  0.00  0.00     0.196 A 
ATOM     17  C   UNL d   1     -49.955  15.919  23.384  0.00  0.00     0.003 C 
ATOM     18  C   UNL d   1     -50.109  14.218  21.997  0.00  0.00     0.041 A 
ATOM     19  O   UNL d   1     -51.064  15.244  22.341  0.00  0.00    -0.287 OA
ATOM     20  C   UNL d   1     -49.360  13.869  22.080  0.00  0.00     0.025 A 
ATOM     21  C   UNL d   1     -50.663  13.884  21.478  0.00  0.00     0.003 C 
ENDBRANCH  12  13
ENDBRANCH   1  12
TORSDOF 5
ENDMDL
MODEL 2
REMARK VINA RESULT:      -6.9      1.023      1.329
REMARK  5 active torsions:
REMARK  status: ('A' for Active; 'I' for Inactive)
REMARK    1  A    between atoms: N_8  and  C_6 
REMARK    2  A    between atoms: C_7  and  O_9 
REMARK    3  A    between atoms: C_10  and  C_7 
REMARK    4  A    between atoms: O_9  and  N_8 
REMARK    5  A    between atoms: O_20  and  C_15 
ROOT
ATOM      1  O   UNL d   1     -46.968  14.438  23.193  0.00  0.00    -0.169 OA
ENDROOT
BRANCH   1   2
ATOM      2  C   UNL d   1     -46.444  13.371  22.951  0.00  0.00     0.319 C 
ATOM      3  O   UNL d   1     -46.896  12.743  23.195  0.00  0.00    -0.257 OA
BRANCH   2   4
ATOM      4  C   UNL d   1     -45.844  13.129  22.651  0.00  0.00     0.065 A 
ATOM      5  C   UNL d   1     -45.563  12.521  22.871  0.00  0.00     0.007 A 
ATOM      6  C   UNL d   1     -44.968  12.281  22.574  0.00  0.00     0.024 A 
ATOM      7  C   UNL d   1     -44.660  12.659  22.056  0.00  0.00     0.094 A 
ATOM      8  C   UNL d   1     -44.947  13.269  21.840  0.00  0.00     0.024 A 
ATOM      9  C   UNL d   1     -45.535  13.506  22.133  0.00  0.00     0.007 A 
BRANCH   7  10
ATOM     10  O   UNL d   1     -44.059  12.417  21.756  0.00  0.00    -0.328 OA
ATOM     11  C   UNL d   1     -43.180  12.738  21.543  0.00  0.00     0.181 C 
ENDBRANCH   7  10
ENDBRANCH   2   4
ENDBRANCH   1   2
BRANCH   1  12
ATOM     12  N   UNL d   1     -48.088  13.865  22.856  0.00  0.00    -0.123 NA
BRANCH  12  13
ATOM     13  C   UNL d   1     -48.831  14.219  22.752  0.00  0.00     0.108 A 
ATOM     14  C   UNL d   1     -49.027  14.880  23.205  0.00  0.00     0.025 A 
ATOM     15  C   UNL d   1     -49.767  15.245  23.111  0.00  0.00     0.041 A 
ATOM     16  C   UNL d   1     -50.315  14.938  22.553  0.00  0.00     0.196 A 
ATOM     17  C   UNL d   1     -49.977  15.912  23.562  0.00  0.00     0.003 C 
ATOM     18  C   UNL d   1     -50.106  14.271  22.102  0.00  0.00     0.041 A 
ATOM     19  O   UNL d   1     -51.058  15.298  22.453  0.00  0.00    -0.287 OA
ATOM     20  C   UNL d   1     -49.366  13.907  22.196  0.00  0.00     0.025 A 
ATOM     21  C   UNL d   1     -50.646  13.967  21.550  0.00  0.00     0.003 C 
ENDBRANCH  12  13
ENDBRANCH   1  12
TORSDOF 5
ENDMDL
MODEL 3
REMARK VINA RESULT:      -6.3      1.552      5.108
REMARK  5 active torsions:
REMARK  status: ('A' for Active; 'I' for Inactive)
REMARK    1  A    between atoms: N_8  and  C_6 
REMARK    2  A    between atoms: C_7  and  O_9 
REMARK    3  A    between atoms: C_10  and  C_7 
REMARK    4  A    between atoms: O_9  and  N_8 
REMARK    5  A    between atoms: O_20  and  C_15 
ROOT
ATOM      1  O   UNL d   1     -48.885  11.136  22.516  0.00  0.00    -0.169 OA
ENDROOT
BRANCH   1   2
ATOM      2  C   UNL d   1     -49.767  11.825  22.984  0.00  0.00     0.319 C 
ATOM      3  O   UNL d   1     -50.084  11.505  23.658  0.00  0.00    -0.257 OA
BRANCH   2   4
ATOM      4  C   UNL d   1     -50.094  12.442  22.838  0.00  0.00     0.065 A 
ATOM      5  C   UNL d   1     -50.341  12.561  22.189  0.00  0.00     0.007 A 
ATOM      6  C   UNL d   1     -50.666  13.173  22.044  0.00  0.00     0.024 A 
ATOM      7  C   UNL d   1     -50.737  13.660  22.557  0.00  0.00     0.094 A 
ATOM      8  C   UNL d   1     -50.486  13.534  23.207  0.00  0.00     0.024 A 
ATOM      9  C   UNL d   1     -50.166  12.930  23.350  0.00  0.00     0.007 A 
BRANCH   7  10
ATOM     10  O   UNL d   1     -51.064  14.277  22.411  0.00  0.00    -0.328 OA
ATOM     11  C   UNL d   1     -50.877  15.218  22.443  0.00  0.00     0.181 C 
ENDBRANCH   7  10
ENDBRANCH   2   4
ENDBRANCH   1   2
BRANCH   1  12
ATOM     12  N   UNL d   1     -48.071  11.823  23.264  0.00  0.00    -0.123 NA
BRANCH  12  13
ATOM     13  C   UNL d   1     -47.244  11.869  23.210  0.00  0.00     0.108 A 
ATOM     14  C   UNL d   1     -46.789  11.235  23.478  0.00  0.00     0.025 A 
ATOM     15  C   UNL d   1     -45.961  11.268  23.431  0.00  0.00     0.041 A 
ATOM     16  C   UNL d   1     -45.588  11.947  23.108  0.00  0.00     0.196 A 
ATOM     17  C   UNL d   1     -45.490  10.635  23.698  0.00  0.00     0.003 C 
ATOM     18  C   UNL d   1     -46.057  12.580  22.841  0.00  0.00     0.041 A 
ATOM     19  O   UNL d   1     -44.759  11.987  23.057  0.00  0.00    -0.287 OA
ATOM     20  C   UNL d   1     -46.885  12.548  22.889  0.00  0.00     0.025 A 
ATOM     21  C   UNL d   1     -45.690  13.253  22.522  0.00  0.00     0.003 C 
ENDBRANCH  12  13
ENDBRANCH   1  12
TORSDOF 5
ENDMDL
MODEL 4
REMARK VINA RESULT:      -5.5      1.728      5.288
REMARK  5 active torsions:
REMARK  status: ('A' for Active; 'I' for Inactive)
REMARK    1  A    between atoms: N_8  and  C_6 
REMARK    2  A    between atoms: C_7  and  O_9 
REMARK    3  A    between atoms: C_10  and  C_7 
REMARK    4  A    between atoms: O_9  and  N_8 
REMARK    5  A    between atoms: O_20  and  C_15 
ROOT
ATOM      1  O   UNL d   1     -47.630  10.859  22.794  0.00  0.00    -0.169 OA
ENDROOT
BRANCH   1   2
ATOM      2  C   UNL d   1     -48.387  11.775  23.040  0.00  0.00     0.319 C 
ATOM      3  O   UNL d   1     -48.162  12.194  23.698  0.00  0.00    -0.257 OA
BRANCH   2   4
ATOM      4  C   UNL d   1     -48.983  12.059  22.770  0.00  0.00     0.065 A 
ATOM      5  C   UNL d   1     -49.585  12.020  23.135  0.00  0.00     0.007 A 
ATOM      6  C   UNL d   1     -50.176  12.301  22.868  0.00  0.00     0.024 A 
ATOM      7  C   UNL d   1     -50.154  12.621  22.233  0.00  0.00     0.094 A 
ATOM      8  C   UNL d   1     -49.546  12.657  21.872  0.00  0.00     0.024 A 
ATOM      9  C   UNL d   1     -48.962  12.379  22.136  0.00  0.00     0.007 A 
BRANCH   7  10
ATOM     10  O   UNL d   1     -50.751  12.905  21.963  0.00  0.00    -0.328 OA
ATOM     11  C   UNL d   1     -51.064  13.753  21.641  0.00  0.00     0.181 C 
ENDBRANCH   7  10
ENDBRANCH   2   4
ENDBRANCH   1   2
BRANCH   1  12
ATOM     12  N   UNL d   1     -46.686  11.635  23.245  0.00  0.00    -0.123 NA
BRANCH  12  13
ATOM     13  C   UNL d   1     -45.868  11.571  23.118  0.00  0.00     0.108 A 
ATOM     14  C   UNL d   1     -45.494  12.122  22.632  0.00  0.00     0.025 A 
ATOM     15  C   UNL d   1     -44.677  12.070  22.496  0.00  0.00     0.041 A 
ATOM     16  C   UNL d   1     -44.232  11.455  22.854  0.00  0.00     0.196 A 
ATOM     17  C   UNL d   1     -44.287  12.621  22.007  0.00  0.00     0.003 C 
ATOM     18  C   UNL d   1     -44.621  10.904  23.342  0.00  0.00     0.041 A 
ATOM     19  O   UNL d   1     -43.414  11.396  22.723  0.00  0.00    -0.287 OA
ATOM     20  C   UNL d   1     -45.438  10.956  23.479  0.00  0.00     0.025 A 
ATOM     21  C   UNL d   1     -44.184  10.295  23.698  0.00  0.00     0.003 C 
ENDBRANCH  12  13
ENDBRANCH   1  12
TORSDOF 5
ENDMDL
MODEL 5
REMARK VINA RESULT:      -5.5      8.254      9.085
REMARK  5 active torsions:
REMARK  status: ('A' for Active; 'I' for Inactive)
REMARK    1  A    between atoms: N_8  and  C_6 
REMARK    2  A    between atoms: C_7  and  O_9 
REMARK    3  A    between atoms: C_10  and  C_7 
REMARK    4  A    between atoms: O_9  and  N_8 
REMARK    5  A    between atoms: O_20  and  C_15 
ROOT
ATOM      1  O   UNL d   1     -40.104  15.767  20.306  0.00  0.00    -0.169 OA
ENDROOT
BRANCH   1   2
ATOM      2  C   UNL d   1     -40.067  14.869  21.121  0.00  0.00     0.319 C 
ATOM      3  O   UNL d   1     -40.700  14.366  21.056  0.00  0.00    -0.257 OA
BRANCH   2   4
ATOM      4  C   UNL d   1     -39.642  14.648  21.650  0.00  0.00     0.065 A 
ATOM      5  C   UNL d   1     -39.272  15.120  22.021  0.00  0.00     0.007 A 
ATOM      6  C   UNL d   1     -38.851  14.901  22.545  0.00  0.00     0.024 A 
ATOM      7  C   UNL d   1     -38.808  14.206  22.692  0.00  0.00     0.094 A 
ATOM      8  C   UNL d   1     -39.182  13.738  22.316  0.00  0.00     0.024 A 
ATOM      9  C   UNL d   1     -39.598  13.954  21.797  0.00  0.00     0.007 A 
BRANCH   7  10
ATOM     10  O   UNL d   1     -38.383  13.986  23.221  0.00  0.00    -0.328 OA
ATOM     11  C   UNL d   1     -38.155  13.169  23.670  0.00  0.00     0.181 C 
ENDBRANCH   7  10
ENDBRANCH   2   4
ENDBRANCH   1   2
BRANCH   1  12
ATOM     12  N   UNL d   1     -40.335  14.839  19.423  0.00  0.00    -0.123 NA
BRANCH  12  13
ATOM     13  C   UNL d   1     -40.250  14.885  18.599  0.00  0.00     0.108 A 
ATOM     14  C   UNL d   1     -40.760  15.371  18.169  0.00  0.00     0.025 A 
ATOM     15  C   UNL d   1     -40.686  15.427  17.345  0.00  0.00     0.041 A 
ATOM     16  C   UNL d   1     -40.090  14.988  16.949  0.00  0.00     0.196 A 
ATOM     17  C   UNL d   1     -41.195  15.914  16.900  0.00  0.00     0.003 C 
ATOM     18  C   UNL d   1     -39.581  14.502  17.392  0.00  0.00     0.041 A 
ATOM     19  O   UNL d   1     -40.009  15.040  16.123  0.00  0.00    -0.287 OA
ATOM     20  C   UNL d   1     -39.655  14.446  18.217  0.00  0.00     0.025 A 
ATOM     21  C   UNL d   1     -38.991  14.067  17.003  0.00  0.00     0.003 C 
ENDBRANCH  12  13
ENDBRANCH   1  12
TORSDOF 5
ENDMDL
MODEL 6
REMARK VINA RESULT:      -5.3      8.617     10.266
REMARK  5 active torsions:
REMARK  status: ('A' for Active; 'I' for Inactive)
REMARK    1  A    between atoms: N_8  and  C_6 
REMARK    2  A    between atoms: C_7  and  O_9 
REMARK    3  A    between atoms: C_10  and  C_7 
REMARK    4  A    between atoms: O_9  and  N_8 
REMARK    5  A    between atoms: O_20  and  C_15 
ROOT
ATOM      1  O   UNL d   1     -38.238  13.808  18.738  0.00  0.00    -0.169 OA
ENDROOT
BRANCH   1   2
ATOM      2  C   UNL d   1     -38.713  13.620  17.637  0.00  0.00     0.319 C 
ATOM      3  O   UNL d   1     -39.446  13.275  17.672  0.00  0.00    -0.257 OA
BRANCH   2   4
ATOM      4  C   UNL d   1     -38.532  13.727  16.956  0.00  0.00     0.065 A 
ATOM      5  C   UNL d   1     -38.127  13.255  16.623  0.00  0.00     0.007 A 
ATOM      6  C   UNL d   1     -37.949  13.361  15.947  0.00  0.00     0.024 A 
ATOM      7  C   UNL d   1     -38.181  13.944  15.612  0.00  0.00     0.094 A 
ATOM      8  C   UNL d   1     -38.588  14.413  15.951  0.00  0.00     0.024 A 
ATOM      9  C   UNL d   1     -38.764  14.309  16.619  0.00  0.00     0.007 A 
BRANCH   7  10
ATOM     10  O   UNL d   1     -38.001  14.050  14.929  0.00  0.00    -0.328 OA
ATOM     11  C   UNL d   1     -37.943  13.551  14.112  0.00  0.00     0.181 C 
ENDBRANCH   7  10
ENDBRANCH   2   4
ENDBRANCH   1   2
BRANCH   1  12
ATOM     12  N   UNL d   1     -39.405  14.286  19.063  0.00  0.00    -0.123 NA
BRANCH  12  13
ATOM     13  C   UNL d   1     -39.614  14.696  19.754  0.00  0.00     0.108 A 
ATOM     14  C   UNL d   1     -39.088  14.706  20.389  0.00  0.00     0.025 A 
ATOM     15  C   UNL d   1     -39.284  15.112  21.086  0.00  0.00     0.041 A 
ATOM     16  C   UNL d   1     -40.019  15.513  21.142  0.00  0.00     0.196 A 
ATOM     17  C   UNL d   1     -38.761  15.129  21.734  0.00  0.00     0.003 C 
ATOM     18  C   UNL d   1     -40.542  15.496  20.495  0.00  0.00     0.041 A 
ATOM     19  O   UNL d   1     -40.223  15.921  21.837  0.00  0.00    -0.287 OA
ATOM     20  C   UNL d   1     -40.346  15.090  19.798  0.00  0.00     0.025 A 
ATOM     21  C   UNL d   1     -41.270  15.891  20.548  0.00  0.00     0.003 C 
ENDBRANCH  12  13
ENDBRANCH   1  12
TORSDOF 5
ENDMDL
MODEL 7
REMARK VINA RESULT:      -5.3      8.873      9.918
REMARK  5 active torsions:
REMARK  status: ('A' for Active; 'I' for Inactive)
REMARK    1  A    between atoms: N_8  and  C_6 
REMARK    2  A    between atoms: C_7  and  O_9 
REMARK    3  A    between atoms: C_10  and  C_7 
REMARK    4  A    between atoms: O_9  and  N_8 
REMARK    5  A    between atoms: O_20  and  C_15 
ROOT
ATOM      1  O   UNL d   1     -39.680  15.800  20.206  0.00  0.00    -0.169 OA
ENDROOT
BRANCH   1   2
ATOM      2  C   UNL d   1     -39.689  15.320  19.092  0.00  0.00     0.319 C 
ATOM      3  O   UNL d   1     -39.030  14.871  18.944  0.00  0.00    -0.257 OA
BRANCH   2   4
ATOM      4  C   UNL d   1     -40.112  15.317  18.518  0.00  0.00     0.065 A 
ATOM      5  C   UNL d   1     -40.473  15.897  18.346  0.00  0.00     0.007 A 
ATOM      6  C   UNL d   1     -40.893  15.894  17.777  0.00  0.00     0.024 A 
ATOM      7  C   UNL d   1     -40.944  15.302  17.385  0.00  0.00     0.094 A 
ATOM      8  C   UNL d   1     -40.579  14.723  17.562  0.00  0.00     0.024 A 
ATOM      9  C   UNL d   1     -40.164  14.726  18.125  0.00  0.00     0.007 A 
BRANCH   7  10
ATOM     10  O   UNL d   1     -41.368  15.299  16.810  0.00  0.00    -0.328 OA
ATOM     11  C   UNL d   1     -41.875  15.921  16.285  0.00  0.00     0.181 C 
ENDBRANCH   7  10
ENDBRANCH   2   4
ENDBRANCH   1   2
BRANCH   1  12
ATOM     12  N   UNL d   1     -39.259  14.636  20.609  0.00  0.00    -0.123 NA
BRANCH  12  13
ATOM     13  C   UNL d   1     -38.967  14.430  21.358  0.00  0.00     0.108 A 
ATOM     14  C   UNL d   1     -38.605  13.695  21.459  0.00  0.00     0.025 A 
ATOM     15  C   UNL d   1     -38.308  13.476  22.203  0.00  0.00     0.041 A 
ATOM     16  C   UNL d   1     -38.378  14.004  22.852  0.00  0.00     0.196 A 
ATOM     17  C   UNL d   1     -37.941  12.738  22.318  0.00  0.00     0.003 C 
ATOM     18  C   UNL d   1     -38.745  14.742  22.738  0.00  0.00     0.041 A 
ATOM     19  O   UNL d   1     -38.083  13.792  23.599  0.00  0.00    -0.287 OA
ATOM     20  C   UNL d   1     -39.041  14.961  21.994  0.00  0.00     0.025 A 
ATOM     21  C   UNL d   1     -38.814  15.266  23.378  0.00  0.00     0.003 C 
ENDBRANCH  12  13
ENDBRANCH   1  12
TORSDOF 5
ENDMDL
MODEL 8
REMARK VINA RESULT:      -4.9      3.216      4.383
REMARK  5 active torsions:
REMARK  status: ('A' for Active; 'I' for Inactive)
REMARK    1  A    between atoms: N_8  and  C_6 
REMARK    2  A    between atoms: C_7  and  O_9 
REMARK    3  A    between atoms: C_10  and  C_7 
REMARK    4  A    between atoms: O_9  and  N_8 
REMARK    5  A    between atoms: O_20  and  C_15 
ROOT
ATOM      1  O   UNL d   1     -44.341  12.766  20.975  0.00  0.00    -0.169 OA
ENDROOT
BRANCH   1   2
ATOM      2  C   UNL d   1     -43.193  12.797  21.366  0.00  0.00     0.319 C 
ATOM      3  O   UNL d   1     -43.049  12.246  21.944  0.00  0.00    -0.257 OA
BRANCH   2   4
ATOM      4  C   UNL d   1     -42.597  13.164  21.234  0.00  0.00     0.065 A 
ATOM      5  C   UNL d   1     -42.017  13.039  21.615  0.00  0.00     0.007 A 
ATOM      6  C   UNL d   1     -41.426  13.403  21.485  0.00  0.00     0.024 A 
ATOM      7  C   UNL d   1     -41.424  13.893  20.969  0.00  0.00     0.094 A 
ATOM      8  C   UNL d   1     -42.010  14.015  20.590  0.00  0.00     0.024 A 
ATOM      9  C   UNL d   1     -42.594  13.655  20.719  0.00  0.00     0.007 A 
BRANCH   7  10
ATOM     10  O   UNL d   1     -40.827  14.262  20.837  0.00  0.00    -0.328 OA
ATOM     11  C   UNL d   1     -40.448  15.118  21.043  0.00  0.00     0.181 C 
ENDBRANCH   7  10
ENDBRANCH   2   4
ENDBRANCH   1   2
BRANCH   1  12
ATOM     12  N   UNL d   1     -44.678  12.821  22.232  0.00  0.00    -0.123 NA
BRANCH  12  13
ATOM     13  C   UNL d   1     -45.439  12.903  22.553  0.00  0.00     0.108 A 
ATOM     14  C   UNL d   1     -45.838  13.619  22.461  0.00  0.00     0.025 A 
ATOM     15  C   UNL d   1     -46.600  13.715  22.777  0.00  0.00     0.041 A 
ATOM     16  C   UNL d   1     -46.963  13.082  23.191  0.00  0.00     0.196 A 
ATOM     17  C   UNL d   1     -47.013  14.433  22.690  0.00  0.00     0.003 C 
ATOM     18  C   UNL d   1     -46.550  12.364  23.278  0.00  0.00     0.041 A 
ATOM     19  O   UNL d   1     -47.725  13.170  23.510  0.00  0.00    -0.287 OA
ATOM     20  C   UNL d   1     -45.789  12.268  22.962  0.00  0.00     0.025 A 
ATOM     21  C   UNL d   1     -46.907  11.736  23.687  0.00  0.00     0.003 C 
ENDBRANCH  12  13
ENDBRANCH   1  12
TORSDOF 5
ENDMDL
MODEL 9
REMARK VINA RESULT:      -4.2      4.407      6.862
REMARK  5 active torsions:
REMARK  status: ('A' for Active; 'I' for Inactive)
REMARK    1  A    between atoms: N_8  and  C_6 
REMARK    2  A    between atoms: C_7  and  O_9 
REMARK    3  A    between atoms: C_10  and  C_7 
REMARK    4  A    between atoms: O_9  and  N_8 
REMARK    5  A    between atoms: O_20  and  C_15 
ROOT
ATOM      1  O   UNL d   1     -42.891  12.984  20.532  0.00  0.00    -0.169 OA
ENDROOT
BRANCH   1   2
ATOM      2  C   UNL d   1     -43.469  12.607  21.529  0.00  0.00     0.319 C 
ATOM      3  O   UNL d   1     -43.008  12.125  21.991  0.00  0.00    -0.257 OA
BRANCH   2   4
ATOM      4  C   UNL d   1     -44.109  12.688  21.835  0.00  0.00     0.065 A 
ATOM      5  C   UNL d   1     -44.316  12.237  22.336  0.00  0.00     0.007 A 
ATOM      6  C   UNL d   1     -44.950  12.317  22.639  0.00  0.00     0.024 A 
ATOM      7  C   UNL d   1     -45.370  12.852  22.433  0.00  0.00     0.094 A 
ATOM      8  C   UNL d   1     -45.157  13.301  21.929  0.00  0.00     0.024 A 
ATOM      9  C   UNL d   1     -44.530  13.222  21.630  0.00  0.00     0.007 A 
BRANCH   7  10
ATOM     10  O   UNL d   1     -46.011  12.933  22.739  0.00  0.00    -0.328 OA
ATOM     11  C   UNL d   1     -46.516  13.615  23.185  0.00  0.00     0.181 C 
ENDBRANCH   7  10
ENDBRANCH   2   4
ENDBRANCH   1   2
BRANCH   1  12
ATOM     12  N   UNL d   1     -41.996  13.473  21.342  0.00  0.00    -0.123 NA
BRANCH  12  13
ATOM     13  C   UNL d   1     -41.356  13.968  21.157  0.00  0.00     0.108 A 
ATOM     14  C   UNL d   1     -40.592  13.721  21.344  0.00  0.00     0.025 A 
ATOM     15  C   UNL d   1     -39.942  14.206  21.165  0.00  0.00     0.041 A 
ATOM     16  C   UNL d   1     -40.066  14.948  20.792  0.00  0.00     0.196 A 
ATOM     17  C   UNL d   1     -39.166  13.968  21.348  0.00  0.00     0.003 C 
ATOM     18  C   UNL d   1     -40.841  15.186  20.608  0.00  0.00     0.041 A 
ATOM     19  O   UNL d   1     -39.420  15.439  20.610  0.00  0.00    -0.287 OA
ATOM     20  C   UNL d   1     -41.491  14.702  20.788  0.00  0.00     0.025 A 
ATOM     21  C   UNL d   1     -40.966  15.920  20.240  0.00  0.00     0.003 C 
ENDBRANCH  12  13
ENDBRANCH   1  12
TORSDOF 5
ENDMDL
