MODEL 1
REMARK VINA RESULT:     -11.5      0.000      0.000
REMARK  1 active torsions:
REMARK  status: ('A' for Active; 'I' for Inactive)
REMARK    1  A    between atoms: C_9  and  C_1 
ROOT
ATOM      1  C   UNL d   1      53.524  32.497  53.747  0.00  0.00     0.087 A 
ATOM      2  N   UNL d   1      53.611  31.667  53.608  0.00  0.00    -0.191 NA
ATOM      3  C   UNL d   1      52.908  32.910  53.403  0.00  0.00     0.036 A 
ATOM      4  C   UNL d   1      53.029  31.284  53.097  0.00  0.00     0.369 A 
ATOM      5  N   UNL d   1      52.408  31.763  52.766  0.00  0.00    -0.191 NA
ATOM      6  C   UNL d   1      52.356  32.547  52.918  0.00  0.00     0.088 A 
ATOM      7  C   UNL d   1      52.863  33.737  53.571  0.00  0.00     0.014 A 
ATOM      8  O   UNL d   1      53.042  30.436  52.901  0.00  0.00    -0.242 OA
ATOM      9  C   UNL d   1      51.747  33.002  52.591  0.00  0.00     0.020 A 
ATOM     10  C   UNL d   1      52.266  34.187  53.250  0.00  0.00     0.058 A 
ATOM     11  C   UNL d   1      51.685  33.805  52.740  0.00  0.00     0.013 A 
ATOM     12 CL   UNL d   1      52.235  35.023  53.430  0.00  0.00    -0.082 Cl
ENDROOT
BRANCH   1  13
ATOM     13  C   UNL d   1      54.055  32.846  54.213  0.00  0.00     0.018 A 
ATOM     14  C   UNL d   1      53.929  32.864  55.022  0.00  0.00     0.002 A 
ATOM     15  C   UNL d   1      54.459  33.218  55.541  0.00  0.00     0.000 A 
ATOM     16  C   UNL d   1      55.193  33.595  55.212  0.00  0.00     0.000 A 
ATOM     17  C   UNL d   1      55.300  33.566  54.394  0.00  0.00     0.000 A 
ATOM     18  C   UNL d   1      54.740  33.198  53.903  0.00  0.00     0.002 A 
ENDBRANCH   1  13
TORSDOF 1
ENDMDL
MODEL 2
REMARK VINA RESULT:     -11.1      0.816      2.724
REMARK  1 active torsions:
REMARK  status: ('A' for Active; 'I' for Inactive)
REMARK    1  A    between atoms: C_9  and  C_1 
ROOT
ATOM      1  C   UNL d   1      52.445  32.692  53.162  0.00  0.00     0.087 A 
ATOM      2  N   UNL d   1      52.426  31.954  52.748  0.00  0.00    -0.191 NA
ATOM      3  C   UNL d   1      53.019  32.834  53.726  0.00  0.00     0.036 A 
ATOM      4  C   UNL d   1      53.030  31.370  52.945  0.00  0.00     0.369 A 
ATOM      5  N   UNL d   1      53.604  31.570  53.540  0.00  0.00    -0.191 NA
ATOM      6  C   UNL d   1      53.593  32.278  53.913  0.00  0.00     0.088 A 
ATOM      7  C   UNL d   1      52.998  33.584  54.112  0.00  0.00     0.014 A 
ATOM      8  O   UNL d   1      53.085  30.587  52.569  0.00  0.00    -0.242 OA
ATOM      9  C   UNL d   1      54.157  32.462  54.491  0.00  0.00     0.020 A 
ATOM     10  C   UNL d   1      53.550  33.768  54.680  0.00  0.00     0.058 A 
ATOM     11  C   UNL d   1      54.154  33.184  54.877  0.00  0.00     0.013 A 
ATOM     12 CL   UNL d   1      53.514  34.533  55.062  0.00  0.00    -0.082 Cl
ENDROOT
BRANCH   1  13
ATOM     13  C   UNL d   1      51.893  33.225  52.982  0.00  0.00     0.018 A 
ATOM     14  C   UNL d   1      51.175  33.210  53.376  0.00  0.00     0.002 A 
ATOM     15  C   UNL d   1      50.575  33.749  53.217  0.00  0.00     0.000 A 
ATOM     16  C   UNL d   1      50.712  34.369  52.596  0.00  0.00     0.000 A 
ATOM     17  C   UNL d   1      51.442  34.367  52.211  0.00  0.00     0.000 A 
ATOM     18  C   UNL d   1      52.023  33.805  52.401  0.00  0.00     0.002 A 
ENDBRANCH   1  13
TORSDOF 1
ENDMDL
MODEL 3
REMARK VINA RESULT:     -10.8      1.983      3.449
REMARK  1 active torsions:
REMARK  status: ('A' for Active; 'I' for Inactive)
REMARK    1  A    between atoms: C_9  and  C_1 
ROOT
ATOM      1  C   UNL d   1      52.564  33.770  53.740  0.00  0.00     0.087 A 
ATOM      2  N   UNL d   1      52.808  34.414  54.231  0.00  0.00    -0.191 NA
ATOM      3  C   UNL d   1      52.971  33.061  53.759  0.00  0.00     0.036 A 
ATOM      4  C   UNL d   1      53.492  34.291  54.743  0.00  0.00     0.369 A 
ATOM      5  N   UNL d   1      53.878  33.533  54.722  0.00  0.00    -0.191 NA
ATOM      6  C   UNL d   1      53.621  32.944  54.245  0.00  0.00     0.088 A 
ATOM      7  C   UNL d   1      52.691  32.447  53.252  0.00  0.00     0.014 A 
ATOM      8  O   UNL d   1      53.810  34.899  55.279  0.00  0.00    -0.242 OA
ATOM      9  C   UNL d   1      54.005  32.210  54.233  0.00  0.00     0.020 A 
ATOM     10  C   UNL d   1      53.066  31.724  53.238  0.00  0.00     0.058 A 
ATOM     11  C   UNL d   1      53.750  31.601  53.749  0.00  0.00     0.013 A 
ATOM     12 CL   UNL d   1      52.769  31.113  52.718  0.00  0.00    -0.082 Cl
ENDROOT
BRANCH   1  13
ATOM     13  C   UNL d   1      51.939  33.882  53.273  0.00  0.00     0.018 A 
ATOM     14  C   UNL d   1      52.048  34.196  52.525  0.00  0.00     0.002 A 
ATOM     15  C   UNL d   1      51.423  34.329  52.008  0.00  0.00     0.000 A 
ATOM     16  C   UNL d   1      50.600  34.123  52.273  0.00  0.00     0.000 A 
ATOM     17  C   UNL d   1      50.512  33.807  53.030  0.00  0.00     0.000 A 
ATOM     18  C   UNL d   1      51.171  33.689  53.523  0.00  0.00     0.002 A 
ENDBRANCH   1  13
TORSDOF 1
ENDMDL
MODEL 4
REMARK VINA RESULT:     -10.8      1.675      2.308
REMARK  1 active torsions:
REMARK  status: ('A' for Active; 'I' for Inactive)
REMARK    1  A    between atoms: C_9  and  C_1 
ROOT
ATOM      1  C   UNL d   1      53.304  32.916  53.615  0.00  0.00     0.087 A 
ATOM      2  N   UNL d   1      52.837  33.548  53.301  0.00  0.00    -0.191 NA
ATOM      3  C   UNL d   1      53.146  32.143  53.404  0.00  0.00     0.036 A 
ATOM      4  C   UNL d   1      52.197  33.342  52.760  0.00  0.00     0.369 A 
ATOM      5  N   UNL d   1      52.077  32.520  52.575  0.00  0.00    -0.191 NA
ATOM      6  C   UNL d   1      52.538  31.946  52.889  0.00  0.00     0.088 A 
ATOM      7  C   UNL d   1      53.639  31.546  53.742  0.00  0.00     0.014 A 
ATOM      8  O   UNL d   1      51.668  33.926  52.391  0.00  0.00    -0.242 OA
ATOM      9  C   UNL d   1      52.412  31.150  52.702  0.00  0.00     0.020 A 
ATOM     10  C   UNL d   1      53.517  30.763  53.560  0.00  0.00     0.058 A 
ATOM     11  C   UNL d   1      52.878  30.556  53.018  0.00  0.00     0.013 A 
ATOM     12 CL   UNL d   1      54.026  30.171  53.911  0.00  0.00    -0.082 Cl
ENDROOT
BRANCH   1  13
ATOM     13  C   UNL d   1      53.888  33.105  54.109  0.00  0.00     0.018 A 
ATOM     14  C   UNL d   1      54.632  33.272  53.808  0.00  0.00     0.002 A 
ATOM     15  C   UNL d   1      55.266  33.472  54.291  0.00  0.00     0.000 A 
ATOM     16  C   UNL d   1      55.139  33.509  55.169  0.00  0.00     0.000 A 
ATOM     17  C   UNL d   1      54.383  33.337  55.452  0.00  0.00     0.000 A 
ATOM     18  C   UNL d   1      53.767  33.138  54.930  0.00  0.00     0.002 A 
ENDBRANCH   1  13
TORSDOF 1
ENDMDL
MODEL 5
REMARK VINA RESULT:     -10.1      1.690      2.547
REMARK  1 active torsions:
REMARK  status: ('A' for Active; 'I' for Inactive)
REMARK    1  A    between atoms: C_9  and  C_1 
ROOT
ATOM      1  C   UNL d   1      53.886  32.872  54.275  0.00  0.00     0.087 A 
ATOM      2  N   UNL d   1      54.573  32.996  54.753  0.00  0.00    -0.191 NA
ATOM      3  C   UNL d   1      53.386  33.495  54.103  0.00  0.00     0.036 A 
ATOM      4  C   UNL d   1      54.718  33.795  55.045  0.00  0.00     0.369 A 
ATOM      5  N   UNL d   1      54.164  34.406  54.835  0.00  0.00    -0.191 NA
ATOM      6  C   UNL d   1      53.523  34.254  54.381  0.00  0.00     0.088 A 
ATOM      7  C   UNL d   1      52.713  33.323  53.623  0.00  0.00     0.014 A 
ATOM      8  O   UNL d   1      55.399  34.012  55.541  0.00  0.00    -0.242 OA
ATOM      9  C   UNL d   1      52.991  34.857  54.183  0.00  0.00     0.020 A 
ATOM     10  C   UNL d   1      52.187  33.913  53.427  0.00  0.00     0.058 A 
ATOM     11  C   UNL d   1      52.332  34.712  53.719  0.00  0.00     0.013 A 
ATOM     12 CL   UNL d   1      51.511  33.721  52.940  0.00  0.00    -0.082 Cl
ENDROOT
BRANCH   1  13
ATOM     13  C   UNL d   1      53.754  32.142  54.008  0.00  0.00     0.018 A 
ATOM     14  C   UNL d   1      53.376  31.600  54.492  0.00  0.00     0.002 A 
ATOM     15  C   UNL d   1      53.220  30.830  54.251  0.00  0.00     0.000 A 
ATOM     16  C   UNL d   1      53.470  30.578  53.437  0.00  0.00     0.000 A 
ATOM     17  C   UNL d   1      53.849  31.140  52.965  0.00  0.00     0.000 A 
ATOM     18  C   UNL d   1      53.989  31.909  53.246  0.00  0.00     0.002 A 
ENDBRANCH   1  13
TORSDOF 1
ENDMDL
MODEL 6
REMARK VINA RESULT:      -9.8      1.609      2.800
REMARK  1 active torsions:
REMARK  status: ('A' for Active; 'I' for Inactive)
REMARK    1  A    between atoms: C_9  and  C_1 
ROOT
ATOM      1  C   UNL d   1      52.722  32.626  53.174  0.00  0.00     0.087 A 
ATOM      2  N   UNL d   1      52.212  32.927  52.569  0.00  0.00    -0.191 NA
ATOM      3  C   UNL d   1      53.041  33.131  53.732  0.00  0.00     0.036 A 
ATOM      4  C   UNL d   1      52.047  33.774  52.570  0.00  0.00     0.369 A 
ATOM      5  N   UNL d   1      52.406  34.253  53.175  0.00  0.00    -0.191 NA
ATOM      6  C   UNL d   1      52.885  33.936  53.733  0.00  0.00     0.088 A 
ATOM      7  C   UNL d   1      53.545  32.785  54.316  0.00  0.00     0.014 A 
ATOM      8  O   UNL d   1      51.535  34.167  51.987  0.00  0.00    -0.242 OA
ATOM      9  C   UNL d   1      53.228  34.411  54.317  0.00  0.00     0.020 A 
ATOM     10  C   UNL d   1      53.884  33.250  54.891  0.00  0.00     0.058 A 
ATOM     11  C   UNL d   1      53.719  34.097  54.892  0.00  0.00     0.013 A 
ATOM     12 CL   UNL d   1      54.391  32.883  55.474  0.00  0.00    -0.082 Cl
ENDROOT
BRANCH   1  13
ATOM     13  C   UNL d   1      52.873  31.853  53.173  0.00  0.00     0.018 A 
ATOM     14  C   UNL d   1      52.299  31.331  53.439  0.00  0.00     0.002 A 
ATOM     15  C   UNL d   1      52.417  30.518  53.454  0.00  0.00     0.000 A 
ATOM     16  C   UNL d   1      53.195  30.195  53.172  0.00  0.00     0.000 A 
ATOM     17  C   UNL d   1      53.759  30.736  52.908  0.00  0.00     0.000 A 
ATOM     18  C   UNL d   1      53.600  31.552  52.909  0.00  0.00     0.002 A 
ENDBRANCH   1  13
TORSDOF 1
ENDMDL
MODEL 7
REMARK VINA RESULT:      -9.2      2.197      2.557
REMARK  1 active torsions:
REMARK  status: ('A' for Active; 'I' for Inactive)
REMARK    1  A    between atoms: C_9  and  C_1 
ROOT
ATOM      1  C   UNL d   1      53.170  34.175  54.114  0.00  0.00     0.087 A 
ATOM      2  N   UNL d   1      53.458  34.906  54.430  0.00  0.00    -0.191 NA
ATOM      3  C   UNL d   1      52.434  34.142  53.759  0.00  0.00     0.036 A 
ATOM      4  C   UNL d   1      52.949  35.599  54.361  0.00  0.00     0.369 A 
ATOM      5  N   UNL d   1      52.193  35.507  53.982  0.00  0.00    -0.191 NA
ATOM      6  C   UNL d   1      51.951  34.801  53.694  0.00  0.00     0.088 A 
ATOM      7  C   UNL d   1      52.189  33.392  53.459  0.00  0.00     0.014 A 
ATOM      8  O   UNL d   1      53.166  36.388  54.658  0.00  0.00    -0.242 OA
ATOM      9  C   UNL d   1      51.212  34.724  53.327  0.00  0.00     0.020 A 
ATOM     10  C   UNL d   1      51.464  33.312  53.098  0.00  0.00     0.058 A 
ATOM     11  C   UNL d   1      50.956  34.006  53.029  0.00  0.00     0.013 A 
ATOM     12 CL   UNL d   1      51.231  32.545  52.799  0.00  0.00    -0.082 Cl
ENDROOT
BRANCH   1  13
ATOM     13  C   UNL d   1      53.634  33.542  54.177  0.00  0.00     0.018 A 
ATOM     14  C   UNL d   1      53.624  33.103  54.868  0.00  0.00     0.002 A 
ATOM     15  C   UNL d   1      54.093  32.436  54.972  0.00  0.00     0.000 A 
ATOM     16  C   UNL d   1      54.630  32.184  54.311  0.00  0.00     0.000 A 
ATOM     17  C   UNL d   1      54.625  32.640  53.623  0.00  0.00     0.000 A 
ATOM     18  C   UNL d   1      54.135  33.308  53.557  0.00  0.00     0.002 A 
ENDBRANCH   1  13
TORSDOF 1
ENDMDL
