MODEL 1
REMARK VINA RESULT:      -2.7      0.000      0.000
REMARK  3 active torsions:
REMARK  status: ('A' for Active; 'I' for Inactive)
REMARK    1  A    between atoms: S_8  and  C_2 
REMARK    2  A    between atoms: C_13  and  S_8 
REMARK    3  A    between atoms: C_15  and  C_13 
ROOT
ATOM      1  C   UNL d   1      31.030  16.667 -24.136  0.00  0.00     0.104 A 
ATOM      2  C   UNL d   1      32.399  17.466 -23.688  0.00  0.00     0.182 A 
ATOM      3  N   UNL d   1      32.323  16.659 -23.535  0.00  0.00    -0.251 N 
ATOM      4  C   UNL d   1      31.629  16.260 -23.764  0.00  0.00     0.274 A 
ATOM      5  C   UNL d   1      31.105  17.474 -24.288  0.00  0.00     0.095 A 
ATOM      6  N   UNL d   1      31.780  17.874 -24.069  0.00  0.00    -0.222 NA
ATOM      7  S   UNL d   1      30.297  16.424 -24.419  0.00  0.00    -0.081 SA
ATOM      8  C   UNL d   1      30.419  17.729 -24.666  0.00  0.00     0.026 A 
ATOM      9  O   UNL d   1      31.553  15.453 -23.611  0.00  0.00    -0.266 OA
ATOM     10  C   UNL d   1      29.921  17.086 -24.747  0.00  0.00     0.031 A 
ATOM     11  C   UNL d   1      32.937  16.247 -23.155  0.00  0.00     0.104 C 
ATOM     12  C   UNL d   1      29.174  17.104 -25.097  0.00  0.00     0.007 C 
ENDROOT
BRANCH   2  13
ATOM     13  S   UNL d   1      33.089  17.875 -23.463  0.00  0.00    -0.050 SA
BRANCH  13  14
ATOM     14  C   UNL d   1      33.071  18.698 -23.392  0.00  0.00     0.032 C 
ATOM     15  C   UNL d   1      33.175  19.172 -24.060  0.00  0.00     0.007 C 
BRANCH  14  16
ATOM     16  C   UNL d   1      32.949  19.043 -22.656  0.00  0.00     0.007 C 
ATOM     17  C   UNL d   1      33.233  19.804 -22.507  0.00  0.00     0.001 C 
ENDBRANCH  14  16
ENDBRANCH  13  14
ENDBRANCH   2  13
TORSDOF 3
ENDMDL
MODEL 2
REMARK VINA RESULT:      -2.5      1.226      3.159
REMARK  3 active torsions:
REMARK  status: ('A' for Active; 'I' for Inactive)
REMARK    1  A    between atoms: S_8  and  C_2 
REMARK    2  A    between atoms: C_13  and  S_8 
REMARK    3  A    between atoms: C_15  and  C_13 
ROOT
ATOM      1  C   UNL d   1      32.176  17.287 -24.078  0.00  0.00     0.104 A 
ATOM      2  C   UNL d   1      30.764  16.441 -23.998  0.00  0.00     0.182 A 
ATOM      3  N   UNL d   1      31.436  16.163 -23.608  0.00  0.00    -0.251 N 
ATOM      4  C   UNL d   1      32.147  16.595 -23.652  0.00  0.00     0.274 A 
ATOM      5  C   UNL d   1      31.504  17.566 -24.469  0.00  0.00     0.095 A 
ATOM      6  N   UNL d   1      30.804  17.152 -24.432  0.00  0.00    -0.222 NA
ATOM      7  S   UNL d   1      32.787  17.819 -24.218  0.00  0.00    -0.081 SA
ATOM      8  C   UNL d   1      31.702  18.270 -24.849  0.00  0.00     0.026 A 
ATOM      9  O   UNL d   1      32.818  16.316 -23.261  0.00  0.00    -0.266 OA
ATOM     10  C   UNL d   1      32.489  18.427 -24.696  0.00  0.00     0.031 A 
ATOM     11  C   UNL d   1      31.402  15.455 -23.173  0.00  0.00     0.104 C 
ATOM     12  C   UNL d   1      32.906  19.082 -24.975  0.00  0.00     0.007 C 
ENDROOT
BRANCH   2  13
ATOM     13  S   UNL d   1      30.048  16.017 -23.960  0.00  0.00    -0.050 SA
BRANCH  13  14
ATOM     14  C   UNL d   1      29.343  16.387 -24.180  0.00  0.00     0.032 C 
ATOM     15  C   UNL d   1      29.118  16.409 -24.973  0.00  0.00     0.007 C 
BRANCH  14  16
ATOM     16  C   UNL d   1      28.866  16.732 -23.606  0.00  0.00     0.007 C 
ATOM     17  C   UNL d   1      28.055  16.578 -23.598  0.00  0.00     0.001 C 
ENDBRANCH  14  16
ENDBRANCH  13  14
ENDBRANCH   2  13
TORSDOF 3
ENDMDL
MODEL 3
REMARK VINA RESULT:      -2.4      1.947      2.696
REMARK  3 active torsions:
REMARK  status: ('A' for Active; 'I' for Inactive)
REMARK    1  A    between atoms: S_8  and  C_2 
REMARK    2  A    between atoms: C_13  and  S_8 
REMARK    3  A    between atoms: C_15  and  C_13 
ROOT
ATOM      1  C   UNL d   1      29.197  16.694 -24.216  0.00  0.00     0.104 A 
ATOM      2  C   UNL d   1      30.842  16.780 -24.248  0.00  0.00     0.182 A 
ATOM      3  N   UNL d   1      30.391  17.333 -24.662  0.00  0.00    -0.251 N 
ATOM      4  C   UNL d   1      29.560  17.285 -24.642  0.00  0.00     0.274 A 
ATOM      5  C   UNL d   1      29.648  16.141 -23.802  0.00  0.00     0.095 A 
ATOM      6  N   UNL d   1      30.462  16.179 -23.814  0.00  0.00    -0.222 NA
ATOM      7  S   UNL d   1      28.404  16.512 -24.098  0.00  0.00    -0.081 SA
ATOM      8  C   UNL d   1      29.133  15.617 -23.428  0.00  0.00     0.026 A 
ATOM      9  O   UNL d   1      29.109  17.838 -25.056  0.00  0.00    -0.266 OA
ATOM     10  C   UNL d   1      28.369  15.844 -23.609  0.00  0.00     0.031 A 
ATOM     11  C   UNL d   1      30.765  17.935 -25.096  0.00  0.00     0.104 C 
ATOM     12  C   UNL d   1      27.686  15.464 -23.344  0.00  0.00     0.007 C 
ENDROOT
BRANCH   2  13
ATOM     13  S   UNL d   1      31.675  16.820 -24.261  0.00  0.00    -0.050 SA
BRANCH  13  14
ATOM     14  C   UNL d   1      32.117  16.222 -23.902  0.00  0.00     0.032 C 
ATOM     15  C   UNL d   1      32.221  15.499 -24.285  0.00  0.00     0.007 C 
BRANCH  14  16
ATOM     16  C   UNL d   1      32.452  16.349 -23.162  0.00  0.00     0.007 C 
ATOM     17  C   UNL d   1      33.241  16.143 -23.028  0.00  0.00     0.001 C 
ENDBRANCH  14  16
ENDBRANCH  13  14
ENDBRANCH   2  13
TORSDOF 3
ENDMDL
MODEL 4
REMARK VINA RESULT:      -2.2      3.707      5.355
REMARK  3 active torsions:
REMARK  status: ('A' for Active; 'I' for Inactive)
REMARK    1  A    between atoms: S_8  and  C_2 
REMARK    2  A    between atoms: C_13  and  S_8 
REMARK    3  A    between atoms: C_15  and  C_13 
ROOT
ATOM      1  C   UNL d   1      33.239  20.981 -22.663  0.00  0.00     0.104 A 
ATOM      2  C   UNL d   1      33.240  22.286 -21.658  0.00  0.00     0.182 A 
ATOM      3  N   UNL d   1      33.240  22.395 -22.476  0.00  0.00    -0.251 N 
ATOM      4  C   UNL d   1      33.239  21.731 -22.979  0.00  0.00     0.274 A 
ATOM      5  C   UNL d   1      33.239  20.873 -21.845  0.00  0.00     0.095 A 
ATOM      6  N   UNL d   1      33.239  21.514 -21.344  0.00  0.00    -0.222 NA
ATOM      7  S   UNL d   1      33.238  20.238 -23.016  0.00  0.00    -0.081 SA
ATOM      8  C   UNL d   1      33.238  20.063 -21.694  0.00  0.00     0.026 A 
ATOM      9  O   UNL d   1      33.239  21.840 -23.797  0.00  0.00    -0.266 OA
ATOM     10  C   UNL d   1      33.238  19.672 -22.411  0.00  0.00     0.031 A 
ATOM     11  C   UNL d   1      33.241  23.162 -22.794  0.00  0.00     0.104 C 
ATOM     12  C   UNL d   1      33.237  18.852 -22.506  0.00  0.00     0.007 C 
ENDROOT
BRANCH   2  13
ATOM     13  S   UNL d   1      33.241  22.943 -21.145  0.00  0.00    -0.050 SA
BRANCH  13  14
ATOM     14  C   UNL d   1      32.790  22.921 -20.453  0.00  0.00     0.032 C 
ATOM     15  C   UNL d   1      31.975  23.044 -20.488  0.00  0.00     0.007 C 
BRANCH  14  16
ATOM     16  C   UNL d   1      33.156  22.776 -19.731  0.00  0.00     0.007 C 
ATOM     17  C   UNL d   1      32.832  23.085 -19.037  0.00  0.00     0.001 C 
ENDBRANCH  14  16
ENDBRANCH  13  14
ENDBRANCH   2  13
TORSDOF 3
ENDMDL
MODEL 5
REMARK VINA RESULT:      -2.2      2.291      4.227
REMARK  3 active torsions:
REMARK  status: ('A' for Active; 'I' for Inactive)
REMARK    1  A    between atoms: S_8  and  C_2 
REMARK    2  A    between atoms: C_13  and  S_8 
REMARK    3  A    between atoms: C_15  and  C_13 
ROOT
ATOM      1  C   UNL d   1      33.234  20.483 -22.457  0.00  0.00     0.104 A 
ATOM      2  C   UNL d   1      33.234  19.082 -23.324  0.00  0.00     0.182 A 
ATOM      3  N   UNL d   1      33.237  19.809 -23.714  0.00  0.00    -0.251 N 
ATOM      4  C   UNL d   1      33.237  20.514 -23.270  0.00  0.00     0.274 A 
ATOM      5  C   UNL d   1      33.231  19.756 -22.067  0.00  0.00     0.095 A 
ATOM      6  N   UNL d   1      33.231  19.060 -22.491  0.00  0.00    -0.222 NA
ATOM      7  S   UNL d   1      33.233  21.075 -21.886  0.00  0.00    -0.081 SA
ATOM      8  C   UNL d   1      33.228  19.899 -21.256  0.00  0.00     0.026 A 
ATOM      9  O   UNL d   1      33.240  21.242 -23.660  0.00  0.00    -0.266 OA
ATOM     10  C   UNL d   1      33.230  20.709 -21.143  0.00  0.00     0.031 A 
ATOM     11  C   UNL d   1      33.240  19.837 -24.545  0.00  0.00     0.104 C 
ATOM     12  C   UNL d   1      33.228  21.086 -20.409  0.00  0.00     0.007 C 
ENDROOT
BRANCH   2  13
ATOM     13  S   UNL d   1      33.234  18.371 -23.759  0.00  0.00    -0.050 SA
BRANCH  13  14
ATOM     14  C   UNL d   1      32.737  17.752 -23.528  0.00  0.00     0.032 C 
ATOM     15  C   UNL d   1      31.923  17.811 -23.647  0.00  0.00     0.007 C 
BRANCH  14  16
ATOM     16  C   UNL d   1      33.056  17.079 -23.180  0.00  0.00     0.007 C 
ATOM     17  C   UNL d   1      32.799  16.332 -23.419  0.00  0.00     0.001 C 
ENDBRANCH  14  16
ENDBRANCH  13  14
ENDBRANCH   2  13
TORSDOF 3
ENDMDL
MODEL 6
REMARK VINA RESULT:      -2.0      2.448      3.591
REMARK  3 active torsions:
REMARK  status: ('A' for Active; 'I' for Inactive)
REMARK    1  A    between atoms: S_8  and  C_2 
REMARK    2  A    between atoms: C_13  and  S_8 
REMARK    3  A    between atoms: C_15  and  C_13 
ROOT
ATOM      1  C   UNL d   1      33.063  19.122 -23.690  0.00  0.00     0.104 A 
ATOM      2  C   UNL d   1      33.127  20.436 -22.699  0.00  0.00     0.182 A 
ATOM      3  N   UNL d   1      33.168  20.533 -23.517  0.00  0.00    -0.251 N 
ATOM      4  C   UNL d   1      33.135  19.865 -24.013  0.00  0.00     0.274 A 
ATOM      5  C   UNL d   1      33.022  19.024 -22.872  0.00  0.00     0.095 A 
ATOM      6  N   UNL d   1      33.053  19.670 -22.377  0.00  0.00    -0.222 NA
ATOM      7  S   UNL d   1      33.018  18.376 -24.035  0.00  0.00    -0.081 SA
ATOM      8  C   UNL d   1      32.952  18.219 -22.712  0.00  0.00     0.026 A 
ATOM      9  O   UNL d   1      33.176  19.962 -24.832  0.00  0.00    -0.266 OA
ATOM     10  C   UNL d   1      32.949  17.820 -23.425  0.00  0.00     0.031 A 
ATOM     11  C   UNL d   1      33.241  21.294 -23.843  0.00  0.00     0.104 C 
ATOM     12  C   UNL d   1      32.888  17.001 -23.512  0.00  0.00     0.007 C 
ENDROOT
BRANCH   2  13
ATOM     13  S   UNL d   1      33.159  21.098 -22.193  0.00  0.00    -0.050 SA
BRANCH  13  14
ATOM     14  C   UNL d   1      32.849  21.042 -21.429  0.00  0.00     0.032 C 
ATOM     15  C   UNL d   1      33.236  20.588 -20.859  0.00  0.00     0.007 C 
BRANCH  14  16
ATOM     16  C   UNL d   1      32.156  21.441 -21.239  0.00  0.00     0.007 C 
ATOM     17  C   UNL d   1      32.152  21.986 -20.619  0.00  0.00     0.001 C 
ENDBRANCH  14  16
ENDBRANCH  13  14
ENDBRANCH   2  13
TORSDOF 3
ENDMDL
MODEL 7
REMARK VINA RESULT:      -1.8      0.906      3.246
REMARK  3 active torsions:
REMARK  status: ('A' for Active; 'I' for Inactive)
REMARK    1  A    between atoms: S_8  and  C_2 
REMARK    2  A    between atoms: C_13  and  S_8 
REMARK    3  A    between atoms: C_15  and  C_13 
ROOT
ATOM      1  C   UNL d   1      32.548  17.273 -23.946  0.00  0.00     0.104 A 
ATOM      2  C   UNL d   1      31.154  16.706 -24.615  0.00  0.00     0.182 A 
ATOM      3  N   UNL d   1      31.831  16.235 -24.610  0.00  0.00    -0.251 N 
ATOM      4  C   UNL d   1      32.533  16.527 -24.271  0.00  0.00     0.274 A 
ATOM      5  C   UNL d   1      31.871  17.744 -23.950  0.00  0.00     0.095 A 
ATOM      6  N   UNL d   1      31.179  17.469 -24.280  0.00  0.00    -0.222 NA
ATOM      7  S   UNL d   1      33.149  17.700 -23.580  0.00  0.00    -0.081 SA
ATOM      8  C   UNL d   1      32.053  18.461 -23.587  0.00  0.00     0.026 A 
ATOM      9  O   UNL d   1      33.211  16.056 -24.266  0.00  0.00    -0.266 OA
ATOM     10  C   UNL d   1      32.838  18.435 -23.359  0.00  0.00     0.031 A 
ATOM     11  C   UNL d   1      31.812  15.474 -24.943  0.00  0.00     0.104 C 
ATOM     12  C   UNL d   1      33.241  19.044 -22.975  0.00  0.00     0.007 C 
ENDROOT
BRANCH   2  13
ATOM     13  S   UNL d   1      30.446  16.423 -24.952  0.00  0.00    -0.050 SA
BRANCH  13  14
ATOM     14  C   UNL d   1      29.722  16.623 -24.608  0.00  0.00     0.032 C 
ATOM     15  C   UNL d   1      29.473  16.244 -23.919  0.00  0.00     0.007 C 
BRANCH  14  16
ATOM     16  C   UNL d   1      29.251  17.201 -24.955  0.00  0.00     0.007 C 
ATOM     17  C   UNL d   1      28.428  17.143 -24.908  0.00  0.00     0.001 C 
ENDBRANCH  14  16
ENDBRANCH  13  14
ENDBRANCH   2  13
TORSDOF 3
ENDMDL
MODEL 8
REMARK VINA RESULT:      -1.4      1.787      3.914
REMARK  3 active torsions:
REMARK  status: ('A' for Active; 'I' for Inactive)
REMARK    1  A    between atoms: S_8  and  C_2 
REMARK    2  A    between atoms: C_13  and  S_8 
REMARK    3  A    between atoms: C_15  and  C_13 
ROOT
ATOM      1  C   UNL d   1      31.196  17.298 -24.346  0.00  0.00     0.104 A 
ATOM      2  C   UNL d   1      29.654  16.717 -24.364  0.00  0.00     0.182 A 
ATOM      3  N   UNL d   1      29.827  17.441 -24.720  0.00  0.00    -0.251 N 
ATOM      4  C   UNL d   1      30.608  17.730 -24.708  0.00  0.00     0.274 A 
ATOM      5  C   UNL d   1      31.023  16.574 -23.990  0.00  0.00     0.095 A 
ATOM      6  N   UNL d   1      30.263  16.282 -23.996  0.00  0.00    -0.222 NA
ATOM      7  S   UNL d   1      32.000  17.441 -24.250  0.00  0.00    -0.081 SA
ATOM      8  C   UNL d   1      31.721  16.271 -23.674  0.00  0.00     0.026 A 
ATOM      9  O   UNL d   1      30.781  18.454 -25.064  0.00  0.00    -0.266 OA
ATOM     10  C   UNL d   1      32.322  16.802 -23.833  0.00  0.00     0.031 A 
ATOM     11  C   UNL d   1      29.224  17.879 -25.088  0.00  0.00     0.104 C 
ATOM     12  C   UNL d   1      33.111  16.707 -23.611  0.00  0.00     0.007 C 
ENDROOT
BRANCH   2  13
ATOM     13  S   UNL d   1      28.876  16.419 -24.370  0.00  0.00    -0.050 SA
BRANCH  13  14
ATOM     14  C   UNL d   1      28.521  16.191 -23.660  0.00  0.00     0.032 C 
ATOM     15  C   UNL d   1      28.561  16.686 -23.001  0.00  0.00     0.007 C 
BRANCH  14  16
ATOM     16  C   UNL d   1      28.129  15.470 -23.611  0.00  0.00     0.007 C 
ATOM     17  C   UNL d   1      27.319  15.453 -23.449  0.00  0.00     0.001 C 
ENDBRANCH  14  16
ENDBRANCH  13  14
ENDBRANCH   2  13
TORSDOF 3
ENDMDL
MODEL 9
REMARK VINA RESULT:      -1.2      1.425      1.795
REMARK  3 active torsions:
REMARK  status: ('A' for Active; 'I' for Inactive)
REMARK    1  A    between atoms: S_8  and  C_2 
REMARK    2  A    between atoms: C_13  and  S_8 
REMARK    3  A    between atoms: C_15  and  C_13 
ROOT
ATOM      1  C   UNL d   1      29.509  16.915 -24.046  0.00  0.00     0.104 A 
ATOM      2  C   UNL d   1      31.096  16.497 -23.899  0.00  0.00     0.182 A 
ATOM      3  N   UNL d   1      30.519  16.082 -23.480  0.00  0.00    -0.251 N 
ATOM      4  C   UNL d   1      29.718  16.298 -23.557  0.00  0.00     0.274 A 
ATOM      5  C   UNL d   1      30.086  17.329 -24.465  0.00  0.00     0.095 A 
ATOM      6  N   UNL d   1      30.872  17.127 -24.397  0.00  0.00    -0.222 NA
ATOM      7  S   UNL d   1      28.778  17.245 -24.228  0.00  0.00    -0.081 SA
ATOM      8  C   UNL d   1      29.711  17.916 -24.907  0.00  0.00     0.026 A 
ATOM      9  O   UNL d   1      29.141  15.883 -23.138  0.00  0.00    -0.266 OA
ATOM     10  C   UNL d   1      28.908  17.865 -24.762  0.00  0.00     0.031 A 
ATOM     11  C   UNL d   1      30.737  15.453 -22.982  0.00  0.00     0.104 C 
ATOM     12  C   UNL d   1      28.333  18.354 -25.097  0.00  0.00     0.007 C 
ENDROOT
BRANCH   2  13
ATOM     13  S   UNL d   1      31.900  16.289 -23.829  0.00  0.00    -0.050 SA
BRANCH  13  14
ATOM     14  C   UNL d   1      32.460  16.876 -23.673  0.00  0.00     0.032 C 
ATOM     15  C   UNL d   1      32.887  17.214 -24.293  0.00  0.00     0.007 C 
BRANCH  14  16
ATOM     16  C   UNL d   1      32.591  17.121 -22.899  0.00  0.00     0.007 C 
ATOM     17  C   UNL d   1      33.241  17.600 -22.724  0.00  0.00     0.001 C 
ENDBRANCH  14  16
ENDBRANCH  13  14
ENDBRANCH   2  13
TORSDOF 3
ENDMDL
