MODEL 1
REMARK VINA RESULT:      -6.9      0.000      0.000
REMARK  4 active torsions:
REMARK  status: ('A' for Active; 'I' for Inactive)
REMARK    1  A    between atoms: N_10  and  C_1 
REMARK       I    between atoms: C_12  and  N_10 
REMARK    2  A    between atoms: C_17  and  C_12 
REMARK    3  A    between atoms: C_18  and  C_17 
REMARK    4  A    between atoms: C_19  and  C_18 
ROOT
ATOM      1  C   UNL d   1     -47.015  13.733  22.979  0.00  0.00     0.197 A 
ATOM      2  C   UNL d   1     -48.332  13.706  23.001  0.00  0.00     0.057 A 
ATOM      3  C   UNL d   1     -49.107  13.526  23.060  0.00  0.00     0.056 A 
ATOM      4  N   UNL d   1     -47.252  14.466  22.775  0.00  0.00    -0.221 NA
ATOM      5  S   UNL d   1     -47.661  13.230  23.128  0.00  0.00    -0.046 SA
ATOM      6  N   UNL d   1     -50.401  13.760  23.007  0.00  0.00    -0.238 NA
ATOM      7  S   UNL d   1     -49.501  12.850  23.255  0.00  0.00    -0.066 SA
ATOM      8  C   UNL d   1     -48.084  14.455  22.787  0.00  0.00     0.090 A 
ATOM      9  C   UNL d   1     -49.683  14.096  22.905  0.00  0.00     0.088 A 
ATOM     10  C   UNL d   1     -50.343  13.007  23.219  0.00  0.00     0.111 A 
ATOM     11  C   UNL d   1     -49.461  14.852  22.689  0.00  0.00     0.021 A 
ATOM     12  C   UNL d   1     -48.644  15.033  22.629  0.00  0.00     0.021 A 
ATOM     13  C   UNL d   1     -50.968  12.479  23.375  0.00  0.00     0.028 C 
ENDROOT
BRANCH   1  14
ATOM     14  N   UNL d   1     -46.204  13.483  23.042  0.00  0.00    -0.183 NA
ATOM     15  C   UNL d   1     -45.819  13.245  22.366  0.00  0.00     0.281 C 
ATOM     16  O   UNL d   1     -46.270  13.270  21.647  0.00  0.00    -0.265 OA
BRANCH  15  17
ATOM     17  C   UNL d   1     -45.074  13.015  22.423  0.00  0.00     0.063 C 
BRANCH  17  18
ATOM     18  C   UNL d   1     -44.545  12.959  21.635  0.00  0.00     0.005 C 
BRANCH  18  19
ATOM     19  C   UNL d   1     -43.666  12.615  21.694  0.00  0.00     0.000 C 
ATOM     20  C   UNL d   1     -42.985  12.842  21.282  0.00  0.00     0.000 C 
ENDBRANCH  18  19
ENDBRANCH  17  18
ENDBRANCH  15  17
ENDBRANCH   1  14
TORSDOF 4
ENDMDL
MODEL 2
REMARK VINA RESULT:      -5.1      8.678      9.303
REMARK  4 active torsions:
REMARK  status: ('A' for Active; 'I' for Inactive)
REMARK    1  A    between atoms: N_10  and  C_1 
REMARK       I    between atoms: C_12  and  N_10 
REMARK    2  A    between atoms: C_17  and  C_12 
REMARK    3  A    between atoms: C_18  and  C_17 
REMARK    4  A    between atoms: C_19  and  C_18 
ROOT
ATOM      1  C   UNL d   1     -39.506  15.553  19.651  0.00  0.00     0.197 A 
ATOM      2  C   UNL d   1     -39.939  15.681  18.414  0.00  0.00     0.057 A 
ATOM      3  C   UNL d   1     -40.356  15.754  17.738  0.00  0.00     0.056 A 
ATOM      4  N   UNL d   1     -38.854  15.585  19.194  0.00  0.00    -0.221 NA
ATOM      5  S   UNL d   1     -40.202  15.610  19.201  0.00  0.00    -0.046 SA
ATOM      6  N   UNL d   1     -40.524  15.882  16.439  0.00  0.00    -0.238 NA
ATOM      7  S   UNL d   1     -41.146  15.784  17.580  0.00  0.00    -0.066 SA
ATOM      8  C   UNL d   1     -39.122  15.665  18.410  0.00  0.00     0.090 A 
ATOM      9  C   UNL d   1     -39.970  15.816  17.012  0.00  0.00     0.088 A 
ATOM     10  C   UNL d   1     -41.251  15.867  16.734  0.00  0.00     0.111 A 
ATOM     11  C   UNL d   1     -39.155  15.803  16.981  0.00  0.00     0.021 A 
ATOM     12  C   UNL d   1     -38.723  15.726  17.696  0.00  0.00     0.021 A 
ATOM     13  C   UNL d   1     -41.966  15.922  16.310  0.00  0.00     0.028 C 
ENDROOT
BRANCH   1  14
ATOM     14  N   UNL d   1     -39.503  15.472  20.498  0.00  0.00    -0.183 NA
ATOM     15  C   UNL d   1     -39.420  14.728  20.816  0.00  0.00     0.281 C 
ATOM     16  O   UNL d   1     -39.342  14.089  20.262  0.00  0.00    -0.265 OA
BRANCH  15  17
ATOM     17  C   UNL d   1     -39.417  14.653  21.595  0.00  0.00     0.063 C 
BRANCH  17  18
ATOM     18  C   UNL d   1     -39.002  13.893  21.986  0.00  0.00     0.005 C 
BRANCH  18  19
ATOM     19  C   UNL d   1     -39.074  13.757  22.919  0.00  0.00     0.000 C 
ATOM     20  C   UNL d   1     -38.637  13.256  23.411  0.00  0.00     0.000 C 
ENDBRANCH  18  19
ENDBRANCH  17  18
ENDBRANCH  15  17
ENDBRANCH   1  14
TORSDOF 4
ENDMDL
