MODEL 1
REMARK VINA RESULT:      56.5      0.000      0.000
REMARK  4 active torsions:
REMARK  status: ('A' for Active; 'I' for Inactive)
REMARK    1  A    between atoms: N_2  and  S_1 
REMARK    2  A    between atoms: C_3  and  S_1 
REMARK    3  A    between atoms: C_11  and  N_2 
REMARK    4  A    between atoms: C_6  and  C_7 
ROOT
ATOM      1  S   UNL d   1     -55.270-102.102 -38.303  0.00  0.00     0.285 S 
ATOM      2  O   UNL d   1     -55.729-101.576 -38.738  0.00  0.00    -0.198 OA
ATOM      3  O   UNL d   1     -54.800-102.627 -37.850  0.00  0.00    -0.198 OA
ENDROOT
BRANCH   1   4
ATOM      4  N   UNL d   1     -55.351-102.669 -38.886  0.00  0.00    -0.158 NA
BRANCH   4   5
ATOM      5  C   UNL d   1     -55.279-102.464 -39.679  0.00  0.00     0.094 A 
ATOM      6  C   UNL d   1     -55.731-101.826 -39.952  0.00  0.00     0.020 A 
ATOM      7  C   UNL d   1     -55.667-101.607 -40.758  0.00  0.00     0.005 A 
ATOM      8  C   UNL d   1     -55.161-102.025 -41.258  0.00  0.00     0.039 A 
ATOM      9  C   UNL d   1     -54.713-102.657 -40.984  0.00  0.00     0.005 A 
ATOM     10  C   UNL d   1     -54.775-102.875 -40.193  0.00  0.00     0.020 A 
BRANCH   8  11
ATOM     11  C   UNL d   1     -55.102-101.798 -42.067  0.00  0.00     0.196 C 
ATOM     12  O   UNL d   1     -55.357-101.046 -42.287  0.00  0.00    -0.287 OA
ATOM     13  C   UNL d   1     -54.791-102.335 -42.610  0.00  0.00     0.045 C 
ENDBRANCH   8  11
ENDBRANCH   4   5
ENDBRANCH   1   4
BRANCH   1  14
ATOM     14  C   UNL d   1     -55.180-101.504 -37.683  0.00  0.00     0.105 A 
ATOM     15  C   UNL d   1     -55.187-100.718 -37.893  0.00  0.00     0.015 A 
ATOM     16  C   UNL d   1     -55.104-100.131 -37.317  0.00  0.00     0.022 A 
ATOM     17  C   UNL d   1     -55.014-100.346 -36.534  0.00  0.00     0.103 A 
ATOM     18  C   UNL d   1     -55.006-101.160 -36.314  0.00  0.00     0.022 A 
ATOM     19  N   UNL d   1     -54.928 -99.743 -35.942  0.00  0.00    -0.148 N 
ATOM     20  C   UNL d   1     -55.093-101.726 -36.918  0.00  0.00     0.015 A 
ENDBRANCH   1  14
TORSDOF 4
ENDMDL
