MODEL 1
REMARK VINA RESULT:      90.2      0.000      0.000
REMARK  3 active torsions:
REMARK  status: ('A' for Active; 'I' for Inactive)
REMARK    1  A    between atoms: C_9  and  C_1 
REMARK    2  A    between atoms: C_4  and  C_9 
REMARK       I    between atoms: N_5  and  C_4 
REMARK    3  A    between atoms: C_10  and  N_8 
ROOT
ATOM      1  C   UNL d   1      60.958  48.933  50.143  0.00  0.00     0.265 C 
ATOM      2  N   UNL d   1      61.048  48.115  50.206  0.00  0.00    -0.269 N 
ATOM      3  N   UNL d   1      61.231  46.465  50.343  0.00  0.00    -0.299 N 
ATOM      4  C   UNL d   1      61.100  47.763  50.963  0.00  0.00     0.102 A 
ATOM      5  C   UNL d   1      61.088  47.649  49.536  0.00  0.00     0.102 A 
ATOM      6  C   UNL d   1      61.178  46.832  49.608  0.00  0.00     0.100 A 
ATOM      7  C   UNL d   1      61.190  46.946  51.034  0.00  0.00     0.100 A 
ATOM      8  O   UNL d   1      60.907  49.281  49.398  0.00  0.00    -0.267 OA
ENDROOT
BRANCH   1   9
ATOM      9  C   UNL d   1      60.918  49.408  50.824  0.00  0.00     0.063 C 
BRANCH   9  10
ATOM     10  C   UNL d   1      60.195  49.496  51.218  0.00  0.00     0.024 A 
ATOM     11  C   UNL d   1      60.103  49.548  52.029  0.00  0.00     0.080 A 
ATOM     12  N   UNL d   1      59.295  49.631  52.190  0.00  0.00    -0.303 N 
ATOM     13  C   UNL d   1      58.945  49.703  52.931  0.00  0.00     0.100 C 
ATOM     14  C   UNL d   1      58.899  49.629  51.468  0.00  0.00     0.064 A 
ATOM     15  C   UNL d   1      59.454  49.546  50.876  0.00  0.00     0.018 A 
ATOM     16  C   UNL d   1      58.094  49.693  51.284  0.00  0.00     0.018 A 
ATOM     17  C   UNL d   1      59.211  49.526  50.088  0.00  0.00     0.002 A 
ATOM     18  C   UNL d   1      58.417  49.589  49.901  0.00  0.00     0.000 A 
ATOM     19  C   UNL d   1      57.855  49.673  50.499  0.00  0.00     0.002 A 
ENDBRANCH   9  10
ENDBRANCH   1   9
BRANCH   3  20
ATOM     20  C   UNL d   1      61.320  45.660  50.419  0.00  0.00     0.092 A 
ATOM     21  C   UNL d   1      61.734  45.228  49.847  0.00  0.00     0.156 A 
ATOM     22  F   UNL d   1      62.054  45.615  49.203  0.00  0.00    -0.203 F 
ATOM     23  C   UNL d   1      61.819  44.409  49.934  0.00  0.00     0.031 A 
ATOM     24  C   UNL d   1      61.488  44.030  50.593  0.00  0.00     0.002 A 
ATOM     25  C   UNL d   1      61.081  44.461  51.154  0.00  0.00     0.002 A 
ATOM     26  C   UNL d   1      60.998  45.277  51.065  0.00  0.00     0.020 A 
ENDBRANCH   3  20
TORSDOF 3
ENDMDL
