MODEL 1
REMARK VINA RESULT:      54.8      0.000      0.000
REMARK  2 active torsions:
REMARK  status: ('A' for Active; 'I' for Inactive)
REMARK    1  A    between atoms: C_7  and  C_3 
REMARK    2  A    between atoms: N_9  and  C_8 
ROOT
ATOM      1  N   UNL d   1      14.220  13.867  -2.333  0.00  0.00    -0.227 NA
ATOM      2  N   UNL d   1      13.806  14.719  -3.389  0.00  0.00    -0.227 NA
ATOM      3  C   UNL d   1      14.183  14.620  -2.653  0.00  0.00     0.162 A 
ATOM      4  C   UNL d   1      13.484  14.061  -3.771  0.00  0.00     0.085 A 
ATOM      5  C   UNL d   1      13.895  13.199  -2.715  0.00  0.00     0.085 A 
ATOM      6  C   UNL d   1      13.525  13.296  -3.438  0.00  0.00     0.035 A 
ATOM      7  C   UNL d   1      13.193  12.641  -3.839  0.00  0.00     0.003 A 
ATOM      8  C   UNL d   1      13.100  14.162  -4.520  0.00  0.00     0.019 A 
ATOM      9  C   UNL d   1      13.939  12.445  -2.381  0.00  0.00     0.019 A 
ATOM     10  C   UNL d   1      13.615  11.779  -2.763  0.00  0.00     0.002 A 
ATOM     11  C   UNL d   1      12.776  13.494  -4.902  0.00  0.00     0.002 A 
ATOM     12  C   UNL d   1      13.245  11.877  -3.486  0.00  0.00     0.000 A 
ATOM     13  C   UNL d   1      12.820  12.740  -4.568  0.00  0.00     0.000 A 
ENDROOT
BRANCH   3  14
ATOM     14  C   UNL d   1      14.513  15.245  -2.246  0.00  0.00     0.036 A 
ATOM     15  C   UNL d   1      14.764  15.148  -1.468  0.00  0.00     0.004 A 
ATOM     16  C   UNL d   1      15.098  15.775  -1.054  0.00  0.00     0.018 A 
ATOM     17  C   UNL d   1      15.184  16.503  -1.409  0.00  0.00     0.064 A 
ATOM     18  C   UNL d   1      14.935  16.609  -2.192  0.00  0.00     0.018 A 
ATOM     19  C   UNL d   1      14.604  15.981  -2.598  0.00  0.00     0.004 A 
BRANCH  17  20
ATOM     20  N   UNL d   1      15.518  17.130  -0.995  0.00  0.00    -0.301 N 
ATOM     21  C   UNL d   1      16.070  16.990  -0.403  0.00  0.00     0.100 C 
ATOM     22  C   UNL d   1      15.297  17.898  -1.176  0.00  0.00     0.100 C 
ENDBRANCH  17  20
ENDBRANCH   3  14
TORSDOF 2
ENDMDL
MODEL 2
REMARK VINA RESULT:      56.5      0.971      4.354
REMARK  2 active torsions:
REMARK  status: ('A' for Active; 'I' for Inactive)
REMARK    1  A    between atoms: C_7  and  C_3 
REMARK    2  A    between atoms: N_9  and  C_8 
ROOT
ATOM      1  N   UNL d   1      14.683  14.280  -1.901  0.00  0.00    -0.227 NA
ATOM      2  N   UNL d   1      14.403  15.395  -2.733  0.00  0.00    -0.227 NA
ATOM      3  C   UNL d   1      14.384  14.572  -2.605  0.00  0.00     0.162 A 
ATOM      4  C   UNL d   1      14.721  15.889  -2.152  0.00  0.00     0.085 A 
ATOM      5  C   UNL d   1      15.006  14.775  -1.309  0.00  0.00     0.085 A 
ATOM      6  C   UNL d   1      15.024  15.583  -1.435  0.00  0.00     0.035 A 
ATOM      7  C   UNL d   1      15.343  16.098  -0.857  0.00  0.00     0.003 A 
ATOM      8  C   UNL d   1      14.740  16.725  -2.282  0.00  0.00     0.019 A 
ATOM      9  C   UNL d   1      15.305  14.469  -0.603  0.00  0.00     0.019 A 
ATOM     10  C   UNL d   1      15.626  14.963  -0.014  0.00  0.00     0.002 A 
ATOM     11  C   UNL d   1      15.062  17.220  -1.691  0.00  0.00     0.002 A 
ATOM     12  C   UNL d   1      15.645  15.771  -0.140  0.00  0.00     0.000 A 
ATOM     13  C   UNL d   1      15.361  16.913  -0.984  0.00  0.00     0.000 A 
ENDROOT
BRANCH   3  14
ATOM     14  C   UNL d   1      14.079  14.053  -3.155  0.00  0.00     0.036 A 
ATOM     15  C   UNL d   1      13.669  13.382  -2.911  0.00  0.00     0.004 A 
ATOM     16  C   UNL d   1      13.360  12.856  -3.462  0.00  0.00     0.018 A 
ATOM     17  C   UNL d   1      13.455  12.993  -4.259  0.00  0.00     0.064 A 
ATOM     18  C   UNL d   1      13.865  13.666  -4.514  0.00  0.00     0.018 A 
ATOM     19  C   UNL d   1      14.170  14.185  -3.960  0.00  0.00     0.004 A 
BRANCH  17  20
ATOM     20  N   UNL d   1      13.145  12.467  -4.811  0.00  0.00    -0.301 N 
ATOM     21  C   UNL d   1      13.206  12.625  -5.615  0.00  0.00     0.100 C 
ATOM     22  C   UNL d   1      12.775  11.783  -4.555  0.00  0.00     0.100 C 
ENDBRANCH  17  20
ENDBRANCH   3  14
TORSDOF 2
ENDMDL
MODEL 3
REMARK VINA RESULT:      57.7      1.187      1.884
REMARK  2 active torsions:
REMARK  status: ('A' for Active; 'I' for Inactive)
REMARK    1  A    between atoms: C_7  and  C_3 
REMARK    2  A    between atoms: N_9  and  C_8 
ROOT
ATOM      1  N   UNL d   1      14.819  14.208  -0.675  0.00  0.00    -0.227 NA
ATOM      2  N   UNL d   1      14.539  14.342  -2.060  0.00  0.00    -0.227 NA
ATOM      3  C   UNL d   1      14.781  14.684  -1.340  0.00  0.00     0.162 A 
ATOM      4  C   UNL d   1      14.346  13.540  -2.082  0.00  0.00     0.085 A 
ATOM      5  C   UNL d   1      14.625  13.395  -0.693  0.00  0.00     0.085 A 
ATOM      6  C   UNL d   1      14.387  13.059  -1.400  0.00  0.00     0.035 A 
ATOM      7  C   UNL d   1      14.187  12.248  -1.441  0.00  0.00     0.003 A 
ATOM      8  C   UNL d   1      14.099  13.192  -2.814  0.00  0.00     0.019 A 
ATOM      9  C   UNL d   1      14.667  12.925  -0.015  0.00  0.00     0.019 A 
ATOM     10  C   UNL d   1      14.472  12.115  -0.034  0.00  0.00     0.002 A 
ATOM     11  C   UNL d   1      13.905  12.380  -2.832  0.00  0.00     0.002 A 
ATOM     12  C   UNL d   1      14.234  11.779  -0.741  0.00  0.00     0.000 A 
ATOM     13  C   UNL d   1      13.947  11.909  -2.154  0.00  0.00     0.000 A 
ENDROOT
BRANCH   3  14
ATOM     14  C   UNL d   1      14.980  15.473  -1.278  0.00  0.00     0.036 A 
ATOM     15  C   UNL d   1      15.359  15.755  -0.603  0.00  0.00     0.004 A 
ATOM     16  C   UNL d   1      15.561  16.549  -0.537  0.00  0.00     0.018 A 
ATOM     17  C   UNL d   1      15.389  17.069  -1.140  0.00  0.00     0.064 A 
ATOM     18  C   UNL d   1      15.009  16.794  -1.823  0.00  0.00     0.018 A 
ATOM     19  C   UNL d   1      14.811  16.003  -1.882  0.00  0.00     0.004 A 
BRANCH  17  20
ATOM     20  N   UNL d   1      15.592  17.863  -1.073  0.00  0.00    -0.301 N 
ATOM     21  C   UNL d   1      16.352  18.080  -0.850  0.00  0.00     0.100 C 
ATOM     22  C   UNL d   1      15.031  18.438  -1.231  0.00  0.00     0.100 C 
ENDBRANCH  17  20
ENDBRANCH   3  14
TORSDOF 2
ENDMDL
MODEL 4
REMARK VINA RESULT:      57.7      1.480      2.355
REMARK  2 active torsions:
REMARK  status: ('A' for Active; 'I' for Inactive)
REMARK    1  A    between atoms: C_7  and  C_3 
REMARK    2  A    between atoms: N_9  and  C_8 
ROOT
ATOM      1  N   UNL d   1      13.740  14.118  -4.186  0.00  0.00    -0.227 NA
ATOM      2  N   UNL d   1      14.333  14.148  -2.898  0.00  0.00    -0.227 NA
ATOM      3  C   UNL d   1      14.164  14.529  -3.619  0.00  0.00     0.162 A 
ATOM      4  C   UNL d   1      14.070  13.375  -2.776  0.00  0.00     0.085 A 
ATOM      5  C   UNL d   1      13.471  13.336  -4.068  0.00  0.00     0.085 A 
ATOM      6  C   UNL d   1      13.637  12.962  -3.360  0.00  0.00     0.035 A 
ATOM      7  C   UNL d   1      13.377  12.179  -3.219  0.00  0.00     0.003 A 
ATOM      8  C   UNL d   1      14.241  12.988  -2.043  0.00  0.00     0.019 A 
ATOM      9  C   UNL d   1      13.043  12.933  -4.649  0.00  0.00     0.019 A 
ATOM     10  C   UNL d   1      12.775  12.153  -4.530  0.00  0.00     0.002 A 
ATOM     11  C   UNL d   1      13.973  12.206  -1.925  0.00  0.00     0.002 A 
ATOM     12  C   UNL d   1      12.941  11.779  -3.821  0.00  0.00     0.000 A 
ATOM     13  C   UNL d   1      13.545  11.802  -2.505  0.00  0.00     0.000 A 
ENDROOT
BRANCH   3  14
ATOM     14  C   UNL d   1      14.408  15.291  -3.776  0.00  0.00     0.036 A 
ATOM     15  C   UNL d   1      14.464  15.559  -4.553  0.00  0.00     0.004 A 
ATOM     16  C   UNL d   1      14.708  16.327  -4.716  0.00  0.00     0.018 A 
ATOM     17  C   UNL d   1      14.899  16.835  -4.108  0.00  0.00     0.064 A 
ATOM     18  C   UNL d   1      14.846  16.574  -3.323  0.00  0.00     0.018 A 
ATOM     19  C   UNL d   1      14.602  15.809  -3.169  0.00  0.00     0.004 A 
BRANCH  17  20
ATOM     20  N   UNL d   1      15.144  17.603  -4.271  0.00  0.00    -0.301 N 
ATOM     21  C   UNL d   1      14.782  18.241  -3.901  0.00  0.00     0.100 C 
ATOM     22  C   UNL d   1      15.752  17.730  -4.805  0.00  0.00     0.100 C 
ENDBRANCH  17  20
ENDBRANCH   3  14
TORSDOF 2
ENDMDL
