MODEL 1
REMARK VINA RESULT:      56.1      0.000      0.000
REMARK  3 active torsions:
REMARK  status: ('A' for Active; 'I' for Inactive)
REMARK    1  A    between atoms: C_8  and  N_2 
REMARK    2  A    between atoms: C_14  and  C_8 
REMARK    3  A    between atoms: N_13  and  C_14 
ROOT
ATOM      1  C   UNL d   1     -57.862 -98.850 -44.581  0.00  0.00     0.166 A 
ATOM      2  N   UNL d   1     -58.669 -98.810 -44.700  0.00  0.00    -0.288 N 
ATOM      3  C   UNL d   1     -57.669 -98.882 -43.776  0.00  0.00     0.117 A 
ATOM      4  C   UNL d   1     -58.371 -98.862 -43.398  0.00  0.00     0.037 A 
ATOM      5  C   UNL d   1     -59.002 -98.816 -43.977  0.00  0.00     0.067 A 
ATOM      6  N   UNL d   1     -57.261 -98.862 -45.096  0.00  0.00    -0.225 NA
ATOM      7  N   UNL d   1     -56.892 -98.926 -43.491  0.00  0.00    -0.241 NA
ATOM      8  C   UNL d   1     -56.480 -98.906 -44.807  0.00  0.00     0.101 A 
ATOM      9  C   UNL d   1     -56.300 -98.938 -44.002  0.00  0.00     0.099 A 
ATOM     10  C   UNL d   1     -59.778 -98.787 -43.757  0.00  0.00     0.018 A 
ATOM     11  C   UNL d   1     -58.529 -98.878 -42.612  0.00  0.00     0.010 A 
ATOM     12  C   UNL d   1     -59.297 -98.849 -42.386  0.00  0.00     0.035 A 
ATOM     13  C   UNL d   1     -59.929 -98.804 -42.965  0.00  0.00     0.008 A 
ATOM     14 BR   UNL d   1     -59.490 -98.864 -41.605  0.00  0.00    -0.049 Br
ATOM     15  C   UNL d   1     -55.517 -98.982 -43.724  0.00  0.00     0.021 A 
ATOM     16  C   UNL d   1     -55.886 -98.918 -45.323  0.00  0.00     0.021 A 
ATOM     17  C   UNL d   1     -55.109 -98.962 -45.036  0.00  0.00     0.002 A 
ATOM     18  C   UNL d   1     -54.926 -98.993 -44.236  0.00  0.00     0.002 A 
ENDROOT
BRANCH   2  19
ATOM     19  C   UNL d   1     -59.095 -98.769 -45.433  0.00  0.00     0.101 C 
BRANCH  19  20
ATOM     20  C   UNL d   1     -59.671 -99.366 -45.577  0.00  0.00     0.100 C 
BRANCH  20  21
ATOM     21  N   UNL d   1     -59.679 -99.457 -46.414  0.00  0.00    -0.298 N 
ATOM     22  C   UNL d   1     -59.531-100.216 -46.755  0.00  0.00     0.107 A 
ATOM     23  C   UNL d   1     -59.539-100.307 -47.584  0.00  0.00     0.142 A 
ATOM     24  O   UNL d   1     -59.693 -99.647 -48.078  0.00  0.00    -0.300 OA
ATOM     25  C   UNL d   1     -59.840 -98.895 -47.732  0.00  0.00     0.142 A 
ATOM     26  C   UNL d   1     -59.833 -98.801 -46.899  0.00  0.00     0.107 A 
ENDBRANCH  20  21
ENDBRANCH  19  20
ENDBRANCH   2  19
TORSDOF 3
ENDMDL
