MODEL 1
REMARK VINA RESULT:      22.9      0.000      0.000
REMARK  9 active torsions:
REMARK  status: ('A' for Active; 'I' for Inactive)
REMARK    1  A    between atoms: N_8  and  C_1 
REMARK    2  A    between atoms: S_2  and  C_13 
REMARK    3  A    between atoms: N_7  and  S_2 
REMARK    4  A    between atoms: C_12  and  C_3 
REMARK       I    between atoms: C_10  and  N_8 
REMARK       I    between atoms: C_11  and  N_9 
REMARK    5  A    between atoms: C_21  and  C_10 
REMARK    6  A    between atoms: O_33  and  C_11 
REMARK    7  A    between atoms: C_34  and  N_14 
REMARK    8  A    between atoms: C_35  and  O_33 
REMARK    9  A    between atoms: C_36  and  C_34 
ROOT
ATOM      1  C   UNL d   1     -41.750-122.475 -51.061  0.00  0.00     0.104 A 
ATOM      2  C   UNL d   1     -41.687-122.008 -52.642  0.00  0.00     0.056 A 
ATOM      3  C   UNL d   1     -42.181-121.815 -51.323  0.00  0.00     0.013 A 
ATOM      4  C   UNL d   1     -41.284-122.903 -51.599  0.00  0.00     0.013 A 
ATOM      5  C   UNL d   1     -42.151-121.580 -52.109  0.00  0.00     0.005 A 
ATOM      6  C   UNL d   1     -41.255-122.663 -52.394  0.00  0.00     0.005 A 
ENDROOT
BRANCH   2   7
ATOM      7  C   UNL d   1     -41.653-121.776 -53.437  0.00  0.00     0.258 C 
ATOM      8  N   UNL d   1     -42.153-122.137 -53.995  0.00  0.00    -0.316 N 
ATOM      9  H   UNL d   1     -42.338-122.454 -53.468  0.00  0.00     0.169 HD
ATOM     10  O   UNL d   1     -41.126-121.187 -53.681  0.00  0.00    -0.267 OA
BRANCH   8  11
ATOM     11  C   UNL d   1     -42.120-121.906 -54.789  0.00  0.00     0.094 A 
ATOM     12  C   UNL d   1     -42.569-122.218 -55.405  0.00  0.00     0.082 A 
ATOM     13  C   UNL d   1     -42.367-121.834 -56.106  0.00  0.00     0.016 A 
ATOM     14  C   UNL d   1     -42.634-121.918 -56.884  0.00  0.00     0.020 A 
ATOM     15  C   UNL d   1     -41.785-121.276 -55.934  0.00  0.00     0.049 A 
ATOM     16  C   UNL d   1     -42.320-121.445 -57.480  0.00  0.00     0.080 A 
ATOM     17  N   UNL d   1     -41.740-120.888 -57.314  0.00  0.00    -0.302 N 
ATOM     18  C   UNL d   1     -41.469-120.800 -56.537  0.00  0.00     0.087 A 
ATOM     19  S   UNL d   1     -41.626-121.313 -55.121  0.00  0.00    -0.068 SA
BRANCH  12  20
ATOM     20  C   UNL d   1     -43.131-122.814 -55.341  0.00  0.00     0.299 C 
ATOM     21  O   UNL d   1     -43.897-122.680 -55.580  0.00  0.00    -0.264 OA
ATOM     22  N   UNL d   1     -42.914-123.543 -55.036  0.00  0.00    -0.102 N 
ENDBRANCH  12  20
BRANCH  17  23
ATOM     23  C   UNL d   1     -41.430-120.418 -57.913  0.00  0.00     0.080 C 
BRANCH  23  24
ATOM     24  C   UNL d   1     -41.621-119.616 -57.960  0.00  0.00     0.019 C 
ATOM     25  C   UNL d   1     -41.455-119.197 -58.645  0.00  0.00     0.002 C 
ENDBRANCH  23  24
ENDBRANCH  17  23
ENDBRANCH   8  11
ENDBRANCH   2   7
BRANCH   1  26
ATOM     26  S   UNL d   1     -41.781-122.710 -50.267  0.00  0.00     0.271 S 
ATOM     27  O   UNL d   1     -41.531-123.463 -50.518  0.00  0.00    -0.200 OA
ATOM     28  O   UNL d   1     -42.029-121.964 -50.021  0.00  0.00    -0.200 OA
BRANCH  26  29
ATOM     29  N   UNL d   1     -41.811-122.946 -49.478  0.00  0.00    -0.226 N 
ATOM     30  C   UNL d   1     -41.123-123.021 -49.038  0.00  0.00     0.111 A 
ATOM     31  C   UNL d   1     -41.169-123.260 -48.246  0.00  0.00     0.105 A 
ATOM     32  N   UNL d   1     -41.901-123.423 -47.898  0.00  0.00    -0.248 N 
ATOM     33  C   UNL d   1     -42.588-123.346 -48.343  0.00  0.00     0.105 A 
ATOM     34  C   UNL d   1     -41.943-123.658 -47.115  0.00  0.00     0.378 C 
ATOM     35  C   UNL d   1     -42.539-123.109 -49.128  0.00  0.00     0.111 A 
ATOM     36  O   UNL d   1     -41.253-123.733 -46.676  0.00  0.00    -0.237 OA
BRANCH  34  37
ATOM     37  O   UNL d   1     -42.668-123.817 -46.777  0.00  0.00    -0.257 OA
BRANCH  37  38
ATOM     38  C   UNL d   1     -43.238-123.233 -46.739  0.00  0.00     0.128 C 
ATOM     39  C   UNL d   1     -43.981-123.351 -47.091  0.00  0.00     0.029 C 
ENDBRANCH  37  38
ENDBRANCH  34  37
ENDBRANCH  26  29
ENDBRANCH   1  26
TORSDOF 9
ENDMDL
