MODEL 1
REMARK VINA RESULT:      70.2      0.000      0.000
REMARK  8 active torsions:
REMARK  status: ('A' for Active; 'I' for Inactive)
REMARK    1  A    between atoms: C_8  and  N_1 
REMARK    2  A    between atoms: C_6  and  C_2 
REMARK    3  A    between atoms: S_7  and  C_4 
REMARK    4  A    between atoms: C_12  and  S_7 
REMARK    5  A    between atoms: C_9  and  C_12 
REMARK    6  A    between atoms: O_14  and  C_9 
REMARK    7  A    between atoms: O_16  and  C_13 
REMARK    8  A    between atoms: C_21  and  O_14 
ROOT
ATOM      1  N   UNL d   1     -55.117-101.219 -43.187  0.00  0.00    -0.269 N 
ATOM      2  C   UNL d   1     -54.961-101.819 -43.725  0.00  0.00     0.171 A 
ATOM      3  N   UNL d   1     -54.721-102.480 -43.277  0.00  0.00    -0.128 NA
ATOM      4  C   UNL d   1     -54.976-101.507 -42.426  0.00  0.00     0.201 A 
ATOM      5  N   UNL d   1     -54.726-102.306 -42.496  0.00  0.00    -0.121 NA
ENDROOT
BRANCH   2   6
ATOM      6  C   UNL d   1     -55.046-101.715 -44.516  0.00  0.00     0.038 A 
ATOM      7  C   UNL d   1     -55.372-102.312 -44.983  0.00  0.00     0.027 A 
ATOM      8  C   UNL d   1     -55.468-102.235 -45.773  0.00  0.00     0.094 A 
ATOM      9  C   UNL d   1     -55.230-101.517 -46.150  0.00  0.00     0.024 A 
ATOM     10  C   UNL d   1     -54.905-100.920 -45.683  0.00  0.00     0.002 A 
ATOM     11  C   UNL d   1     -54.817-101.028 -44.870  0.00  0.00     0.003 A 
BRANCH   8  12
ATOM     12  O   UNL d   1     -55.805-102.866 -46.223  0.00  0.00    -0.328 OA
ATOM     13  C   UNL d   1     -56.417-102.701 -46.753  0.00  0.00     0.181 C 
ENDBRANCH   8  12
ENDBRANCH   2   6
BRANCH   1  14
ATOM     14  C   UNL d   1     -55.369-100.495 -43.503  0.00  0.00     0.067 A 
ATOM     15  C   UNL d   1     -56.174-100.363 -43.598  0.00  0.00     0.018 A 
ATOM     16  C   UNL d   1     -56.421 -99.636 -43.915  0.00  0.00     0.002 A 
ATOM     17  C   UNL d   1     -55.881 -99.051 -44.132  0.00  0.00     0.000 A 
ATOM     18  C   UNL d   1     -55.070 -99.190 -44.033  0.00  0.00     0.002 A 
ATOM     19  C   UNL d   1     -54.823 -99.918 -43.716  0.00  0.00     0.018 A 
ENDBRANCH   1  14
BRANCH   4  20
ATOM     20  S   UNL d   1     -55.070-101.063 -41.703  0.00  0.00    -0.042 SA
BRANCH  20  21
ATOM     21  C   UNL d   1     -54.711-101.289 -40.990  0.00  0.00     0.107 C 
BRANCH  21  22
ATOM     22  C   UNL d   1     -55.005-101.912 -40.545  0.00  0.00     0.307 C 
ATOM     23  O   UNL d   1     -55.557-102.457 -40.858  0.00  0.00    -0.258 OA
BRANCH  22  24
ATOM     24  O   UNL d   1     -54.744-102.002 -39.763  0.00  0.00    -0.271 OA
BRANCH  24  25
ATOM     25  C   UNL d   1     -54.809-101.380 -39.212  0.00  0.00     0.126 C 
ATOM     26  C   UNL d   1     -54.740-101.519 -38.398  0.00  0.00     0.029 C 
ENDBRANCH  24  25
ENDBRANCH  22  24
ENDBRANCH  21  22
ENDBRANCH  20  21
ENDBRANCH   4  20
TORSDOF 8
ENDMDL
