MODEL 1
REMARK VINA RESULT:      45.1      0.000      0.000
REMARK  9 active torsions:
REMARK  status: ('A' for Active; 'I' for Inactive)
REMARK    1  A    between atoms: N_2  and  S_1 
REMARK    2  A    between atoms: C_9  and  S_1 
REMARK    3  A    between atoms: C_4  and  N_2 
REMARK    4  A    between atoms: O_19  and  C_6 
REMARK    5  A    between atoms: O_22  and  C_7 
REMARK       I    between atoms: C_12  and  N_13 
REMARK    6  A    between atoms: C_20  and  C_12 
REMARK    7  A    between atoms: N_13  and  C_17 
REMARK    8  A    between atoms: O_18  and  C_20 
REMARK    9  A    between atoms: C_21  and  O_18 
ROOT
ATOM      1  C   UNL d   1      46.100 -18.667  40.457  0.00  0.00     0.105 A 
ATOM      2  C   UNL d   1      45.653 -19.004  39.850  0.00  0.00     0.015 A 
ATOM      3  C   UNL d   1      46.341 -17.899  40.410  0.00  0.00     0.015 A 
ATOM      4  C   UNL d   1      45.704 -17.772  39.157  0.00  0.00     0.085 A 
ATOM      5  C   UNL d   1      45.450 -18.557  39.189  0.00  0.00     0.020 A 
ATOM      6  C   UNL d   1      46.145 -17.436  39.754  0.00  0.00     0.020 A 
ENDROOT
BRANCH   1   7
ATOM      7  S   UNL d   1      46.305 -19.126  41.127  0.00  0.00     0.287 S 
ATOM      8  O   UNL d   1      46.627 -19.707  40.620  0.00  0.00    -0.198 OA
ATOM      9  O   UNL d   1      45.982 -18.542  41.612  0.00  0.00    -0.198 OA
BRANCH   7  10
ATOM     10  N   UNL d   1      46.510 -19.583  41.783  0.00  0.00    -0.139 NA
BRANCH  10  11
ATOM     11  C   UNL d   1      46.495 -19.272  42.542  0.00  0.00     0.182 A 
ATOM     12  N   UNL d   1      46.575 -19.753  43.181  0.00  0.00    -0.185 NA
ATOM     13  C   UNL d   1      46.559 -19.439  43.950  0.00  0.00     0.274 A 
ATOM     14  N   UNL d   1      46.465 -18.656  44.071  0.00  0.00    -0.181 NA
ATOM     15  C   UNL d   1      46.382 -18.150  43.433  0.00  0.00     0.185 A 
ATOM     16  C   UNL d   1      46.398 -18.474  42.638  0.00  0.00     0.084 A 
BRANCH  13  17
ATOM     17  O   UNL d   1      46.644 -19.953  44.613  0.00  0.00    -0.297 OA
ATOM     18  C   UNL d   1      46.003 -20.330  44.952  0.00  0.00     0.185 C 
ENDBRANCH  13  17
BRANCH  15  19
ATOM     19  O   UNL d   1      46.285 -17.333  43.590  0.00  0.00    -0.312 OA
ATOM     20  C   UNL d   1      45.712 -17.100  44.133  0.00  0.00     0.183 C 
ENDBRANCH  15  19
ENDBRANCH  10  11
ENDBRANCH   7  10
ENDBRANCH   1   7
BRANCH   4  21
ATOM     21  N   UNL d   1      45.509 -17.302  38.498  0.00  0.00    -0.206 NA
ATOM     22  C   UNL d   1      44.777 -17.018  38.429  0.00  0.00     0.304 C 
ATOM     23  O   UNL d   1      44.177 -17.173  39.003  0.00  0.00    -0.263 OA
BRANCH  22  24
ATOM     24  C   UNL d   1      44.562 -16.540  37.767  0.00  0.00     0.185 C 
BRANCH  24  25
ATOM     25  O   UNL d   1      44.453 -15.728  37.817  0.00  0.00    -0.300 OA
BRANCH  25  26
ATOM     26  C   UNL d   1      44.986 -15.241  37.460  0.00  0.00     0.100 A 
ATOM     27  C   UNL d   1      45.150 -14.498  37.807  0.00  0.00     0.025 A 
ATOM     28  C   UNL d   1      45.704 -13.967  37.456  0.00  0.00     0.002 A 
ATOM     29  C   UNL d   1      46.070 -14.165  36.802  0.00  0.00     0.000 A 
ATOM     30  C   UNL d   1      45.908 -14.931  36.434  0.00  0.00     0.002 A 
ATOM     31  C   UNL d   1      46.632 -13.616  36.452  0.00  0.00     0.000 C 
ATOM     32  C   UNL d   1      45.368 -15.432  36.791  0.00  0.00     0.025 A 
ENDBRANCH  25  26
ENDBRANCH  24  25
ENDBRANCH  22  24
ENDBRANCH   4  21
TORSDOF 9
ENDMDL
MODEL 2
REMARK VINA RESULT:      46.3      2.389      6.883
REMARK  9 active torsions:
REMARK  status: ('A' for Active; 'I' for Inactive)
REMARK    1  A    between atoms: N_2  and  S_1 
REMARK    2  A    between atoms: C_9  and  S_1 
REMARK    3  A    between atoms: C_4  and  N_2 
REMARK    4  A    between atoms: O_19  and  C_6 
REMARK    5  A    between atoms: O_22  and  C_7 
REMARK       I    between atoms: C_12  and  N_13 
REMARK    6  A    between atoms: C_20  and  C_12 
REMARK    7  A    between atoms: N_13  and  C_17 
REMARK    8  A    between atoms: O_18  and  C_20 
REMARK    9  A    between atoms: C_21  and  O_18 
ROOT
ATOM      1  C   UNL d   1      44.966 -16.257  37.637  0.00  0.00     0.105 A 
ATOM      2  C   UNL d   1      45.749 -16.012  37.734  0.00  0.00     0.015 A 
ATOM      3  C   UNL d   1      44.627 -16.765  38.164  0.00  0.00     0.015 A 
ATOM      4  C   UNL d   1      45.829 -16.805  38.903  0.00  0.00     0.085 A 
ATOM      5  C   UNL d   1      46.191 -16.286  38.372  0.00  0.00     0.020 A 
ATOM      6  C   UNL d   1      45.057 -17.049  38.811  0.00  0.00     0.020 A 
ENDROOT
BRANCH   1   7
ATOM      7  S   UNL d   1      44.520 -15.977  36.987  0.00  0.00     0.287 S 
ATOM      8  O   UNL d   1      45.078 -16.317  36.467  0.00  0.00    -0.198 OA
ATOM      9  O   UNL d   1      43.978 -15.646  37.514  0.00  0.00    -0.198 OA
BRANCH   7  10
ATOM     10  N   UNL d   1      44.085 -15.703  36.340  0.00  0.00    -0.139 NA
BRANCH  10  11
ATOM     11  C   UNL d   1      43.264 -15.728  36.337  0.00  0.00     0.182 A 
ATOM     12  N   UNL d   1      42.837 -15.046  36.335  0.00  0.00    -0.185 NA
ATOM     13  C   UNL d   1      42.006 -15.069  36.332  0.00  0.00     0.274 A 
ATOM     14  N   UNL d   1      41.616 -15.765  36.331  0.00  0.00    -0.181 NA
ATOM     15  C   UNL d   1      42.034 -16.469  36.332  0.00  0.00     0.185 A 
ATOM     16  C   UNL d   1      42.891 -16.446  36.335  0.00  0.00     0.084 A 
BRANCH  13  17
ATOM     17  O   UNL d   1      41.569 -14.349  36.331  0.00  0.00    -0.297 OA
ATOM     18  C   UNL d   1      40.986 -14.196  36.882  0.00  0.00     0.185 C 
ENDBRANCH  13  17
BRANCH  15  19
ATOM     19  O   UNL d   1      41.598 -17.184  36.330  0.00  0.00    -0.312 OA
ATOM     20  C   UNL d   1      40.775 -17.146  36.330  0.00  0.00     0.183 C 
ENDBRANCH  15  19
ENDBRANCH  10  11
ENDBRANCH   7  10
ENDBRANCH   1   7
BRANCH   4  21
ATOM     21  N   UNL d   1      46.258 -17.093  39.555  0.00  0.00    -0.206 NA
ATOM     22  C   UNL d   1      45.966 -17.692  39.977  0.00  0.00     0.304 C 
ATOM     23  O   UNL d   1      45.226 -18.056  39.792  0.00  0.00    -0.263 OA
BRANCH  22  24
ATOM     24  C   UNL d   1      46.387 -17.997  40.642  0.00  0.00     0.185 C 
BRANCH  24  25
ATOM     25  O   UNL d   1      46.405 -18.794  40.835  0.00  0.00    -0.300 OA
BRANCH  25  26
ATOM     26  C   UNL d   1      46.459 -19.006  41.609  0.00  0.00     0.100 A 
ATOM     27  C   UNL d   1      46.472 -19.819  41.805  0.00  0.00     0.025 A 
ATOM     28  C   UNL d   1      46.528 -20.072  42.608  0.00  0.00     0.002 A 
ATOM     29  C   UNL d   1      46.569 -19.549  43.178  0.00  0.00     0.000 A 
ATOM     30  C   UNL d   1      46.557 -18.705  42.987  0.00  0.00     0.002 A 
ATOM     31  C   UNL d   1      46.627 -19.817  43.993  0.00  0.00     0.000 C 
ATOM     32  C   UNL d   1      46.502 -18.481  42.202  0.00  0.00     0.025 A 
ENDBRANCH  25  26
ENDBRANCH  24  25
ENDBRANCH  22  24
ENDBRANCH   4  21
TORSDOF 9
ENDMDL
MODEL 3
REMARK VINA RESULT:      46.3      4.292      7.340
REMARK  9 active torsions:
REMARK  status: ('A' for Active; 'I' for Inactive)
REMARK    1  A    between atoms: N_2  and  S_1 
REMARK    2  A    between atoms: C_9  and  S_1 
REMARK    3  A    between atoms: C_4  and  N_2 
REMARK    4  A    between atoms: O_19  and  C_6 
REMARK    5  A    between atoms: O_22  and  C_7 
REMARK       I    between atoms: C_12  and  N_13 
REMARK    6  A    between atoms: C_20  and  C_12 
REMARK    7  A    between atoms: N_13  and  C_17 
REMARK    8  A    between atoms: O_18  and  C_20 
REMARK    9  A    between atoms: C_21  and  O_18 
ROOT
ATOM      1  C   UNL d   1      44.803 -12.543  39.870  0.00  0.00     0.105 A 
ATOM      2  C   UNL d   1      44.078 -12.372  40.226  0.00  0.00     0.015 A 
ATOM      3  C   UNL d   1      45.477 -12.586  40.312  0.00  0.00     0.015 A 
ATOM      4  C   UNL d   1      44.736 -12.291  41.476  0.00  0.00     0.085 A 
ATOM      5  C   UNL d   1      44.037 -12.243  41.038  0.00  0.00     0.020 A 
ATOM      6  C   UNL d   1      45.453 -12.459  41.129  0.00  0.00     0.020 A 
ENDROOT
BRANCH   1   7
ATOM      7  S   UNL d   1      44.841 -12.674  39.044  0.00  0.00     0.287 S 
ATOM      8  O   UNL d   1      44.108 -12.284  38.957  0.00  0.00    -0.198 OA
ATOM      9  O   UNL d   1      45.565 -13.056  39.148  0.00  0.00    -0.198 OA
BRANCH   7  10
ATOM     10  N   UNL d   1      44.872 -12.799  38.228  0.00  0.00    -0.139 NA
BRANCH  10  11
ATOM     11  C   UNL d   1      44.806 -13.553  37.909  0.00  0.00     0.182 A 
ATOM     12  N   UNL d   1      44.102 -13.941  37.924  0.00  0.00    -0.185 NA
ATOM     13  C   UNL d   1      44.034 -14.704  37.601  0.00  0.00     0.274 A 
ATOM     14  N   UNL d   1      44.664 -15.067  37.272  0.00  0.00    -0.181 NA
ATOM     15  C   UNL d   1      45.389 -14.687  37.248  0.00  0.00     0.185 A 
ATOM     16  C   UNL d   1      45.460 -13.900  37.581  0.00  0.00     0.084 A 
BRANCH  13  17
ATOM     17  O   UNL d   1      43.291 -15.101  37.622  0.00  0.00    -0.297 OA
ATOM     18  C   UNL d   1      43.189 -15.844  37.298  0.00  0.00     0.185 C 
ENDBRANCH  13  17
BRANCH  15  19
ATOM     19  O   UNL d   1      46.033 -15.093  36.896  0.00  0.00    -0.312 OA
ATOM     20  C   UNL d   1      46.640 -14.651  36.558  0.00  0.00     0.183 C 
ENDBRANCH  15  19
ENDBRANCH  10  11
ENDBRANCH   7  10
ENDBRANCH   1   7
BRANCH   4  21
ATOM     21  N   UNL d   1      44.716 -12.163  42.298  0.00  0.00    -0.206 NA
ATOM     22  C   UNL d   1      45.383 -12.221  42.715  0.00  0.00     0.304 C 
ATOM     23  O   UNL d   1      46.125 -12.409  42.356  0.00  0.00    -0.263 OA
BRANCH  22  24
ATOM     24  C   UNL d   1      45.382 -12.095  43.549  0.00  0.00     0.185 C 
BRANCH  24  25
ATOM     25  O   UNL d   1      45.821 -12.551  44.072  0.00  0.00    -0.300 OA
BRANCH  25  26
ATOM     26  C   UNL d   1      45.534 -13.267  44.301  0.00  0.00     0.100 A 
ATOM     27  C   UNL d   1      45.965 -13.956  44.105  0.00  0.00     0.025 A 
ATOM     28  C   UNL d   1      45.689 -14.721  44.331  0.00  0.00     0.002 A 
ATOM     29  C   UNL d   1      45.027 -14.793  44.727  0.00  0.00     0.000 A 
ATOM     30  C   UNL d   1      44.572 -14.087  44.936  0.00  0.00     0.002 A 
ATOM     31  C   UNL d   1      44.755 -15.577  44.953  0.00  0.00     0.000 C 
ATOM     32  C   UNL d   1      44.857 -13.354  44.706  0.00  0.00     0.025 A 
ENDBRANCH  25  26
ENDBRANCH  24  25
ENDBRANCH  22  24
ENDBRANCH   4  21
TORSDOF 9
ENDMDL
MODEL 4
REMARK VINA RESULT:      46.7      1.132      2.006
REMARK  9 active torsions:
REMARK  status: ('A' for Active; 'I' for Inactive)
REMARK    1  A    between atoms: N_2  and  S_1 
REMARK    2  A    between atoms: C_9  and  S_1 
REMARK    3  A    between atoms: C_4  and  N_2 
REMARK    4  A    between atoms: O_19  and  C_6 
REMARK    5  A    between atoms: O_22  and  C_7 
REMARK       I    between atoms: C_12  and  N_13 
REMARK    6  A    between atoms: C_20  and  C_12 
REMARK    7  A    between atoms: N_13  and  C_17 
REMARK    8  A    between atoms: O_18  and  C_20 
REMARK    9  A    between atoms: C_21  and  O_18 
ROOT
ATOM      1  C   UNL d   1      45.900 -18.395  40.623  0.00  0.00     0.105 A 
ATOM      2  C   UNL d   1      45.318 -18.565  40.063  0.00  0.00     0.015 A 
ATOM      3  C   UNL d   1      46.412 -17.783  40.508  0.00  0.00     0.015 A 
ATOM      4  C   UNL d   1      45.790 -17.487  39.277  0.00  0.00     0.085 A 
ATOM      5  C   UNL d   1      45.257 -18.110  39.379  0.00  0.00     0.020 A 
ATOM      6  C   UNL d   1      46.365 -17.316  39.827  0.00  0.00     0.020 A 
ENDROOT
BRANCH   1   7
ATOM      7  S   UNL d   1      45.959 -18.860  41.317  0.00  0.00     0.287 S 
ATOM      8  O   UNL d   1      46.629 -19.240  40.995  0.00  0.00    -0.198 OA
ATOM      9  O   UNL d   1      45.295 -18.474  41.619  0.00  0.00    -0.198 OA
BRANCH   7  10
ATOM     10  N   UNL d   1      46.023 -19.323  41.998  0.00  0.00    -0.139 NA
BRANCH  10  11
ATOM     11  C   UNL d   1      46.135 -18.981  42.736  0.00  0.00     0.182 A 
ATOM     12  N   UNL d   1      46.064 -18.186  42.831  0.00  0.00    -0.185 NA
ATOM     13  C   UNL d   1      46.177 -17.839  43.578  0.00  0.00     0.274 A 
ATOM     14  N   UNL d   1      46.358 -18.286  44.214  0.00  0.00    -0.181 NA
ATOM     15  C   UNL d   1      46.435 -19.097  44.136  0.00  0.00     0.185 A 
ATOM     16  C   UNL d   1      46.318 -19.456  43.366  0.00  0.00     0.084 A 
BRANCH  13  17
ATOM     17  O   UNL d   1      46.100 -17.005  43.667  0.00  0.00    -0.297 OA
ATOM     18  C   UNL d   1      46.029 -16.653  44.400  0.00  0.00     0.185 C 
ENDBRANCH  13  17
BRANCH  15  19
ATOM     19  O   UNL d   1      46.625 -19.541  44.821  0.00  0.00    -0.312 OA
ATOM     20  C   UNL d   1      46.385 -20.328  44.861  0.00  0.00     0.183 C 
ENDBRANCH  15  19
ENDBRANCH  10  11
ENDBRANCH   7  10
ENDBRANCH   1   7
BRANCH   4  21
ATOM     21  N   UNL d   1      45.745 -17.015  38.593  0.00  0.00    -0.206 NA
ATOM     22  C   UNL d   1      45.270 -16.386  38.588  0.00  0.00     0.304 C 
ATOM     23  O   UNL d   1      44.799 -16.170  39.256  0.00  0.00    -0.263 OA
BRANCH  22  24
ATOM     24  C   UNL d   1      45.212 -15.896  37.903  0.00  0.00     0.185 C 
BRANCH  24  25
ATOM     25  O   UNL d   1      44.888 -16.152  37.194  0.00  0.00    -0.300 OA
BRANCH  25  26
ATOM     26  C   UNL d   1      44.108 -16.012  37.049  0.00  0.00     0.100 A 
ATOM     27  C   UNL d   1      43.706 -15.447  37.517  0.00  0.00     0.025 A 
ATOM     28  C   UNL d   1      42.889 -15.279  37.389  0.00  0.00     0.002 A 
ATOM     29  C   UNL d   1      42.500 -15.650  36.830  0.00  0.00     0.000 A 
ATOM     30  C   UNL d   1      42.906 -16.236  36.340  0.00  0.00     0.002 A 
ATOM     31  C   UNL d   1      41.667 -15.471  36.708  0.00  0.00     0.000 C 
ATOM     32  C   UNL d   1      43.698 -16.384  36.481  0.00  0.00     0.025 A 
ENDBRANCH  25  26
ENDBRANCH  24  25
ENDBRANCH  22  24
ENDBRANCH   4  21
TORSDOF 9
ENDMDL
