MODEL 1
REMARK VINA RESULT:      -4.0      0.000      0.000
REMARK  4 active torsions:
REMARK  status: ('A' for Active; 'I' for Inactive)
REMARK    1  A    between atoms: C_10  and  N_3 
REMARK    2  A    between atoms: C_12  and  N_7 
REMARK    3  A    between atoms: C_19  and  C_12 
REMARK    4  A    between atoms: C_20  and  C_19 
ROOT
ATOM      1  C   UNL d   1      58.380  -1.323  29.804  0.00  0.00     0.172 A 
ATOM      2  C   UNL d   1      58.234  -0.515  29.724  0.00  0.00     0.113 A 
ATOM      3  N   UNL d   1      58.874  -1.549  29.176  0.00  0.00    -0.212 N 
ATOM      4  N   UNL d   1      58.051  -1.743  30.427  0.00  0.00    -0.206 NA
ATOM      5  C   UNL d   1      57.759  -0.127  30.268  0.00  0.00     0.270 A 
ATOM      6  N   UNL d   1      59.022  -0.883  28.724  0.00  0.00    -0.162 NA
ATOM      7  N   UNL d   1      57.424  -0.546  30.899  0.00  0.00    -0.255 N 
ATOM      8  C   UNL d   1      58.640  -0.256  29.049  0.00  0.00     0.129 A 
ATOM      9  C   UNL d   1      57.570  -1.354  30.978  0.00  0.00     0.187 A 
ATOM     10  O   UNL d   1      57.613   0.681  30.189  0.00  0.00    -0.266 OA
ENDROOT
BRANCH   3  11
ATOM     11  C   UNL d   1      59.176  -2.285  29.004  0.00  0.00     0.085 A 
ATOM     12  C   UNL d   1      59.956  -2.468  29.207  0.00  0.00     0.021 A 
ATOM     13  C   UNL d   1      60.259  -3.213  29.033  0.00  0.00     0.031 A 
ATOM     14  C   UNL d   1      59.806  -3.777  28.663  0.00  0.00     0.140 A 
ATOM     15  C   UNL d   1      59.011  -3.591  28.455  0.00  0.00     0.031 A 
ATOM     16  F   UNL d   1      60.133  -4.531  28.493  0.00  0.00    -0.204 F 
ATOM     17  C   UNL d   1      58.701  -2.854  28.624  0.00  0.00     0.021 A 
ENDBRANCH   3  11
BRANCH   7  18
ATOM     18  C   UNL d   1      56.939  -0.158  31.457  0.00  0.00     0.085 C 
BRANCH  18  19
ATOM     19  C   UNL d   1      56.633  -0.578  32.105  0.00  0.00     0.019 C 
BRANCH  19  20
ATOM     20  C   UNL d   1      56.324  -0.157  32.753  0.00  0.00     0.002 C 
ATOM     21  C   UNL d   1      56.838   0.274  33.232  0.00  0.00     0.000 C 
ATOM     22  C   UNL d   1      55.522  -0.173  32.911  0.00  0.00     0.000 C 
ENDBRANCH  19  20
ENDBRANCH  18  19
ENDBRANCH   7  18
TORSDOF 4
ENDMDL
MODEL 2
REMARK VINA RESULT:      -3.3      3.128      5.246
REMARK  4 active torsions:
REMARK  status: ('A' for Active; 'I' for Inactive)
REMARK    1  A    between atoms: C_10  and  N_3 
REMARK    2  A    between atoms: C_12  and  N_7 
REMARK    3  A    between atoms: C_19  and  C_12 
REMARK    4  A    between atoms: C_20  and  C_19 
ROOT
ATOM      1  C   UNL d   1      56.768  -0.287  32.127  0.00  0.00     0.172 A 
ATOM      2  C   UNL d   1      56.992  -0.861  31.579  0.00  0.00     0.113 A 
ATOM      3  N   UNL d   1      56.265  -0.652  32.677  0.00  0.00    -0.212 N 
ATOM      4  N   UNL d   1      57.046   0.482  32.057  0.00  0.00    -0.206 NA
ATOM      5  C   UNL d   1      57.494  -0.667  30.960  0.00  0.00     0.270 A 
ATOM      6  N   UNL d   1      56.187  -1.437  32.461  0.00  0.00    -0.162 NA
ATOM      7  N   UNL d   1      57.778   0.107  30.885  0.00  0.00    -0.255 N 
ATOM      8  C   UNL d   1      56.623  -1.571  31.800  0.00  0.00     0.129 A 
ATOM      9  C   UNL d   1      57.554   0.682  31.433  0.00  0.00     0.187 A 
ATOM     10  O   UNL d   1      57.718  -1.241  30.412  0.00  0.00    -0.266 OA
ENDROOT
BRANCH   3  11
ATOM     11  C   UNL d   1      55.895  -0.325  33.325  0.00  0.00     0.085 A 
ATOM     12  C   UNL d   1      55.129  -0.024  33.256  0.00  0.00     0.021 A 
ATOM     13  C   UNL d   1      54.759   0.305  33.912  0.00  0.00     0.031 A 
ATOM     14  C   UNL d   1      55.131   0.341  34.633  0.00  0.00     0.140 A 
ATOM     15  C   UNL d   1      55.912   0.034  34.706  0.00  0.00     0.031 A 
ATOM     16  F   UNL d   1      54.737   0.681  35.292  0.00  0.00    -0.204 F 
ATOM     17  C   UNL d   1      56.289  -0.295  34.059  0.00  0.00     0.021 A 
ENDBRANCH   3  11
BRANCH   7  18
ATOM     18  C   UNL d   1      58.289   0.313  30.258  0.00  0.00     0.085 C 
BRANCH  18  19
ATOM     19  C   UNL d   1      59.095   0.448  30.407  0.00  0.00     0.019 C 
BRANCH  19  20
ATOM     20  C   UNL d   1      59.614   0.558  29.766  0.00  0.00     0.002 C 
ATOM     21  C   UNL d   1      59.301   0.679  29.014  0.00  0.00     0.000 C 
ATOM     22  C   UNL d   1      60.423   0.545  29.883  0.00  0.00     0.000 C 
ENDBRANCH  19  20
ENDBRANCH  18  19
ENDBRANCH   7  18
TORSDOF 4
ENDMDL
