MODEL 1
REMARK VINA RESULT:      50.9      0.000      0.000
REMARK  8 active torsions:
REMARK  status: ('A' for Active; 'I' for Inactive)
REMARK    1  A    between atoms: O_18  and  C_5 
REMARK    2  A    between atoms: C_7  and  C_15 
REMARK       I    between atoms: N_14  and  C_7 
REMARK    3  A    between atoms: O_10  and  C_8 
REMARK    4  A    between atoms: O_19  and  C_9 
REMARK    5  A    between atoms: C_15  and  O_10 
REMARK    6  A    between atoms: C_20  and  N_14 
REMARK    7  A    between atoms: C_16  and  C_26 
REMARK    8  A    between atoms: C_26  and  C_20 
ROOT
ATOM      1  C   UNL d   1     -54.882-101.917 -39.840  0.00  0.00     0.304 C 
ATOM      2  O   UNL d   1     -54.726-102.588 -40.300  0.00  0.00    -0.263 OA
ATOM      3  N   UNL d   1     -55.010-101.977 -39.031  0.00  0.00    -0.205 NA
ENDROOT
BRANCH   1   4
ATOM      4  C   UNL d   1     -54.910-101.175 -40.204  0.00  0.00     0.185 C 
BRANCH   4   5
ATOM      5  O   UNL d   1     -55.341-101.075 -40.897  0.00  0.00    -0.298 OA
BRANCH   5   6
ATOM      6  C   UNL d   1     -55.133-101.493 -41.569  0.00  0.00     0.122 A 
ATOM      7  C   UNL d   1     -55.018-101.096 -42.284  0.00  0.00     0.117 A 
ATOM      8  O   UNL d   1     -55.074-100.291 -42.482  0.00  0.00    -0.330 OA
ATOM      9  C   UNL d   1     -54.807-101.518 -42.962  0.00  0.00     0.022 A 
ATOM     10  C   UNL d   1     -54.897-100.218 -43.290  0.00  0.00     0.117 A 
ATOM     11  C   UNL d   1     -55.038 -99.429 -43.112  0.00  0.00     0.035 C 
ATOM     12  C   UNL d   1     -54.712-100.237 -44.079  0.00  0.00     0.035 C 
ATOM     13  C   UNL d   1     -54.733-100.975 -43.582  0.00  0.00     0.003 A 
ATOM     14  C   UNL d   1     -54.713-102.334 -42.924  0.00  0.00     0.002 A 
ATOM     15  C   UNL d   1     -54.826-102.723 -42.219  0.00  0.00     0.002 A 
ATOM     16  C   UNL d   1     -55.037-102.302 -41.541  0.00  0.00     0.027 A 
ENDBRANCH   5   6
ENDBRANCH   4   5
ENDBRANCH   1   4
BRANCH   3  17
ATOM     17  C   UNL d   1     -54.982-102.712 -38.672  0.00  0.00     0.102 C 
BRANCH  17  18
ATOM     18  C   UNL d   1     -55.350-102.829 -37.942  0.00  0.00     0.021 C 
BRANCH  18  19
ATOM     19  C   UNL d   1     -55.190-102.320 -37.310  0.00  0.00     0.004 A 
ATOM     20  C   UNL d   1     -55.108-101.519 -37.441  0.00  0.00     0.026 A 
ATOM     21  C   UNL d   1     -54.949-101.004 -36.816  0.00  0.00     0.116 A 
ATOM     22  C   UNL d   1     -54.872-101.304 -36.051  0.00  0.00     0.116 A 
ATOM     23  C   UNL d   1     -54.954-102.112 -35.915  0.00  0.00     0.026 A 
ATOM     24  C   UNL d   1     -55.113-102.631 -36.538  0.00  0.00     0.002 A 
BRANCH  21  25
ATOM     25  O   UNL d   1     -54.867-100.205 -36.949  0.00  0.00    -0.326 OA
ATOM     26  C   UNL d   1     -54.713 -99.920 -37.718  0.00  0.00     0.181 C 
ENDBRANCH  21  25
BRANCH  22  27
ATOM     27  O   UNL d   1     -54.712-100.795 -35.419  0.00  0.00    -0.326 OA
ATOM     28  C   UNL d   1     -55.074-100.055 -35.384  0.00  0.00     0.181 C 
ENDBRANCH  22  27
ENDBRANCH  18  19
ENDBRANCH  17  18
ENDBRANCH   3  17
TORSDOF 8
ENDMDL
MODEL 2
REMARK VINA RESULT:      53.6      1.232      2.009
REMARK  8 active torsions:
REMARK  status: ('A' for Active; 'I' for Inactive)
REMARK    1  A    between atoms: O_18  and  C_5 
REMARK    2  A    between atoms: C_7  and  C_15 
REMARK       I    between atoms: N_14  and  C_7 
REMARK    3  A    between atoms: O_10  and  C_8 
REMARK    4  A    between atoms: O_19  and  C_9 
REMARK    5  A    between atoms: C_15  and  O_10 
REMARK    6  A    between atoms: C_20  and  N_14 
REMARK    7  A    between atoms: C_16  and  C_26 
REMARK    8  A    between atoms: C_26  and  C_20 
ROOT
ATOM      1  C   UNL d   1     -55.867-102.358 -41.381  0.00  0.00     0.304 C 
ATOM      2  O   UNL d   1     -56.655-102.525 -41.188  0.00  0.00    -0.263 OA
ATOM      3  N   UNL d   1     -55.259-102.508 -40.851  0.00  0.00    -0.205 NA
ENDROOT
BRANCH   1   4
ATOM      4  C   UNL d   1     -55.693-102.033 -42.122  0.00  0.00     0.185 C 
BRANCH   4   5
ATOM      5  O   UNL d   1     -55.242-101.347 -42.171  0.00  0.00    -0.298 OA
BRANCH   5   6
ATOM      6  C   UNL d   1     -55.280-100.883 -42.844  0.00  0.00     0.122 A 
ATOM      7  C   UNL d   1     -55.392-101.234 -43.583  0.00  0.00     0.117 A 
ATOM      8  O   UNL d   1     -55.483-102.030 -43.806  0.00  0.00    -0.330 OA
ATOM      9  C   UNL d   1     -55.431-100.766 -44.262  0.00  0.00     0.022 A 
ATOM     10  C   UNL d   1     -55.578-102.049 -44.631  0.00  0.00     0.117 A 
ATOM     11  C   UNL d   1     -55.627-102.853 -44.471  0.00  0.00     0.035 C 
ATOM     12  C   UNL d   1     -55.664-101.978 -45.434  0.00  0.00     0.035 C 
ATOM     13  C   UNL d   1     -55.546-101.270 -44.908  0.00  0.00     0.003 A 
ATOM     14  C   UNL d   1     -55.356 -99.948 -44.200  0.00  0.00     0.002 A 
ATOM     15  C   UNL d   1     -55.245 -99.605 -43.473  0.00  0.00     0.002 A 
ATOM     16  C   UNL d   1     -55.207-100.073 -42.793  0.00  0.00     0.027 A 
ENDBRANCH   5   6
ENDBRANCH   4   5
ENDBRANCH   1   4
BRANCH   3  17
ATOM     17  C   UNL d   1     -55.432-102.829 -40.119  0.00  0.00     0.102 C 
BRANCH  17  18
ATOM     18  C   UNL d   1     -54.845-102.880 -39.540  0.00  0.00     0.021 C 
BRANCH  18  19
ATOM     19  C   UNL d   1     -54.850-102.359 -38.898  0.00  0.00     0.004 A 
ATOM     20  C   UNL d   1     -54.865-101.554 -39.025  0.00  0.00     0.026 A 
ATOM     21  C   UNL d   1     -54.870-101.027 -38.389  0.00  0.00     0.116 A 
ATOM     22  C   UNL d   1     -54.860-101.320 -37.617  0.00  0.00     0.116 A 
ATOM     23  C   UNL d   1     -54.845-102.132 -37.485  0.00  0.00     0.026 A 
ATOM     24  C   UNL d   1     -54.840-102.663 -38.119  0.00  0.00     0.002 A 
BRANCH  21  25
ATOM     25  O   UNL d   1     -54.885-100.224 -38.517  0.00  0.00    -0.326 OA
ATOM     26  C   UNL d   1     -54.827 -99.920 -39.293  0.00  0.00     0.181 C 
ENDBRANCH  21  25
BRANCH  22  27
ATOM     27  O   UNL d   1     -54.865-100.800 -36.975  0.00  0.00    -0.326 OA
ATOM     28  C   UNL d   1     -55.010-101.083 -36.214  0.00  0.00     0.181 C 
ENDBRANCH  22  27
ENDBRANCH  18  19
ENDBRANCH  17  18
ENDBRANCH   3  17
TORSDOF 8
ENDMDL
