MODEL 1
REMARK VINA RESULT:      96.2      0.000      0.000
REMARK  9 active torsions:
REMARK  status: ('A' for Active; 'I' for Inactive)
REMARK    1  A    between atoms: C_12  and  C_1 
REMARK       I    between atoms: C_4  and  N_11 
REMARK    2  A    between atoms: C_5  and  C_4 
REMARK    3  A    between atoms: O_18  and  C_6 
REMARK    4  A    between atoms: O_19  and  C_7 
REMARK    5  A    between atoms: O_20  and  C_8 
REMARK    6  A    between atoms: N_11  and  C_15 
REMARK    7  A    between atoms: C_26  and  O_18 
REMARK    8  A    between atoms: C_28  and  O_19 
REMARK    9  A    between atoms: C_27  and  O_20 
ROOT
ATOM      1  C   UNL d   1      60.918  46.783  50.913  0.00  0.00     0.279 C 
ATOM      2  N   UNL d   1      61.036  47.504  50.524  0.00  0.00    -0.208 NA
ATOM      3  O   UNL d   1      60.463  46.752  51.600  0.00  0.00    -0.265 OA
ENDROOT
BRANCH   1   4
ATOM      4  C   UNL d   1      61.257  46.096  50.611  0.00  0.00     0.062 A 
ATOM      5  C   UNL d   1      61.722  46.131  49.929  0.00  0.00     0.032 A 
ATOM      6  C   UNL d   1      62.060  45.445  49.629  0.00  0.00     0.125 A 
ATOM      7  C   UNL d   1      61.936  44.723  50.006  0.00  0.00     0.145 A 
ATOM      8  C   UNL d   1      61.475  44.689  50.683  0.00  0.00     0.125 A 
ATOM      9  C   UNL d   1      61.139  45.372  50.982  0.00  0.00     0.032 A 
BRANCH   6  10
ATOM     10  O   UNL d   1      62.528  45.481  48.942  0.00  0.00    -0.303 OA
BRANCH  10  11
ATOM     11  C   UNL d   1      63.039  46.123  48.828  0.00  0.00     0.123 C 
ATOM     12  C   UNL d   1      62.995  46.778  49.339  0.00  0.00     0.029 C 
ENDBRANCH  10  11
ENDBRANCH   6  10
BRANCH   7  13
ATOM     13  O   UNL d   1      62.277  44.034  49.702  0.00  0.00    -0.301 OA
BRANCH  13  14
ATOM     14  C   UNL d   1      61.807  43.480  49.318  0.00  0.00     0.123 C 
ATOM     15  C   UNL d   1      62.155  42.913  48.828  0.00  0.00     0.029 C 
ENDBRANCH  13  14
ENDBRANCH   7  13
BRANCH   8  16
ATOM     16  O   UNL d   1      61.349  43.959  51.066  0.00  0.00    -0.303 OA
BRANCH  16  17
ATOM     17  C   UNL d   1      61.148  43.948  51.867  0.00  0.00     0.123 C 
ATOM     18  C   UNL d   1      60.478  43.525  52.114  0.00  0.00     0.029 C 
ENDBRANCH  16  17
ENDBRANCH   8  16
ENDBRANCH   1   4
BRANCH   2  19
ATOM     19  C   UNL d   1      60.695  48.203  50.825  0.00  0.00     0.085 A 
ATOM     20  C   UNL d   1      59.890  48.351  50.694  0.00  0.00     0.022 A 
ATOM     21  C   UNL d   1      59.550  49.038  50.990  0.00  0.00     0.037 A 
ATOM     22  C   UNL d   1      60.004  49.581  51.416  0.00  0.00     0.003 A 
ATOM     23  C   UNL d   1      60.809  49.429  51.544  0.00  0.00     0.002 A 
ATOM     24  C   UNL d   1      61.154  48.745  51.252  0.00  0.00     0.019 A 
BRANCH  21  25
ATOM     25  C   UNL d   1      58.749  49.191  50.862  0.00  0.00     0.162 A 
ATOM     26  N   UNL d   1      58.122  49.310  51.384  0.00  0.00    -0.225 NA
ATOM     27  C   UNL d   1      57.441  49.440  50.937  0.00  0.00     0.101 A 
ATOM     28  C   UNL d   1      56.655  49.589  51.156  0.00  0.00     0.021 A 
ATOM     29  C   UNL d   1      57.651  49.399  50.148  0.00  0.00     0.101 A 
ATOM     30  C   UNL d   1      56.089  49.696  50.571  0.00  0.00     0.002 A 
ATOM     31  C   UNL d   1      56.304  49.655  49.768  0.00  0.00     0.002 A 
ATOM     32  C   UNL d   1      57.077  49.507  49.559  0.00  0.00     0.021 A 
ATOM     33  N   UNL d   1      58.457  49.245  50.100  0.00  0.00    -0.225 NA
ENDBRANCH  21  25
ENDBRANCH   2  19
TORSDOF 9
ENDMDL
