MODEL 1
REMARK VINA RESULT:      37.4      0.000      0.000
REMARK  0 active torsions:
REMARK  status: ('A' for Active; 'I' for Inactive)
REMARK       I    between atoms: C_2  and  N_1 
REMARK       I    between atoms: N_7  and  C_2 
ROOT
ATOM      1  N   UNL d   1      14.039  13.495  -2.707  0.00  0.00    -0.241 N 
ATOM      2  C   UNL d   1      13.780  12.731  -2.964  0.00  0.00     0.341 C 
ATOM      3  C   UNL d   1      14.379  13.698  -2.000  0.00  0.00     0.087 A 
ATOM      4  C   UNL d   1      13.976  14.169  -3.164  0.00  0.00     0.186 A 
ATOM      5  N   UNL d   1      14.283  14.796  -2.729  0.00  0.00    -0.224 NA
ATOM      6  C   UNL d   1      14.533  14.500  -2.005  0.00  0.00     0.099 A 
ATOM      7  N   UNL d   1      13.443  12.623  -3.708  0.00  0.00    -0.257 N 
ATOM      8  C   UNL d   1      14.569  13.242  -1.342  0.00  0.00     0.019 A 
ATOM      9  C   UNL d   1      14.883  14.870  -1.351  0.00  0.00     0.021 A 
ATOM     10  C   UNL d   1      14.916  13.603  -0.693  0.00  0.00     0.002 A 
ATOM     11  C   UNL d   1      15.075  14.406  -0.687  0.00  0.00     0.002 A 
ATOM     12  O   UNL d   1      13.878  12.092  -2.440  0.00  0.00    -0.245 OA
ATOM     13  C   UNL d   1      13.199  11.887  -3.944  0.00  0.00     0.085 A 
ATOM     14  C   UNL d   1      13.353  13.276  -4.219  0.00  0.00     0.085 A 
ATOM     15  C   UNL d   1      15.104  13.130  -0.032  0.00  0.00     0.000 C 
ATOM     16  C   UNL d   1      15.430  14.763  -0.014  0.00  0.00     0.000 C 
ATOM     17  C   UNL d   1      12.861  11.779  -4.689  0.00  0.00     0.019 A 
ATOM     18  C   UNL d   1      13.012  13.168  -4.972  0.00  0.00     0.019 A 
ATOM     19  C   UNL d   1      12.769  12.408  -5.195  0.00  0.00     0.003 A 
ENDROOT
TORSDOF 0
ENDMDL
MODEL 2
REMARK VINA RESULT:      39.8      0.862      1.537
REMARK  0 active torsions:
REMARK  status: ('A' for Active; 'I' for Inactive)
REMARK       I    between atoms: C_2  and  N_1 
REMARK       I    between atoms: N_7  and  C_2 
ROOT
ATOM      1  N   UNL d   1      14.181  13.522  -2.439  0.00  0.00    -0.241 N 
ATOM      2  C   UNL d   1      13.822  13.730  -3.177  0.00  0.00     0.341 C 
ATOM      3  C   UNL d   1      14.548  14.010  -1.905  0.00  0.00     0.087 A 
ATOM      4  C   UNL d   1      14.207  12.760  -2.150  0.00  0.00     0.186 A 
ATOM      5  N   UNL d   1      14.597  12.779  -1.425  0.00  0.00    -0.224 NA
ATOM      6  C   UNL d   1      14.808  13.558  -1.276  0.00  0.00     0.099 A 
ATOM      7  N   UNL d   1      13.470  13.159  -3.656  0.00  0.00    -0.257 N 
ATOM      8  C   UNL d   1      14.678  14.823  -1.917  0.00  0.00     0.019 A 
ATOM      9  C   UNL d   1      15.207  13.907  -0.638  0.00  0.00     0.021 A 
ATOM     10  C   UNL d   1      15.072  15.172  -1.288  0.00  0.00     0.002 A 
ATOM     11  C   UNL d   1      15.337  14.730  -0.653  0.00  0.00     0.002 A 
ATOM     12  O   UNL d   1      13.836  14.531  -3.404  0.00  0.00    -0.245 OA
ATOM     13  C   UNL d   1      13.130  13.369  -4.361  0.00  0.00     0.085 A 
ATOM     14  C   UNL d   1      13.467  12.361  -3.411  0.00  0.00     0.085 A 
ATOM     15  C   UNL d   1      15.199  15.996  -1.312  0.00  0.00     0.000 C 
ATOM     16  C   UNL d   1      15.740  15.102  -0.016  0.00  0.00     0.000 C 
ATOM     17  C   UNL d   1      12.778  12.796  -4.840  0.00  0.00     0.019 A 
ATOM     18  C   UNL d   1      13.112  11.783  -3.895  0.00  0.00     0.019 A 
ATOM     19  C   UNL d   1      12.769  12.017  -4.611  0.00  0.00     0.003 A 
ENDROOT
TORSDOF 0
ENDMDL
