MODEL 1
REMARK VINA RESULT:      -2.7      0.000      0.000
REMARK  4 active torsions:
REMARK  status: ('A' for Active; 'I' for Inactive)
REMARK    1  A    between atoms: C_2  and  C_1 
REMARK    2  A    between atoms: N_12  and  C_6 
REMARK    3  A    between atoms: C_16  and  N_12 
REMARK    4  A    between atoms: O_25  and  C_17 
ROOT
ATOM      1  C   UNL d   1      30.861  17.137 -24.428  0.00  0.00     0.082 A 
ATOM      2  C   UNL d   1      30.975  16.378 -24.729  0.00  0.00     0.302 A 
ATOM      3  C   UNL d   1      30.143  17.333 -24.069  0.00  0.00     0.009 A 
ATOM      4  O   UNL d   1      30.373  15.810 -24.675  0.00  0.00    -0.273 OA
ATOM      5  C   UNL d   1      29.537  16.771 -24.011  0.00  0.00     0.025 A 
ATOM      6  C   UNL d   1      29.660  16.008 -24.318  0.00  0.00     0.103 A 
ATOM      7  O   UNL d   1      31.697  16.175 -25.091  0.00  0.00    -0.259 OA
ATOM      8  C   UNL d   1      28.822  16.973 -23.652  0.00  0.00     0.026 A 
ATOM      9  C   UNL d   1      29.052  15.453 -24.256  0.00  0.00     0.027 A 
ATOM     10  C   UNL d   1      28.224  16.409 -23.598  0.00  0.00     0.094 A 
ATOM     11  C   UNL d   1      28.340  15.643 -23.902  0.00  0.00     0.026 A 
ENDROOT
BRANCH   1  12
ATOM     12  C   UNL d   1      31.467  17.698 -24.486  0.00  0.00     0.095 A 
ATOM     13  N   UNL d   1      32.088  17.800 -23.953  0.00  0.00    -0.221 NA
ATOM     14  C   UNL d   1      32.556  18.420 -24.231  0.00  0.00     0.194 A 
ATOM     15  S   UNL d   1      32.227  18.703 -24.937  0.00  0.00    -0.046 SA
ATOM     16  C   UNL d   1      31.547  18.252 -25.095  0.00  0.00     0.058 A 
BRANCH  14  17
ATOM     17  N   UNL d   1      33.241  18.710 -23.866  0.00  0.00    -0.221 NA
BRANCH  17  18
ATOM     18  C   UNL d   1      33.182  19.191 -23.198  0.00  0.00     0.084 A 
ATOM     19  C   UNL d   1      33.090  18.844 -22.459  0.00  0.00     0.020 A 
ATOM     20  C   UNL d   1      33.031  19.332 -21.787  0.00  0.00     0.013 A 
ATOM     21  C   UNL d   1      33.065  20.155 -21.866  0.00  0.00     0.058 A 
ATOM     22  C   UNL d   1      33.158  20.484 -22.618  0.00  0.00     0.013 A 
ATOM     23 CL   UNL d   1      33.007  20.640 -21.206  0.00  0.00    -0.082 Cl
ATOM     24  C   UNL d   1      33.217  20.008 -23.283  0.00  0.00     0.020 A 
ENDBRANCH  17  18
ENDBRANCH  14  17
ENDBRANCH   1  12
BRANCH  10  25
ATOM     25  O   UNL d   1      27.508  16.605 -23.240  0.00  0.00    -0.328 OA
ATOM     26  C   UNL d   1      26.947  16.023 -23.080  0.00  0.00     0.181 C 
ENDBRANCH  10  25
TORSDOF 4
ENDMDL
MODEL 2
REMARK VINA RESULT:      -2.3      3.248      5.995
REMARK  4 active torsions:
REMARK  status: ('A' for Active; 'I' for Inactive)
REMARK    1  A    between atoms: C_2  and  C_1 
REMARK    2  A    between atoms: N_12  and  C_6 
REMARK    3  A    between atoms: C_16  and  N_12 
REMARK    4  A    between atoms: O_25  and  C_17 
ROOT
ATOM      1  C   UNL d   1      33.238  20.741 -21.975  0.00  0.00     0.082 A 
ATOM      2  C   UNL d   1      33.239  21.388 -22.486  0.00  0.00     0.302 A 
ATOM      3  C   UNL d   1      33.237  20.863 -21.158  0.00  0.00     0.009 A 
ATOM      4  O   UNL d   1      33.240  22.161 -22.185  0.00  0.00    -0.273 OA
ATOM      5  C   UNL d   1      33.238  21.632 -20.850  0.00  0.00     0.025 A 
ATOM      6  C   UNL d   1      33.239  22.279 -21.372  0.00  0.00     0.103 A 
ATOM      7  O   UNL d   1      33.240  21.271 -23.311  0.00  0.00    -0.259 OA
ATOM      8  C   UNL d   1      33.238  21.748 -20.033  0.00  0.00     0.026 A 
ATOM      9  C   UNL d   1      33.240  23.043 -21.058  0.00  0.00     0.027 A 
ATOM     10  C   UNL d   1      33.238  22.515 -19.734  0.00  0.00     0.094 A 
ATOM     11  C   UNL d   1      33.239  23.167 -20.250  0.00  0.00     0.026 A 
ENDROOT
BRANCH   1  12
ATOM     12  C   UNL d   1      33.237  19.973 -22.284  0.00  0.00     0.095 A 
ATOM     13  N   UNL d   1      33.234  19.770 -23.083  0.00  0.00    -0.221 NA
ATOM     14  C   UNL d   1      33.234  18.946 -23.131  0.00  0.00     0.194 A 
ATOM     15  S   UNL d   1      33.239  18.637 -22.362  0.00  0.00    -0.046 SA
ATOM     16  C   UNL d   1      33.240  19.278 -21.834  0.00  0.00     0.058 A 
BRANCH  14  17
ATOM     17  N   UNL d   1      33.231  18.503 -23.832  0.00  0.00    -0.221 NA
BRANCH  17  18
ATOM     18  C   UNL d   1      32.558  18.080 -24.051  0.00  0.00     0.084 A 
ATOM     19  C   UNL d   1      32.019  18.421 -24.569  0.00  0.00     0.020 A 
ATOM     20  C   UNL d   1      31.340  17.991 -24.789  0.00  0.00     0.013 A 
ATOM     21  C   UNL d   1      31.214  17.231 -24.487  0.00  0.00     0.058 A 
ATOM     22  C   UNL d   1      31.767  16.906 -23.967  0.00  0.00     0.013 A 
ATOM     23 CL   UNL d   1      30.546  16.803 -24.700  0.00  0.00    -0.082 Cl
ATOM     24  C   UNL d   1      32.437  17.325 -23.748  0.00  0.00     0.020 A 
ENDBRANCH  17  18
ENDBRANCH  14  17
ENDBRANCH   1  12
BRANCH  10  25
ATOM     25  O   UNL d   1      33.238  22.636 -18.918  0.00  0.00    -0.328 OA
ATOM     26  C   UNL d   1      32.872  23.300 -18.594  0.00  0.00     0.181 C 
ENDBRANCH  10  25
TORSDOF 4
ENDMDL
MODEL 3
REMARK VINA RESULT:      -1.7      3.063      4.566
REMARK  4 active torsions:
REMARK  status: ('A' for Active; 'I' for Inactive)
REMARK    1  A    between atoms: C_2  and  C_1 
REMARK    2  A    between atoms: N_12  and  C_6 
REMARK    3  A    between atoms: C_16  and  N_12 
REMARK    4  A    between atoms: O_25  and  C_17 
ROOT
ATOM      1  C   UNL d   1      32.904  19.994 -22.326  0.00  0.00     0.082 A 
ATOM      2  C   UNL d   1      33.108  19.511 -21.691  0.00  0.00     0.302 A 
ATOM      3  C   UNL d   1      32.774  19.661 -23.071  0.00  0.00     0.009 A 
ATOM      4  O   UNL d   1      33.184  18.691 -21.794  0.00  0.00    -0.273 OA
ATOM      5  C   UNL d   1      32.848  18.844 -23.183  0.00  0.00     0.025 A 
ATOM      6  C   UNL d   1      33.054  18.363 -22.536  0.00  0.00     0.103 A 
ATOM      7  O   UNL d   1      33.240  19.841 -20.938  0.00  0.00    -0.259 OA
ATOM      8  C   UNL d   1      32.717  18.517 -23.928  0.00  0.00     0.026 A 
ATOM      9  C   UNL d   1      33.125  17.549 -22.654  0.00  0.00     0.027 A 
ATOM     10  C   UNL d   1      32.792  17.703 -24.032  0.00  0.00     0.094 A 
ATOM     11  C   UNL d   1      32.997  17.216 -23.390  0.00  0.00     0.026 A 
ENDROOT
BRANCH   1  12
ATOM     12  C   UNL d   1      32.831  20.811 -22.214  0.00  0.00     0.095 A 
ATOM     13  N   UNL d   1      32.350  21.185 -21.658  0.00  0.00    -0.221 NA
ATOM     14  C   UNL d   1      32.453  21.999 -21.745  0.00  0.00     0.194 A 
ATOM     15  S   UNL d   1      32.998  22.132 -22.356  0.00  0.00    -0.046 SA
ATOM     16  C   UNL d   1      33.233  21.391 -22.648  0.00  0.00     0.058 A 
BRANCH  14  17
ATOM     17  N   UNL d   1      32.075  22.585 -21.297  0.00  0.00    -0.221 NA
BRANCH  17  18
ATOM     18  C   UNL d   1      32.361  22.783 -20.549  0.00  0.00     0.084 A 
ATOM     19  C   UNL d   1      32.105  22.356 -19.894  0.00  0.00     0.020 A 
ATOM     20  C   UNL d   1      32.395  22.558 -19.141  0.00  0.00     0.013 A 
ATOM     21  C   UNL d   1      32.933  23.180 -19.055  0.00  0.00     0.058 A 
ATOM     22  C   UNL d   1      33.178  23.597 -19.725  0.00  0.00     0.013 A 
ATOM     23 CL   UNL d   1      33.222  23.383 -18.314  0.00  0.00    -0.082 Cl
ATOM     24  C   UNL d   1      32.896  23.402 -20.470  0.00  0.00     0.020 A 
ENDBRANCH  17  18
ENDBRANCH  14  17
ENDBRANCH   1  12
BRANCH  10  25
ATOM     25  O   UNL d   1      32.662  17.371 -24.775  0.00  0.00    -0.328 OA
ATOM     26  C   UNL d   1      32.529  16.562 -24.855  0.00  0.00     0.181 C 
ENDBRANCH  10  25
TORSDOF 4
ENDMDL
MODEL 4
REMARK VINA RESULT:      -1.5      2.314      5.091
REMARK  4 active torsions:
REMARK  status: ('A' for Active; 'I' for Inactive)
REMARK    1  A    between atoms: C_2  and  C_1 
REMARK    2  A    between atoms: N_12  and  C_6 
REMARK    3  A    between atoms: C_16  and  N_12 
REMARK    4  A    between atoms: O_25  and  C_17 
ROOT
ATOM      1  C   UNL d   1      32.687  18.692 -23.717  0.00  0.00     0.082 A 
ATOM      2  C   UNL d   1      32.743  18.638 -22.897  0.00  0.00     0.302 A 
ATOM      3  C   UNL d   1      32.776  19.425 -24.087  0.00  0.00     0.009 A 
ATOM      4  O   UNL d   1      32.888  19.315 -22.440  0.00  0.00    -0.273 OA
ATOM      5  C   UNL d   1      32.920  20.106 -23.639  0.00  0.00     0.025 A 
ATOM      6  C   UNL d   1      32.975  20.043 -22.811  0.00  0.00     0.103 A 
ATOM      7  O   UNL d   1      32.654  17.902 -22.518  0.00  0.00    -0.259 OA
ATOM      8  C   UNL d   1      33.008  20.835 -24.014  0.00  0.00     0.026 A 
ATOM      9  C   UNL d   1      33.120  20.726 -22.370  0.00  0.00     0.027 A 
ATOM     10  C   UNL d   1      33.152  21.508 -23.561  0.00  0.00     0.094 A 
ATOM     11  C   UNL d   1      33.208  21.453 -22.733  0.00  0.00     0.026 A 
ENDROOT
BRANCH   1  12
ATOM     12  C   UNL d   1      32.543  18.011 -24.166  0.00  0.00     0.095 A 
ATOM     13  N   UNL d   1      31.814  17.636 -24.260  0.00  0.00    -0.221 NA
ATOM     14  C   UNL d   1      31.931  16.983 -24.750  0.00  0.00     0.194 A 
ATOM     15  S   UNL d   1      32.732  16.951 -24.961  0.00  0.00    -0.046 SA
ATOM     16  C   UNL d   1      33.113  17.593 -24.596  0.00  0.00     0.058 A 
BRANCH  14  17
ATOM     17  N   UNL d   1      31.345  16.449 -24.991  0.00  0.00    -0.221 NA
BRANCH  17  18
ATOM     18  C   UNL d   1      30.582  16.504 -24.683  0.00  0.00     0.084 A 
ATOM     19  C   UNL d   1      30.058  17.052 -25.000  0.00  0.00     0.020 A 
ATOM     20  C   UNL d   1      29.288  17.106 -24.687  0.00  0.00     0.013 A 
ATOM     21  C   UNL d   1      29.058  16.611 -24.064  0.00  0.00     0.058 A 
ATOM     22  C   UNL d   1      29.598  16.067 -23.759  0.00  0.00     0.013 A 
ATOM     23 CL   UNL d   1      28.300  16.660 -23.752  0.00  0.00    -0.082 Cl
ATOM     24  C   UNL d   1      30.358  16.011 -24.065  0.00  0.00     0.020 A 
ENDBRANCH  17  18
ENDBRANCH  14  17
ENDBRANCH   1  12
BRANCH  10  25
ATOM     25  O   UNL d   1      33.240  22.240 -23.932  0.00  0.00    -0.328 OA
ATOM     26  C   UNL d   1      32.984  22.930 -23.561  0.00  0.00     0.181 C 
ENDBRANCH  10  25
TORSDOF 4
ENDMDL
