MODEL 1
REMARK VINA RESULT:      31.6      0.000      0.000
REMARK  3 active torsions:
REMARK  status: ('A' for Active; 'I' for Inactive)
REMARK    1  A    between atoms: C_7  and  N_1 
REMARK    2  A    between atoms: N_3  and  C_8 
REMARK    3  A    between atoms: C_11  and  C_4 
ROOT
ATOM      1  N   UNL d   1     -58.481 -98.961 -45.280  0.00  0.00    -0.230 N 
ATOM      2  N   UNL d   1     -58.727 -98.934 -46.058  0.00  0.00    -0.165 NA
ATOM      3  C   UNL d   1     -59.152 -98.860 -44.791  0.00  0.00     0.084 A 
ATOM      4  C   UNL d   1     -59.542 -98.817 -46.068  0.00  0.00     0.103 A 
ATOM      5  C   UNL d   1     -59.804 -98.771 -45.293  0.00  0.00     0.040 A 
ATOM      6  C   UNL d   1     -59.950 -98.766 -46.807  0.00  0.00     0.022 C 
ENDROOT
BRANCH   1   7
ATOM      7  C   UNL d   1     -57.709 -99.070 -45.032  0.00  0.00     0.083 A 
ATOM      8  C   UNL d   1     -57.089 -98.793 -45.494  0.00  0.00     0.021 A 
ATOM      9  C   UNL d   1     -56.310 -98.901 -45.245  0.00  0.00     0.025 A 
ATOM     10  C   UNL d   1     -56.144 -99.286 -44.535  0.00  0.00     0.127 A 
ATOM     11  C   UNL d   1     -56.767 -99.564 -44.072  0.00  0.00     0.025 A 
ATOM     12  C   UNL d   1     -57.549 -99.454 -44.325  0.00  0.00     0.021 A 
BRANCH  10  13
ATOM     13  N   UNL d   1     -55.351 -99.394 -44.288  0.00  0.00    -0.114 N 
ATOM     14  O   UNL d   1     -54.816 -98.765 -44.067  0.00  0.00    -0.532 OA
ATOM     15  O   UNL d   1     -54.969-100.137 -44.222  0.00  0.00    -0.532 OA
ENDBRANCH  10  13
ENDBRANCH   1   7
BRANCH   3  16
ATOM     16  C   UNL d   1     -59.206 -98.844 -43.964  0.00  0.00     0.018 A 
ATOM     17  C   UNL d   1     -58.501 -98.774 -43.522  0.00  0.00     0.002 A 
ATOM     18  C   UNL d   1     -58.536 -98.756 -42.687  0.00  0.00     0.000 A 
ATOM     19  C   UNL d   1     -59.266 -98.807 -42.311  0.00  0.00     0.000 A 
ATOM     20  C   UNL d   1     -59.956 -98.876 -42.750  0.00  0.00     0.000 A 
ATOM     21  C   UNL d   1     -59.942 -98.895 -43.573  0.00  0.00     0.002 A 
ENDBRANCH   3  16
TORSDOF 3
ENDMDL
