MODEL 1
REMARK VINA RESULT:      -3.3      0.000      0.000
REMARK  5 active torsions:
REMARK  status: ('A' for Active; 'I' for Inactive)
REMARK    1  A    between atoms: C_2  and  N_1 
REMARK    2  A    between atoms: C_5  and  C_18 
REMARK       I    between atoms: N_9  and  C_5 
REMARK    3  A    between atoms: O_15  and  C_7 
REMARK    4  A    between atoms: C_13  and  N_9 
REMARK    5  A    between atoms: C_18  and  O_15 
ROOT
ATOM      1  C   UNL d   1      33.047  19.197 -22.879  0.00  0.00     0.304 C 
ATOM      2  N   UNL d   1      32.824  18.894 -23.614  0.00  0.00    -0.206 NA
ATOM      3  O   UNL d   1      33.076  18.702 -22.220  0.00  0.00    -0.263 OA
ENDROOT
BRANCH   1   4
ATOM      4  C   UNL d   1      33.240  19.996 -22.804  0.00  0.00     0.185 C 
BRANCH   4   5
ATOM      5  O   UNL d   1      32.995  20.419 -22.140  0.00  0.00    -0.298 OA
BRANCH   5   6
ATOM      6  C   UNL d   1      32.997  21.244 -22.153  0.00  0.00     0.122 A 
ATOM      7  C   UNL d   1      32.760  21.668 -21.475  0.00  0.00     0.149 A 
ATOM      8  C   UNL d   1      32.762  22.493 -21.487  0.00  0.00     0.026 A 
ATOM      9  C   UNL d   1      33.003  22.894 -22.178  0.00  0.00     0.002 A 
ATOM     10  C   UNL d   1      33.237  22.471 -22.845  0.00  0.00     0.002 A 
ATOM     11  C   UNL d   1      33.235  21.646 -22.833  0.00  0.00     0.026 A 
BRANCH   7  12
ATOM     12  N   UNL d   1      32.525  21.266 -20.802  0.00  0.00    -0.112 N 
ATOM     13  O   UNL d   1      31.729  21.078 -20.696  0.00  0.00    -0.532 OA
ATOM     14  O   UNL d   1      33.080  21.048 -20.232  0.00  0.00    -0.532 OA
ENDBRANCH   7  12
ENDBRANCH   5   6
ENDBRANCH   4   5
ENDBRANCH   1   4
BRANCH   2  15
ATOM     15  C   UNL d   1      32.630  18.095 -23.689  0.00  0.00     0.087 A 
ATOM     16  C   UNL d   1      31.839  17.859 -23.668  0.00  0.00     0.045 A 
ATOM     17  C   UNL d   1      31.646  17.061 -23.743  0.00  0.00     0.121 A 
ATOM     18  O   UNL d   1      30.921  16.669 -23.743  0.00  0.00    -0.299 OA
ATOM     19  C   UNL d   1      32.243  16.499 -23.839  0.00  0.00     0.119 A 
ATOM     20  C   UNL d   1      31.064  15.862 -23.839  0.00  0.00     0.304 A 
ATOM     21  O   UNL d   1      31.885  15.758 -23.898  0.00  0.00    -0.300 OA
ATOM     22  C   UNL d   1      33.025  16.738 -23.859  0.00  0.00     0.028 A 
ATOM     23  C   UNL d   1      33.218  17.536 -23.784  0.00  0.00     0.021 A 
ENDBRANCH   2  15
TORSDOF 5
ENDMDL
MODEL 2
REMARK VINA RESULT:      -2.9      1.119      5.128
REMARK  5 active torsions:
REMARK  status: ('A' for Active; 'I' for Inactive)
REMARK    1  A    between atoms: C_2  and  N_1 
REMARK    2  A    between atoms: C_5  and  C_18 
REMARK       I    between atoms: N_9  and  C_5 
REMARK    3  A    between atoms: O_15  and  C_7 
REMARK    4  A    between atoms: C_13  and  N_9 
REMARK    5  A    between atoms: C_18  and  O_15 
ROOT
ATOM      1  C   UNL d   1      33.013  19.597 -22.606  0.00  0.00     0.304 C 
ATOM      2  N   UNL d   1      32.895  19.890 -21.843  0.00  0.00    -0.206 NA
ATOM      3  O   UNL d   1      33.086  20.118 -23.240  0.00  0.00    -0.263 OA
ENDROOT
BRANCH   1   4
ATOM      4  C   UNL d   1      33.059  18.783 -22.732  0.00  0.00     0.185 C 
BRANCH   4   5
ATOM      5  O   UNL d   1      32.561  18.423 -23.282  0.00  0.00    -0.298 OA
BRANCH   5   6
ATOM      6  C   UNL d   1      32.611  17.610 -23.414  0.00  0.00     0.122 A 
ATOM      7  C   UNL d   1      32.078  17.244 -23.941  0.00  0.00     0.149 A 
ATOM      8  C   UNL d   1      32.128  16.431 -24.073  0.00  0.00     0.026 A 
ATOM      9  C   UNL d   1      32.711  15.985 -23.678  0.00  0.00     0.002 A 
ATOM     10  C   UNL d   1      33.236  16.351 -23.158  0.00  0.00     0.002 A 
ATOM     11  C   UNL d   1      33.186  17.164 -23.026  0.00  0.00     0.026 A 
BRANCH   7  12
ATOM     12  N   UNL d   1      31.509  17.690 -24.324  0.00  0.00    -0.112 N 
ATOM     13  O   UNL d   1      30.761  17.772 -23.987  0.00  0.00    -0.532 OA
ATOM     14  O   UNL d   1      31.681  18.057 -25.043  0.00  0.00    -0.532 OA
ENDBRANCH   7  12
ENDBRANCH   5   6
ENDBRANCH   4   5
ENDBRANCH   1   4
BRANCH   2  15
ATOM     15  C   UNL d   1      32.849  20.704 -21.716  0.00  0.00     0.087 A 
ATOM     16  C   UNL d   1      32.407  20.998 -21.084  0.00  0.00     0.045 A 
ATOM     17  C   UNL d   1      32.362  21.812 -20.957  0.00  0.00     0.121 A 
ATOM     18  O   UNL d   1      31.972  22.259 -20.385  0.00  0.00    -0.299 OA
ATOM     19  C   UNL d   1      32.758  22.332 -21.462  0.00  0.00     0.119 A 
ATOM     20  C   UNL d   1      32.124  23.056 -20.531  0.00  0.00     0.304 A 
ATOM     21  O   UNL d   1      32.612  23.100 -21.200  0.00  0.00    -0.300 OA
ATOM     22  C   UNL d   1      33.195  22.035 -22.087  0.00  0.00     0.028 A 
ATOM     23  C   UNL d   1      33.240  21.221 -22.214  0.00  0.00     0.021 A 
ENDBRANCH   2  15
TORSDOF 5
ENDMDL
MODEL 3
REMARK VINA RESULT:      -2.8      1.532      2.169
REMARK  5 active torsions:
REMARK  status: ('A' for Active; 'I' for Inactive)
REMARK    1  A    between atoms: C_2  and  N_1 
REMARK    2  A    between atoms: C_5  and  C_18 
REMARK       I    between atoms: N_9  and  C_5 
REMARK    3  A    between atoms: O_15  and  C_7 
REMARK    4  A    between atoms: C_13  and  N_9 
REMARK    5  A    between atoms: C_18  and  O_15 
ROOT
ATOM      1  C   UNL d   1      32.606  20.333 -21.843  0.00  0.00     0.304 C 
ATOM      2  N   UNL d   1      33.239  19.849 -22.059  0.00  0.00    -0.206 NA
ATOM      3  O   UNL d   1      31.884  20.267 -22.236  0.00  0.00    -0.263 OA
ENDROOT
BRANCH   1   4
ATOM      4  C   UNL d   1      32.697  20.883 -21.235  0.00  0.00     0.185 C 
BRANCH   4   5
ATOM      5  O   UNL d   1      32.679  21.690 -21.403  0.00  0.00    -0.298 OA
BRANCH   5   6
ATOM      6  C   UNL d   1      32.804  22.240 -20.801  0.00  0.00     0.122 A 
ATOM      7  C   UNL d   1      32.626  23.044 -20.933  0.00  0.00     0.149 A 
ATOM      8  C   UNL d   1      32.750  23.594 -20.330  0.00  0.00     0.026 A 
ATOM      9  C   UNL d   1      33.052  23.339 -19.596  0.00  0.00     0.002 A 
ATOM     10  C   UNL d   1      33.227  22.544 -19.470  0.00  0.00     0.002 A 
ATOM     11  C   UNL d   1      33.102  21.994 -20.073  0.00  0.00     0.026 A 
BRANCH   7  12
ATOM     12  N   UNL d   1      32.329  23.285 -21.656  0.00  0.00    -0.112 N 
ATOM     13  O   UNL d   1      32.850  23.474 -22.267  0.00  0.00    -0.532 OA
ATOM     14  O   UNL d   1      31.515  23.337 -21.776  0.00  0.00    -0.532 OA
ENDBRANCH   7  12
ENDBRANCH   5   6
ENDBRANCH   4   5
ENDBRANCH   1   4
BRANCH   2  15
ATOM     15  C   UNL d   1      33.149  19.298 -22.667  0.00  0.00     0.087 A 
ATOM     16  C   UNL d   1      33.057  18.498 -22.488  0.00  0.00     0.045 A 
ATOM     17  C   UNL d   1      32.967  17.948 -23.096  0.00  0.00     0.121 A 
ATOM     18  O   UNL d   1      32.866  17.130 -23.087  0.00  0.00    -0.299 OA
ATOM     19  C   UNL d   1      32.969  18.198 -23.883  0.00  0.00     0.119 A 
ATOM     20  C   UNL d   1      32.805  16.868 -23.867  0.00  0.00     0.304 A 
ATOM     21  O   UNL d   1      32.869  17.533 -24.360  0.00  0.00    -0.300 OA
ATOM     22  C   UNL d   1      33.061  18.992 -24.055  0.00  0.00     0.028 A 
ATOM     23  C   UNL d   1      33.151  19.543 -23.447  0.00  0.00     0.021 A 
ENDBRANCH   2  15
TORSDOF 5
ENDMDL
MODEL 4
REMARK VINA RESULT:      -0.7      1.364      5.099
REMARK  5 active torsions:
REMARK  status: ('A' for Active; 'I' for Inactive)
REMARK    1  A    between atoms: C_2  and  N_1 
REMARK    2  A    between atoms: C_5  and  C_18 
REMARK       I    between atoms: N_9  and  C_5 
REMARK    3  A    between atoms: O_15  and  C_7 
REMARK    4  A    between atoms: C_13  and  N_9 
REMARK    5  A    between atoms: C_18  and  O_15 
ROOT
ATOM      1  C   UNL d   1      32.958  20.877 -22.149  0.00  0.00     0.304 C 
ATOM      2  N   UNL d   1      32.859  21.697 -22.134  0.00  0.00    -0.206 NA
ATOM      3  O   UNL d   1      32.968  20.450 -21.443  0.00  0.00    -0.263 OA
ENDROOT
BRANCH   1   4
ATOM      4  C   UNL d   1      33.045  20.486 -22.870  0.00  0.00     0.185 C 
BRANCH   4   5
ATOM      5  O   UNL d   1      32.877  19.681 -22.925  0.00  0.00    -0.298 OA
BRANCH   5   6
ATOM      6  C   UNL d   1      32.961  19.290 -23.647  0.00  0.00     0.122 A 
ATOM      7  C   UNL d   1      32.848  18.464 -23.685  0.00  0.00     0.149 A 
ATOM      8  C   UNL d   1      32.932  18.073 -24.407  0.00  0.00     0.026 A 
ATOM      9  C   UNL d   1      33.130  18.508 -25.090  0.00  0.00     0.002 A 
ATOM     10  C   UNL d   1      33.241  19.324 -25.048  0.00  0.00     0.002 A 
ATOM     11  C   UNL d   1      33.156  19.715 -24.326  0.00  0.00     0.026 A 
BRANCH   7  12
ATOM     12  N   UNL d   1      32.654  18.046 -23.009  0.00  0.00    -0.112 N 
ATOM     13  O   UNL d   1      31.867  17.844 -22.866  0.00  0.00    -0.532 OA
ATOM     14  O   UNL d   1      33.241  17.827 -22.472  0.00  0.00    -0.532 OA
ENDBRANCH   7  12
ENDBRANCH   5   6
ENDBRANCH   4   5
ENDBRANCH   1   4
BRANCH   2  15
ATOM     15  C   UNL d   1      32.772  22.088 -21.413  0.00  0.00     0.087 A 
ATOM     16  C   UNL d   1      33.082  21.757 -20.723  0.00  0.00     0.045 A 
ATOM     17  C   UNL d   1      32.994  22.148 -20.003  0.00  0.00     0.121 A 
ATOM     18  O   UNL d   1      33.240  21.956 -19.239  0.00  0.00    -0.299 OA
ATOM     19  C   UNL d   1      32.597  22.871 -19.971  0.00  0.00     0.119 A 
ATOM     20  C   UNL d   1      32.997  22.558 -18.731  0.00  0.00     0.304 A 
ATOM     21  O   UNL d   1      32.598  23.125 -19.186  0.00  0.00    -0.300 OA
ATOM     22  C   UNL d   1      32.291  23.196 -20.657  0.00  0.00     0.028 A 
ATOM     23  C   UNL d   1      32.379  22.804 -21.378  0.00  0.00     0.021 A 
ENDBRANCH   2  15
TORSDOF 5
ENDMDL
MODEL 5
REMARK VINA RESULT:      -0.4      2.417      3.920
REMARK  5 active torsions:
REMARK  status: ('A' for Active; 'I' for Inactive)
REMARK    1  A    between atoms: C_2  and  N_1 
REMARK    2  A    between atoms: C_5  and  C_18 
REMARK       I    between atoms: N_9  and  C_5 
REMARK    3  A    between atoms: O_15  and  C_7 
REMARK    4  A    between atoms: C_13  and  N_9 
REMARK    5  A    between atoms: C_18  and  O_15 
ROOT
ATOM      1  C   UNL d   1      30.371  17.322 -24.780  0.00  0.00     0.304 C 
ATOM      2  N   UNL d   1      30.289  16.564 -24.463  0.00  0.00    -0.206 NA
ATOM      3  O   UNL d   1      29.701  17.779 -24.931  0.00  0.00    -0.263 OA
ENDROOT
BRANCH   1   4
ATOM      4  C   UNL d   1      31.121  17.623 -24.944  0.00  0.00     0.185 C 
BRANCH   4   5
ATOM      5  O   UNL d   1      31.656  17.752 -24.331  0.00  0.00    -0.298 OA
BRANCH   5   6
ATOM      6  C   UNL d   1      32.185  18.385 -24.371  0.00  0.00     0.122 A 
ATOM      7  C   UNL d   1      32.672  18.558 -23.717  0.00  0.00     0.149 A 
ATOM      8  C   UNL d   1      33.200  19.191 -23.758  0.00  0.00     0.026 A 
ATOM      9  C   UNL d   1      33.241  19.650 -24.453  0.00  0.00     0.002 A 
ATOM     10  C   UNL d   1      32.757  19.475 -25.097  0.00  0.00     0.002 A 
ATOM     11  C   UNL d   1      32.229  18.842 -25.056  0.00  0.00     0.026 A 
BRANCH   7  12
ATOM     12  N   UNL d   1      32.625  18.103 -23.040  0.00  0.00    -0.112 N 
ATOM     13  O   UNL d   1      32.256  18.407 -22.368  0.00  0.00    -0.532 OA
ATOM     14  O   UNL d   1      32.944  17.342 -23.026  0.00  0.00    -0.532 OA
ENDBRANCH   7  12
ENDBRANCH   5   6
ENDBRANCH   4   5
ENDBRANCH   1   4
BRANCH   2  15
ATOM     15  C   UNL d   1      29.539  16.263 -24.299  0.00  0.00     0.087 A 
ATOM     16  C   UNL d   1      29.164  16.457 -23.590  0.00  0.00     0.045 A 
ATOM     17  C   UNL d   1      28.413  16.156 -23.426  0.00  0.00     0.121 A 
ATOM     18  O   UNL d   1      27.913  16.251 -22.777  0.00  0.00    -0.299 OA
ATOM     19  C   UNL d   1      28.038  15.663 -23.970  0.00  0.00     0.119 A 
ATOM     20  C   UNL d   1      27.225  15.817 -22.916  0.00  0.00     0.304 A 
ATOM     21  O   UNL d   1      27.304  15.453 -23.657  0.00  0.00    -0.300 OA
ATOM     22  C   UNL d   1      28.414  15.474 -24.672  0.00  0.00     0.028 A 
ATOM     23  C   UNL d   1      29.164  15.774 -24.836  0.00  0.00     0.021 A 
ENDBRANCH   2  15
TORSDOF 5
ENDMDL
