MODEL 1
REMARK VINA RESULT:      -9.9      0.000      0.000
REMARK  5 active torsions:
REMARK  status: ('A' for Active; 'I' for Inactive)
REMARK    1  A    between atoms: N_6  and  S_1 
REMARK    2  A    between atoms: C_7  and  S_1 
REMARK    3  A    between atoms: C_9  and  C_2 
REMARK       I    between atoms: N_16  and  C_9 
REMARK    4  A    between atoms: C_26  and  N_16 
REMARK    5  A    between atoms: C_18  and  C_26 
ROOT
ATOM      1  C   UNL d   1      49.837  34.784  52.551  0.00  0.00     0.158 A 
ATOM      2  C   UNL d   1      49.225  34.757  51.995  0.00  0.00     0.029 A 
ATOM      3  O   UNL d   1      49.581  35.235  53.185  0.00  0.00    -0.302 OA
ATOM      4  C   UNL d   1      48.610  35.193  52.303  0.00  0.00     0.026 A 
ATOM      5  C   UNL d   1      47.316  35.816  52.403  0.00  0.00     0.104 A 
ATOM      6  C   UNL d   1      48.818  35.494  53.040  0.00  0.00     0.100 A 
ATOM      7  C   UNL d   1      47.851  35.355  51.981  0.00  0.00     0.015 A 
ATOM      8  C   UNL d   1      47.534  36.119  53.150  0.00  0.00     0.015 A 
ATOM      9  C   UNL d   1      48.284  35.952  53.458  0.00  0.00     0.025 A 
ATOM     10  C   UNL d   1      49.249  34.361  51.273  0.00  0.00     0.002 C 
ENDROOT
BRANCH   1  11
ATOM     11  C   UNL d   1      50.545  34.392  52.401  0.00  0.00     0.302 C 
ATOM     12  N   UNL d   1      51.149  34.405  52.964  0.00  0.00    -0.203 NA
ATOM     13  O   UNL d   1      50.664  33.985  51.699  0.00  0.00    -0.263 OA
BRANCH  12  14
ATOM     14  C   UNL d   1      51.864  34.014  52.823  0.00  0.00     0.129 C 
BRANCH  14  15
ATOM     15  C   UNL d   1      52.479  34.036  53.386  0.00  0.00     0.144 A 
ATOM     16  O   UNL d   1      52.786  33.325  53.696  0.00  0.00    -0.301 OA
ATOM     17  C   UNL d   1      53.391  33.350  54.250  0.00  0.00     0.123 A 
ATOM     18  C   UNL d   1      53.704  32.651  54.564  0.00  0.00     0.027 A 
ATOM     19  C   UNL d   1      53.697  34.069  54.503  0.00  0.00     0.123 A 
ATOM     20  C   UNL d   1      54.310  32.666  55.120  0.00  0.00     0.002 A 
ATOM     21  C   UNL d   1      54.608  33.399  55.365  0.00  0.00     0.002 A 
ATOM     22  C   UNL d   1      54.306  34.099  55.061  0.00  0.00     0.027 A 
ATOM     23  O   UNL d   1      53.380  34.773  54.185  0.00  0.00    -0.301 OA
ATOM     24  C   UNL d   1      52.780  34.763  53.635  0.00  0.00     0.149 A 
ENDBRANCH  14  15
ENDBRANCH  12  14
ENDBRANCH   1  11
BRANCH   5  25
ATOM     25  S   UNL d   1      46.567  35.976  52.083  0.00  0.00     0.272 S 
ATOM     26  O   UNL d   1      46.240  35.373  52.549  0.00  0.00    -0.200 OA
ATOM     27  O   UNL d   1      46.896  36.587  51.610  0.00  0.00    -0.200 OA
BRANCH  25  28
ATOM     28  N   UNL d   1      45.809  36.137  51.761  0.00  0.00    -0.225 N 
ATOM     29  C   UNL d   1      45.638  35.874  51.002  0.00  0.00     0.118 A 
ATOM     30  C   UNL d   1      44.895  36.026  50.672  0.00  0.00     0.142 A 
ATOM     31  O   UNL d   1      44.315  36.452  51.124  0.00  0.00    -0.300 OA
ATOM     32  C   UNL d   1      44.505  36.708  51.886  0.00  0.00     0.142 A 
ATOM     33  C   UNL d   1      45.249  36.550  52.200  0.00  0.00     0.118 A 
ENDBRANCH  25  28
ENDBRANCH   5  25
TORSDOF 5
ENDMDL
MODEL 2
REMARK VINA RESULT:      -9.0      1.429      2.075
REMARK  5 active torsions:
REMARK  status: ('A' for Active; 'I' for Inactive)
REMARK    1  A    between atoms: N_6  and  S_1 
REMARK    2  A    between atoms: C_7  and  S_1 
REMARK    3  A    between atoms: C_9  and  C_2 
REMARK       I    between atoms: N_16  and  C_9 
REMARK    4  A    between atoms: C_26  and  N_16 
REMARK    5  A    between atoms: C_18  and  C_26 
ROOT
ATOM      1  C   UNL d   1      50.559  34.419  52.418  0.00  0.00     0.158 A 
ATOM      2  C   UNL d   1      49.887  34.776  52.744  0.00  0.00     0.029 A 
ATOM      3  O   UNL d   1      50.392  34.234  51.637  0.00  0.00    -0.302 OA
ATOM      4  C   UNL d   1      49.327  34.801  52.154  0.00  0.00     0.026 A 
ATOM      5  C   UNL d   1      48.075  35.066  51.494  0.00  0.00     0.104 A 
ATOM      6  C   UNL d   1      49.627  34.469  51.464  0.00  0.00     0.100 A 
ATOM      7  C   UNL d   1      48.543  35.103  52.170  0.00  0.00     0.015 A 
ATOM      8  C   UNL d   1      48.387  34.727  50.797  0.00  0.00     0.015 A 
ATOM      9  C   UNL d   1      49.160  34.433  50.793  0.00  0.00     0.025 A 
ATOM     10  C   UNL d   1      49.816  35.049  53.519  0.00  0.00     0.002 C 
ENDROOT
BRANCH   1  11
ATOM     11  C   UNL d   1      51.231  34.311  52.881  0.00  0.00     0.302 C 
ATOM     12  N   UNL d   1      51.612  33.578  52.887  0.00  0.00    -0.203 NA
ATOM     13  O   UNL d   1      51.533  34.921  53.339  0.00  0.00    -0.263 OA
BRANCH  12  14
ATOM     14  C   UNL d   1      52.288  33.459  53.349  0.00  0.00     0.129 C 
BRANCH  14  15
ATOM     15  C   UNL d   1      52.684  32.725  53.341  0.00  0.00     0.144 A 
ATOM     16  O   UNL d   1      52.248  32.016  53.275  0.00  0.00    -0.301 OA
ATOM     17  C   UNL d   1      52.641  31.297  53.268  0.00  0.00     0.123 A 
ATOM     18  C   UNL d   1      52.219  30.587  53.203  0.00  0.00     0.027 A 
ATOM     19  C   UNL d   1      53.460  31.266  53.325  0.00  0.00     0.123 A 
ATOM     20  C   UNL d   1      52.604  29.860  53.194  0.00  0.00     0.002 A 
ATOM     21  C   UNL d   1      53.431  29.846  53.253  0.00  0.00     0.002 A 
ATOM     22  C   UNL d   1      53.859  30.542  53.318  0.00  0.00     0.027 A 
ATOM     23  O   UNL d   1      53.884  31.982  53.390  0.00  0.00    -0.301 OA
ATOM     24  C   UNL d   1      53.507  32.704  53.399  0.00  0.00     0.149 A 
ENDBRANCH  14  15
ENDBRANCH  12  14
ENDBRANCH   1  11
BRANCH   5  25
ATOM     25  S   UNL d   1      47.301  35.364  51.510  0.00  0.00     0.272 S 
ATOM     26  O   UNL d   1      47.005  34.592  51.577  0.00  0.00    -0.200 OA
ATOM     27  O   UNL d   1      47.598  36.146  51.443  0.00  0.00    -0.200 OA
BRANCH  25  28
ATOM     28  N   UNL d   1      46.517  35.664  51.527  0.00  0.00    -0.225 N 
ATOM     29  C   UNL d   1      46.009  35.477  50.911  0.00  0.00     0.118 A 
ATOM     30  C   UNL d   1      45.234  35.767  50.915  0.00  0.00     0.142 A 
ATOM     31  O   UNL d   1      44.972  36.256  51.559  0.00  0.00    -0.300 OA
ATOM     32  C   UNL d   1      45.499  36.433  52.170  0.00  0.00     0.142 A 
ATOM     33  C   UNL d   1      46.267  36.137  52.152  0.00  0.00     0.118 A 
ENDBRANCH  25  28
ENDBRANCH   5  25
TORSDOF 5
ENDMDL
MODEL 3
REMARK VINA RESULT:      -8.5      2.247      6.759
REMARK  5 active torsions:
REMARK  status: ('A' for Active; 'I' for Inactive)
REMARK    1  A    between atoms: N_6  and  S_1 
REMARK    2  A    between atoms: C_7  and  S_1 
REMARK    3  A    between atoms: C_9  and  C_2 
REMARK       I    between atoms: N_16  and  C_9 
REMARK    4  A    between atoms: C_26  and  N_16 
REMARK    5  A    between atoms: C_18  and  C_26 
ROOT
ATOM      1  C   UNL d   1      50.051  34.866  52.791  0.00  0.00     0.158 A 
ATOM      2  C   UNL d   1      50.167  34.048  52.735  0.00  0.00     0.029 A 
ATOM      3  O   UNL d   1      50.760  35.205  53.023  0.00  0.00    -0.302 OA
ATOM      4  C   UNL d   1      50.944  33.908  52.934  0.00  0.00     0.026 A 
ATOM      5  C   UNL d   1      52.161  33.182  53.190  0.00  0.00     0.104 A 
ATOM      6  C   UNL d   1      51.321  34.617  53.114  0.00  0.00     0.100 A 
ATOM      7  C   UNL d   1      51.367  33.184  52.972  0.00  0.00     0.015 A 
ATOM      8  C   UNL d   1      52.537  33.905  53.372  0.00  0.00     0.015 A 
ATOM      9  C   UNL d   1      52.110  34.613  53.331  0.00  0.00     0.025 A 
ATOM     10  C   UNL d   1      49.595  33.496  52.518  0.00  0.00     0.002 C 
ENDROOT
BRANCH   1  11
ATOM     11  C   UNL d   1      49.312  35.188  52.623  0.00  0.00     0.302 C 
ATOM     12  N   UNL d   1      48.882  35.564  53.220  0.00  0.00    -0.203 NA
ATOM     13  O   UNL d   1      48.991  35.142  51.869  0.00  0.00    -0.263 OA
BRANCH  12  14
ATOM     14  C   UNL d   1      48.140  35.890  53.061  0.00  0.00     0.129 C 
BRANCH  14  15
ATOM     15  C   UNL d   1      47.623  36.094  53.684  0.00  0.00     0.144 A 
ATOM     16  O   UNL d   1      46.819  35.871  53.649  0.00  0.00    -0.301 OA
ATOM     17  C   UNL d   1      46.314  36.073  54.262  0.00  0.00     0.123 A 
ATOM     18  C   UNL d   1      45.515  35.857  54.239  0.00  0.00     0.027 A 
ATOM     19  C   UNL d   1      46.591  36.492  54.912  0.00  0.00     0.123 A 
ATOM     20  C   UNL d   1      45.001  36.055  54.849  0.00  0.00     0.002 A 
ATOM     21  C   UNL d   1      45.296  36.478  55.498  0.00  0.00     0.002 A 
ATOM     22  C   UNL d   1      46.086  36.697  55.533  0.00  0.00     0.027 A 
ATOM     23  O   UNL d   1      47.397  36.709  54.935  0.00  0.00    -0.301 OA
ATOM     24  C   UNL d   1      47.911  36.516  54.332  0.00  0.00     0.149 A 
ENDBRANCH  14  15
ENDBRANCH  12  14
ENDBRANCH   1  11
BRANCH   5  25
ATOM     25  S   UNL d   1      52.577  32.467  53.228  0.00  0.00     0.272 S 
ATOM     26  O   UNL d   1      52.467  32.446  54.049  0.00  0.00    -0.200 OA
ATOM     27  O   UNL d   1      52.690  32.485  52.396  0.00  0.00    -0.200 OA
BRANCH  25  28
ATOM     28  N   UNL d   1      52.999  31.742  53.267  0.00  0.00    -0.225 N 
ATOM     29  C   UNL d   1      52.658  31.068  52.946  0.00  0.00     0.118 A 
ATOM     30  C   UNL d   1      53.062  30.347  52.978  0.00  0.00     0.142 A 
ATOM     31  O   UNL d   1      53.829  30.312  53.343  0.00  0.00    -0.300 OA
ATOM     32  C   UNL d   1      54.156  31.001  53.661  0.00  0.00     0.142 A 
ATOM     33  C   UNL d   1      53.741  31.711  53.621  0.00  0.00     0.118 A 
ENDBRANCH  25  28
ENDBRANCH   5  25
TORSDOF 5
ENDMDL
MODEL 4
REMARK VINA RESULT:      -8.0      1.765      7.080
REMARK  5 active torsions:
REMARK  status: ('A' for Active; 'I' for Inactive)
REMARK    1  A    between atoms: N_6  and  S_1 
REMARK    2  A    between atoms: C_7  and  S_1 
REMARK    3  A    between atoms: C_9  and  C_2 
REMARK       I    between atoms: N_16  and  C_9 
REMARK    4  A    between atoms: C_26  and  N_16 
REMARK    5  A    between atoms: C_18  and  C_26 
ROOT
ATOM      1  C   UNL d   1      49.923  34.166  52.047  0.00  0.00     0.158 A 
ATOM      2  C   UNL d   1      50.738  34.280  51.958  0.00  0.00     0.029 A 
ATOM      3  O   UNL d   1      49.803  33.725  52.727  0.00  0.00    -0.302 OA
ATOM      4  C   UNL d   1      51.096  33.906  52.586  0.00  0.00     0.026 A 
ATOM      5  C   UNL d   1      52.141  33.428  53.454  0.00  0.00     0.104 A 
ATOM      6  C   UNL d   1      50.527  33.559  53.070  0.00  0.00     0.100 A 
ATOM      7  C   UNL d   1      51.910  33.840  52.780  0.00  0.00     0.015 A 
ATOM      8  C   UNL d   1      51.558  33.078  53.940  0.00  0.00     0.015 A 
ATOM      9  C   UNL d   1      50.758  33.149  53.739  0.00  0.00     0.025 A 
ATOM     10  C   UNL d   1      51.101  34.695  51.345  0.00  0.00     0.002 C 
ENDROOT
BRANCH   1  11
ATOM     11  C   UNL d   1      49.402  34.482  51.492  0.00  0.00     0.302 C 
ATOM     12  N   UNL d   1      48.731  34.891  51.747  0.00  0.00    -0.203 NA
ATOM     13  O   UNL d   1      49.537  34.398  50.688  0.00  0.00    -0.263 OA
BRANCH  12  14
ATOM     14  C   UNL d   1      48.202  35.212  51.198  0.00  0.00     0.129 C 
BRANCH  14  15
ATOM     15  C   UNL d   1      47.487  35.561  51.451  0.00  0.00     0.144 A 
ATOM     16  O   UNL d   1      46.757  35.245  51.200  0.00  0.00    -0.301 OA
ATOM     17  C   UNL d   1      46.057  35.591  51.451  0.00  0.00     0.123 A 
ATOM     18  C   UNL d   1      45.326  35.286  51.209  0.00  0.00     0.027 A 
ATOM     19  C   UNL d   1      46.067  36.246  51.946  0.00  0.00     0.123 A 
ATOM     20  C   UNL d   1      44.618  35.626  51.454  0.00  0.00     0.002 A 
ATOM     21  C   UNL d   1      44.646  36.287  51.954  0.00  0.00     0.002 A 
ATOM     22  C   UNL d   1      45.364  36.597  52.201  0.00  0.00     0.027 A 
ATOM     23  O   UNL d   1      46.805  36.552  52.190  0.00  0.00    -0.301 OA
ATOM     24  C   UNL d   1      47.508  36.219  51.949  0.00  0.00     0.149 A 
ENDBRANCH  14  15
ENDBRANCH  12  14
ENDBRANCH   1  11
BRANCH   5  25
ATOM     25  S   UNL d   1      52.945  33.364  53.644  0.00  0.00     0.272 S 
ATOM     26  O   UNL d   1      52.994  32.665  53.201  0.00  0.00    -0.200 OA
ATOM     27  O   UNL d   1      52.898  34.072  54.094  0.00  0.00    -0.200 OA
BRANCH  25  28
ATOM     28  N   UNL d   1      53.760  33.298  53.836  0.00  0.00    -0.225 N 
ATOM     29  C   UNL d   1      54.267  32.951  53.293  0.00  0.00     0.118 A 
ATOM     30  C   UNL d   1      55.072  32.879  53.469  0.00  0.00     0.142 A 
ATOM     31  O   UNL d   1      55.366  33.167  54.213  0.00  0.00    -0.300 OA
ATOM     32  C   UNL d   1      54.839  33.513  54.747  0.00  0.00     0.142 A 
ATOM     33  C   UNL d   1      54.041  33.577  54.557  0.00  0.00     0.118 A 
ENDBRANCH  25  28
ENDBRANCH   5  25
TORSDOF 5
ENDMDL
MODEL 5
REMARK VINA RESULT:      -7.0      2.018      7.057
REMARK  5 active torsions:
REMARK  status: ('A' for Active; 'I' for Inactive)
REMARK    1  A    between atoms: N_6  and  S_1 
REMARK    2  A    between atoms: C_7  and  S_1 
REMARK    3  A    between atoms: C_9  and  C_2 
REMARK       I    between atoms: N_16  and  C_9 
REMARK    4  A    between atoms: C_26  and  N_16 
REMARK    5  A    between atoms: C_18  and  C_26 
ROOT
ATOM      1  C   UNL d   1      50.167  34.827  52.912  0.00  0.00     0.158 A 
ATOM      2  C   UNL d   1      50.294  34.099  53.286  0.00  0.00     0.029 A 
ATOM      3  O   UNL d   1      50.806  34.972  52.421  0.00  0.00    -0.302 OA
ATOM      4  C   UNL d   1      51.008  33.818  53.013  0.00  0.00     0.026 A 
ATOM      5  C   UNL d   1      52.139  32.942  52.849  0.00  0.00     0.104 A 
ATOM      6  C   UNL d   1      51.335  34.350  52.477  0.00  0.00     0.100 A 
ATOM      7  C   UNL d   1      51.414  33.107  53.201  0.00  0.00     0.015 A 
ATOM      8  C   UNL d   1      52.464  33.487  52.306  0.00  0.00     0.015 A 
ATOM      9  C   UNL d   1      52.056  34.184  52.127  0.00  0.00     0.025 A 
ATOM     10  C   UNL d   1      49.786  33.742  53.827  0.00  0.00     0.002 C 
ENDROOT
BRANCH   1  11
ATOM     11  C   UNL d   1      49.483  35.256  53.074  0.00  0.00     0.302 C 
ATOM     12  N   UNL d   1      48.865  35.264  52.526  0.00  0.00    -0.203 NA
ATOM     13  O   UNL d   1      49.403  35.679  53.772  0.00  0.00    -0.263 OA
BRANCH  12  14
ATOM     14  C   UNL d   1      48.174  35.692  52.679  0.00  0.00     0.129 C 
BRANCH  14  15
ATOM     15  C   UNL d   1      47.514  35.627  52.173  0.00  0.00     0.144 A 
ATOM     16  O   UNL d   1      46.742  35.650  52.490  0.00  0.00    -0.301 OA
ATOM     17  C   UNL d   1      46.095  35.585  51.990  0.00  0.00     0.123 A 
ATOM     18  C   UNL d   1      45.325  35.606  52.293  0.00  0.00     0.027 A 
ATOM     19  C   UNL d   1      46.199  35.499  51.180  0.00  0.00     0.123 A 
ATOM     20  C   UNL d   1      44.669  35.542  51.800  0.00  0.00     0.002 A 
ATOM     21  C   UNL d   1      44.791  35.456  50.985  0.00  0.00     0.002 A 
ATOM     22  C   UNL d   1      45.549  35.434  50.673  0.00  0.00     0.027 A 
ATOM     23  O   UNL d   1      46.976  35.478  50.876  0.00  0.00    -0.301 OA
ATOM     24  C   UNL d   1      47.628  35.541  51.360  0.00  0.00     0.149 A 
ENDBRANCH  14  15
ENDBRANCH  12  14
ENDBRANCH   1  11
BRANCH   5  25
ATOM     25  S   UNL d   1      52.539  32.240  53.036  0.00  0.00     0.272 S 
ATOM     26  O   UNL d   1      52.854  32.600  53.713  0.00  0.00    -0.200 OA
ATOM     27  O   UNL d   1      52.221  31.874  52.350  0.00  0.00    -0.200 OA
BRANCH  25  28
ATOM     28  N   UNL d   1      52.944  31.530  53.226  0.00  0.00    -0.225 N 
ATOM     29  C   UNL d   1      52.639  30.817  52.957  0.00  0.00     0.118 A 
ATOM     30  C   UNL d   1      53.028  30.109  53.137  0.00  0.00     0.142 A 
ATOM     31  O   UNL d   1      53.741  30.129  53.599  0.00  0.00    -0.300 OA
ATOM     32  C   UNL d   1      54.032  30.856  53.860  0.00  0.00     0.142 A 
ATOM     33  C   UNL d   1      53.634  31.552  53.673  0.00  0.00     0.118 A 
ENDBRANCH  25  28
ENDBRANCH   5  25
TORSDOF 5
ENDMDL
