MODEL 1
REMARK VINA RESULT:      25.7      0.000      0.000
REMARK  3 active torsions:
REMARK  status: ('A' for Active; 'I' for Inactive)
REMARK       I    between atoms: C_3  and  N_1 
REMARK    1  A    between atoms: C_6  and  C_3 
REMARK    2  A    between atoms: O_9  and  C_6 
REMARK    3  A    between atoms: C_10  and  O_9 
ROOT
ATOM      1  N   UNL d   1      13.841  12.262  -1.478  0.00  0.00    -0.272 N 
ATOM      2  C   UNL d   1      14.484  12.710  -1.216  0.00  0.00     0.067 A 
ATOM      3  C   UNL d   1      13.511  12.268  -2.242  0.00  0.00     0.290 C 
ATOM      4  C   UNL d   1      13.580  11.813  -0.868  0.00  0.00     0.083 A 
ATOM      5  C   UNL d   1      14.617  12.530  -0.433  0.00  0.00     0.018 A 
ATOM      6  O   UNL d   1      12.868  11.784  -2.408  0.00  0.00    -0.264 OA
ATOM      7  C   UNL d   1      14.059  11.971  -0.202  0.00  0.00     0.021 A 
ATOM      8  C   UNL d   1      14.966  13.258  -1.587  0.00  0.00     0.018 A 
ATOM      9  C   UNL d   1      15.230  12.895  -0.014  0.00  0.00     0.002 A 
ATOM     10  C   UNL d   1      15.572  13.623  -1.186  0.00  0.00     0.002 A 
ATOM     11  C   UNL d   1      15.705  13.436  -0.383  0.00  0.00     0.000 A 
ENDROOT
BRANCH   3  12
ATOM     12  C   UNL d   1      13.837  12.760  -2.818  0.00  0.00     0.184 C 
BRANCH  12  13
ATOM     13  O   UNL d   1      13.333  13.135  -3.362  0.00  0.00    -0.300 OA
BRANCH  13  14
ATOM     14  C   UNL d   1      13.331  12.901  -4.148  0.00  0.00     0.100 A 
ATOM     15  C   UNL d   1      13.330  13.474  -4.751  0.00  0.00     0.025 A 
ATOM     16  C   UNL d   1      13.328  13.244  -5.538  0.00  0.00     0.002 A 
ATOM     17  C   UNL d   1      13.328  12.441  -5.732  0.00  0.00     0.000 A 
ATOM     18  C   UNL d   1      13.330  11.858  -5.142  0.00  0.00     0.002 A 
ATOM     19  C   UNL d   1      13.331  12.102  -4.342  0.00  0.00     0.025 A 
ENDBRANCH  13  14
ENDBRANCH  12  13
ENDBRANCH   3  12
TORSDOF 3
ENDMDL
