MODEL 1
REMARK VINA RESULT:      -8.0      0.000      0.000
REMARK  6 active torsions:
REMARK  status: ('A' for Active; 'I' for Inactive)
REMARK    1  A    between atoms: N_2  and  S_1 
REMARK    2  A    between atoms: C_6  and  S_1 
REMARK    3  A    between atoms: S_7  and  C_3 
REMARK    4  A    between atoms: N_4  and  C_10 
REMARK    5  A    between atoms: C_21  and  S_7 
REMARK    6  A    between atoms: C_20  and  C_21 
ROOT
ATOM      1  N   UNL d   1      53.339  31.849  53.363  0.00  0.00    -0.208 N 
ATOM      2  C   UNL d   1      52.960  32.568  53.538  0.00  0.00     0.189 A 
ATOM      3  N   UNL d   1      53.380  32.939  54.147  0.00  0.00    -0.219 NA
ATOM      4  C   UNL d   1      53.996  31.776  53.868  0.00  0.00     0.114 A 
ATOM      5  C   UNL d   1      54.017  32.448  54.348  0.00  0.00     0.121 A 
ENDROOT
BRANCH   1   6
ATOM      6  S   UNL d   1      53.099  31.303  52.786  0.00  0.00     0.273 S 
ATOM      7  O   UNL d   1      53.047  31.931  52.264  0.00  0.00    -0.200 OA
ATOM      8  O   UNL d   1      52.853  30.968  52.069  0.00  0.00    -0.200 OA
BRANCH   6   9
ATOM      9  C   UNL d   1      53.146  30.655  53.298  0.00  0.00     0.104 A 
ATOM     10  C   UNL d   1      53.871  30.289  53.419  0.00  0.00     0.015 A 
ATOM     11  C   UNL d   1      53.923  29.640  53.931  0.00  0.00     0.024 A 
ATOM     12  C   UNL d   1      53.241  29.374  54.312  0.00  0.00     0.127 A 
ATOM     13  C   UNL d   1      52.517  29.746  54.186  0.00  0.00     0.024 A 
ATOM     14  C   UNL d   1      52.465  30.392  53.676  0.00  0.00     0.015 A 
BRANCH  12  15
ATOM     15  N   UNL d   1      53.290  28.720  54.829  0.00  0.00    -0.114 N 
ATOM     16  O   UNL d   1      53.039  28.800  55.614  0.00  0.00    -0.532 OA
ATOM     17  O   UNL d   1      53.587  28.001  54.558  0.00  0.00    -0.532 OA
ENDBRANCH  12  15
ENDBRANCH   6   9
ENDBRANCH   1   6
BRANCH   2  18
ATOM     18  S   UNL d   1      52.277  32.863  53.163  0.00  0.00    -0.049 SA
BRANCH  18  19
ATOM     19  C   UNL d   1      51.996  33.614  53.358  0.00  0.00     0.040 C 
BRANCH  19  20
ATOM     20  C   UNL d   1      51.320  33.907  52.989  0.00  0.00     0.026 A 
ATOM     21  C   UNL d   1      50.585  33.904  53.397  0.00  0.00     0.099 A 
ATOM     22  N   UNL d   1      49.902  34.192  53.044  0.00  0.00    -0.242 NA
ATOM     23  C   UNL d   1      49.950  34.487  52.274  0.00  0.00     0.099 A 
ATOM     24  C   UNL d   1      50.668  34.493  51.870  0.00  0.00     0.021 A 
ATOM     25  C   UNL d   1      51.351  34.202  52.229  0.00  0.00     0.004 A 
ENDBRANCH  19  20
ENDBRANCH  18  19
ENDBRANCH   2  18
TORSDOF 6
ENDMDL
MODEL 2
REMARK VINA RESULT:      -7.5      1.937      4.640
REMARK  6 active torsions:
REMARK  status: ('A' for Active; 'I' for Inactive)
REMARK    1  A    between atoms: N_2  and  S_1 
REMARK    2  A    between atoms: C_6  and  S_1 
REMARK    3  A    between atoms: S_7  and  C_3 
REMARK    4  A    between atoms: N_4  and  C_10 
REMARK    5  A    between atoms: C_21  and  S_7 
REMARK    6  A    between atoms: C_20  and  C_21 
ROOT
ATOM      1  N   UNL d   1      53.306  32.523  53.104  0.00  0.00    -0.208 N 
ATOM      2  C   UNL d   1      52.923  31.789  53.180  0.00  0.00     0.189 A 
ATOM      3  N   UNL d   1      52.173  31.853  52.834  0.00  0.00    -0.219 NA
ATOM      4  C   UNL d   1      52.789  33.043  52.710  0.00  0.00     0.114 A 
ATOM      5  C   UNL d   1      52.095  32.626  52.546  0.00  0.00     0.121 A 
ENDROOT
BRANCH   1   6
ATOM      6  S   UNL d   1      54.070  32.702  53.376  0.00  0.00     0.273 S 
ATOM      7  O   UNL d   1      54.332  32.047  52.959  0.00  0.00    -0.200 OA
ATOM      8  O   UNL d   1      54.887  32.673  53.510  0.00  0.00    -0.200 OA
BRANCH   6   9
ATOM      9  C   UNL d   1      53.824  33.366  53.802  0.00  0.00     0.104 A 
ATOM     10  C   UNL d   1      53.637  34.057  53.399  0.00  0.00     0.015 A 
ATOM     11  C   UNL d   1      53.390  34.724  53.822  0.00  0.00     0.024 A 
ATOM     12  C   UNL d   1      53.337  34.682  54.645  0.00  0.00     0.127 A 
ATOM     13  C   UNL d   1      53.526  33.986  55.042  0.00  0.00     0.024 A 
ATOM     14  C   UNL d   1      53.772  33.321  54.622  0.00  0.00     0.015 A 
BRANCH  12  15
ATOM     15  N   UNL d   1      53.088  35.354  55.074  0.00  0.00    -0.114 N 
ATOM     16  O   UNL d   1      52.838  36.030  54.665  0.00  0.00    -0.532 OA
ATOM     17  O   UNL d   1      53.093  35.343  55.897  0.00  0.00    -0.532 OA
ENDBRANCH  12  15
ENDBRANCH   6   9
ENDBRANCH   1   6
BRANCH   2  18
ATOM     18  S   UNL d   1      53.240  31.108  53.540  0.00  0.00    -0.049 SA
BRANCH  18  19
ATOM     19  C   UNL d   1      52.798  30.412  53.558  0.00  0.00     0.040 C 
BRANCH  19  20
ATOM     20  C   UNL d   1      53.039  29.786  54.037  0.00  0.00     0.026 A 
ATOM     21  C   UNL d   1      53.412  29.115  53.695  0.00  0.00     0.099 A 
ATOM     22  N   UNL d   1      53.658  28.483  54.159  0.00  0.00    -0.242 NA
ATOM     23  C   UNL d   1      53.530  28.519  54.974  0.00  0.00     0.099 A 
ATOM     24  C   UNL d   1      53.164  29.174  55.315  0.00  0.00     0.021 A 
ATOM     25  C   UNL d   1      52.919  29.807  54.845  0.00  0.00     0.004 A 
ENDBRANCH  19  20
ENDBRANCH  18  19
ENDBRANCH   2  18
TORSDOF 6
ENDMDL
MODEL 3
REMARK VINA RESULT:      -7.2      1.916      4.509
REMARK  6 active torsions:
REMARK  status: ('A' for Active; 'I' for Inactive)
REMARK    1  A    between atoms: N_2  and  S_1 
REMARK    2  A    between atoms: C_6  and  S_1 
REMARK    3  A    between atoms: S_7  and  C_3 
REMARK    4  A    between atoms: N_4  and  C_10 
REMARK    5  A    between atoms: C_21  and  S_7 
REMARK    6  A    between atoms: C_20  and  C_21 
ROOT
ATOM      1  N   UNL d   1      53.846  33.101  53.926  0.00  0.00    -0.208 N 
ATOM      2  C   UNL d   1      54.048  32.337  53.668  0.00  0.00     0.189 A 
ATOM      3  N   UNL d   1      54.632  32.407  53.085  0.00  0.00    -0.219 NA
ATOM      4  C   UNL d   1      54.309  33.646  53.499  0.00  0.00     0.114 A 
ATOM      5  C   UNL d   1      54.790  33.215  52.984  0.00  0.00     0.121 A 
ENDROOT
BRANCH   1   6
ATOM      6  S   UNL d   1      53.282  33.283  54.507  0.00  0.00     0.273 S 
ATOM      7  O   UNL d   1      53.815  33.004  55.061  0.00  0.00    -0.200 OA
ATOM      8  O   UNL d   1      52.901  33.374  55.236  0.00  0.00    -0.200 OA
BRANCH   6   9
ATOM      9  C   UNL d   1      52.731  33.570  53.961  0.00  0.00     0.104 A 
ATOM     10  C   UNL d   1      52.086  33.103  53.756  0.00  0.00     0.015 A 
ATOM     11  C   UNL d   1      51.532  33.386  53.211  0.00  0.00     0.024 A 
ATOM     12  C   UNL d   1      51.638  34.136  52.881  0.00  0.00     0.127 A 
ATOM     13  C   UNL d   1      52.287  34.598  53.092  0.00  0.00     0.024 A 
ATOM     14  C   UNL d   1      52.839  34.317  53.634  0.00  0.00     0.015 A 
BRANCH  12  15
ATOM     15  N   UNL d   1      51.080  34.424  52.331  0.00  0.00    -0.114 N 
ATOM     16  O   UNL d   1      50.362  34.735  52.602  0.00  0.00    -0.532 OA
ATOM     17  O   UNL d   1      51.245  34.397  51.524  0.00  0.00    -0.532 OA
ENDBRANCH  12  15
ENDBRANCH   6   9
ENDBRANCH   1   6
BRANCH   2  18
ATOM     18  S   UNL d   1      53.718  31.624  53.948  0.00  0.00    -0.049 SA
BRANCH  18  19
ATOM     19  C   UNL d   1      53.961  30.906  53.623  0.00  0.00     0.040 C 
BRANCH  19  20
ATOM     20  C   UNL d   1      53.546  30.216  53.797  0.00  0.00     0.026 A 
ATOM     21  C   UNL d   1      52.939  29.950  53.280  0.00  0.00     0.099 A 
ATOM     22  N   UNL d   1      52.516  29.264  53.439  0.00  0.00    -0.242 NA
ATOM     23  C   UNL d   1      52.698  28.837  54.122  0.00  0.00     0.099 A 
ATOM     24  C   UNL d   1      53.292  29.094  54.633  0.00  0.00     0.021 A 
ATOM     25  C   UNL d   1      53.714  29.784  54.468  0.00  0.00     0.004 A 
ENDBRANCH  19  20
ENDBRANCH  18  19
ENDBRANCH   2  18
TORSDOF 6
ENDMDL
MODEL 4
REMARK VINA RESULT:      -7.2      2.623      3.310
REMARK  6 active torsions:
REMARK  status: ('A' for Active; 'I' for Inactive)
REMARK    1  A    between atoms: N_2  and  S_1 
REMARK    2  A    between atoms: C_6  and  S_1 
REMARK    3  A    between atoms: S_7  and  C_3 
REMARK    4  A    between atoms: N_4  and  C_10 
REMARK    5  A    between atoms: C_21  and  S_7 
REMARK    6  A    between atoms: C_20  and  C_21 
ROOT
ATOM      1  N   UNL d   1      52.103  33.589  52.914  0.00  0.00    -0.208 N 
ATOM      2  C   UNL d   1      51.273  33.548  52.949  0.00  0.00     0.189 A 
ATOM      3  N   UNL d   1      51.057  32.752  53.018  0.00  0.00    -0.219 NA
ATOM      4  C   UNL d   1      52.400  32.812  52.962  0.00  0.00     0.114 A 
ATOM      5  C   UNL d   1      51.753  32.302  53.026  0.00  0.00     0.121 A 
ENDROOT
BRANCH   1   6
ATOM      6  S   UNL d   1      52.552  34.283  52.843  0.00  0.00     0.273 S 
ATOM      7  O   UNL d   1      52.065  34.492  52.219  0.00  0.00    -0.200 OA
ATOM      8  O   UNL d   1      52.835  35.017  52.584  0.00  0.00    -0.200 OA
BRANCH   6   9
ATOM      9  C   UNL d   1      53.054  34.089  53.470  0.00  0.00     0.104 A 
ATOM     10  C   UNL d   1      53.669  33.559  53.345  0.00  0.00     0.015 A 
ATOM     11  C   UNL d   1      54.174  33.362  53.971  0.00  0.00     0.024 A 
ATOM     12  C   UNL d   1      54.050  33.705  54.712  0.00  0.00     0.127 A 
ATOM     13  C   UNL d   1      53.431  34.236  54.829  0.00  0.00     0.024 A 
ATOM     14  C   UNL d   1      52.927  34.432  54.207  0.00  0.00     0.015 A 
BRANCH  12  15
ATOM     15  N   UNL d   1      54.558  33.508  55.344  0.00  0.00    -0.114 N 
ATOM     16  O   UNL d   1      54.418  32.818  55.781  0.00  0.00    -0.532 OA
ATOM     17  O   UNL d   1      55.194  33.997  55.530  0.00  0.00    -0.532 OA
ENDBRANCH  12  15
ENDBRANCH   6   9
ENDBRANCH   1   6
BRANCH   2  18
ATOM     18  S   UNL d   1      50.751  34.197  52.919  0.00  0.00    -0.049 SA
BRANCH  18  19
ATOM     19  C   UNL d   1      49.937  34.067  52.934  0.00  0.00     0.040 C 
BRANCH  19  20
ATOM     20  C   UNL d   1      49.419  34.700  52.835  0.00  0.00     0.026 A 
ATOM     21  C   UNL d   1      49.293  35.241  53.465  0.00  0.00     0.099 A 
ATOM     22  N   UNL d   1      48.780  35.878  53.383  0.00  0.00    -0.242 NA
ATOM     23  C   UNL d   1      48.387  35.977  52.663  0.00  0.00     0.099 A 
ATOM     24  C   UNL d   1      48.507  35.450  52.042  0.00  0.00     0.021 A 
ATOM     25  C   UNL d   1      49.023  34.812  52.129  0.00  0.00     0.004 A 
ENDBRANCH  19  20
ENDBRANCH  18  19
ENDBRANCH   2  18
TORSDOF 6
ENDMDL
MODEL 5
REMARK VINA RESULT:      -6.7      1.433      2.061
REMARK  6 active torsions:
REMARK  status: ('A' for Active; 'I' for Inactive)
REMARK    1  A    between atoms: N_2  and  S_1 
REMARK    2  A    between atoms: C_6  and  S_1 
REMARK    3  A    between atoms: S_7  and  C_3 
REMARK    4  A    between atoms: N_4  and  C_10 
REMARK    5  A    between atoms: C_21  and  S_7 
REMARK    6  A    between atoms: C_20  and  C_21 
ROOT
ATOM      1  N   UNL d   1      52.944  31.859  53.120  0.00  0.00    -0.208 N 
ATOM      2  C   UNL d   1      52.538  32.554  53.327  0.00  0.00     0.189 A 
ATOM      3  N   UNL d   1      51.745  32.466  53.107  0.00  0.00    -0.219 NA
ATOM      4  C   UNL d   1      52.397  31.338  52.769  0.00  0.00     0.114 A 
ATOM      5  C   UNL d   1      51.662  31.716  52.763  0.00  0.00     0.121 A 
ENDROOT
BRANCH   1   6
ATOM      6  S   UNL d   1      53.752  31.714  53.243  0.00  0.00     0.273 S 
ATOM      7  O   UNL d   1      53.900  32.423  52.863  0.00  0.00    -0.200 OA
ATOM      8  O   UNL d   1      54.576  31.791  53.245  0.00  0.00    -0.200 OA
BRANCH   6   9
ATOM      9  C   UNL d   1      53.621  30.995  53.630  0.00  0.00     0.104 A 
ATOM     10  C   UNL d   1      53.567  30.982  54.450  0.00  0.00     0.015 A 
ATOM     11  C   UNL d   1      53.437  30.265  54.841  0.00  0.00     0.024 A 
ATOM     12  C   UNL d   1      53.363  29.572  54.398  0.00  0.00     0.127 A 
ATOM     13  C   UNL d   1      53.418  29.593  53.576  0.00  0.00     0.024 A 
ATOM     14  C   UNL d   1      53.548  30.306  53.186  0.00  0.00     0.015 A 
BRANCH  12  15
ATOM     15  N   UNL d   1      53.231  28.847  54.791  0.00  0.00    -0.114 N 
ATOM     16  O   UNL d   1      53.452  28.138  54.424  0.00  0.00    -0.532 OA
ATOM     17  O   UNL d   1      52.883  28.839  55.537  0.00  0.00    -0.532 OA
ENDBRANCH  12  15
ENDBRANCH   6   9
ENDBRANCH   1   6
BRANCH   2  18
ATOM     18  S   UNL d   1      52.873  33.224  53.694  0.00  0.00    -0.049 SA
BRANCH  18  19
ATOM     19  C   UNL d   1      52.384  33.837  53.950  0.00  0.00     0.040 C 
BRANCH  19  20
ATOM     20  C   UNL d   1      52.717  34.525  54.258  0.00  0.00     0.026 A 
ATOM     21  C   UNL d   1      52.987  34.541  55.053  0.00  0.00     0.099 A 
ATOM     22  N   UNL d   1      53.321  35.219  55.375  0.00  0.00    -0.242 NA
ATOM     23  C   UNL d   1      53.388  35.890  54.899  0.00  0.00     0.099 A 
ATOM     24  C   UNL d   1      53.125  35.880  54.118  0.00  0.00     0.021 A 
ATOM     25  C   UNL d   1      52.790  35.197  53.799  0.00  0.00     0.004 A 
ENDBRANCH  19  20
ENDBRANCH  18  19
ENDBRANCH   2  18
TORSDOF 6
ENDMDL
MODEL 6
REMARK VINA RESULT:      -5.9      2.651      4.977
REMARK  6 active torsions:
REMARK  status: ('A' for Active; 'I' for Inactive)
REMARK    1  A    between atoms: N_2  and  S_1 
REMARK    2  A    between atoms: C_6  and  S_1 
REMARK    3  A    between atoms: S_7  and  C_3 
REMARK    4  A    between atoms: N_4  and  C_10 
REMARK    5  A    between atoms: C_21  and  S_7 
REMARK    6  A    between atoms: C_20  and  C_21 
ROOT
ATOM      1  N   UNL d   1      51.614  33.303  52.764  0.00  0.00    -0.208 N 
ATOM      2  C   UNL d   1      52.097  32.986  53.361  0.00  0.00     0.189 A 
ATOM      3  N   UNL d   1      51.740  32.293  53.640  0.00  0.00    -0.219 NA
ATOM      4  C   UNL d   1      50.954  32.803  52.675  0.00  0.00     0.114 A 
ATOM      5  C   UNL d   1      51.037  32.184  53.216  0.00  0.00     0.121 A 
ENDROOT
BRANCH   1   6
ATOM      6  S   UNL d   1      51.765  33.998  52.335  0.00  0.00     0.273 S 
ATOM      7  O   UNL d   1      52.511  33.697  52.183  0.00  0.00    -0.200 OA
ATOM      8  O   UNL d   1      52.140  34.575  51.875  0.00  0.00    -0.200 OA
BRANCH   6   9
ATOM      9  C   UNL d   1      51.017  34.317  52.479  0.00  0.00     0.104 A 
ATOM     10  C   UNL d   1      50.425  34.225  51.917  0.00  0.00     0.015 A 
ATOM     11  C   UNL d   1      49.673  34.543  52.056  0.00  0.00     0.024 A 
ATOM     12  C   UNL d   1      49.533  34.949  52.761  0.00  0.00     0.127 A 
ATOM     13  C   UNL d   1      50.131  35.037  53.321  0.00  0.00     0.024 A 
ATOM     14  C   UNL d   1      50.879  34.720  53.183  0.00  0.00     0.015 A 
BRANCH  12  15
ATOM     15  N   UNL d   1      48.776  35.271  52.905  0.00  0.00    -0.114 N 
ATOM     16  O   UNL d   1      48.213  35.276  52.297  0.00  0.00    -0.532 OA
ATOM     17  O   UNL d   1      48.592  35.580  53.646  0.00  0.00    -0.532 OA
ENDBRANCH  12  15
ENDBRANCH   6   9
ENDBRANCH   1   6
BRANCH   2  18
ATOM     18  S   UNL d   1      52.816  33.309  53.630  0.00  0.00    -0.049 SA
BRANCH  18  19
ATOM     19  C   UNL d   1      53.228  32.939  54.242  0.00  0.00     0.040 C 
BRANCH  19  20
ATOM     20  C   UNL d   1      53.922  33.276  54.532  0.00  0.00     0.026 A 
ATOM     21  C   UNL d   1      53.886  33.850  55.144  0.00  0.00     0.099 A 
ATOM     22  N   UNL d   1      54.569  34.195  55.443  0.00  0.00    -0.242 NA
ATOM     23  C   UNL d   1      55.297  33.965  55.129  0.00  0.00     0.099 A 
ATOM     24  C   UNL d   1      55.338  33.403  54.528  0.00  0.00     0.021 A 
ATOM     25  C   UNL d   1      54.649  33.059  54.231  0.00  0.00     0.004 A 
ENDBRANCH  19  20
ENDBRANCH  18  19
ENDBRANCH   2  18
TORSDOF 6
ENDMDL
