MODEL 1
REMARK VINA RESULT:      18.1      0.000      0.000
REMARK  4 active torsions:
REMARK  status: ('A' for Active; 'I' for Inactive)
REMARK    1  A    between atoms: C_6  and  N_1 
REMARK    2  A    between atoms: C_8  and  C_14 
REMARK    3  A    between atoms: O_20  and  C_8 
REMARK    4  A    between atoms: C_22  and  O_20 
ROOT
ATOM      1  N   UNL d   1      46.011 -17.351  43.667  0.00  0.00    -0.242 N 
ATOM      2  C   UNL d   1      45.985 -17.607  42.858  0.00  0.00     0.267 A 
ATOM      3  C   UNL d   1      46.204 -17.886  44.129  0.00  0.00     0.267 A 
ATOM      4  C   UNL d   1      46.198 -18.403  42.901  0.00  0.00     0.061 A 
ATOM      5  C   UNL d   1      46.337 -18.580  43.708  0.00  0.00     0.061 A 
ATOM      6  C   UNL d   1      46.566 -19.346  43.950  0.00  0.00     0.005 A 
ATOM      7  C   UNL d   1      46.290 -18.994  42.347  0.00  0.00     0.005 A 
ATOM      8  O   UNL d   1      45.798 -17.188  42.181  0.00  0.00    -0.267 OA
ATOM      9  O   UNL d   1      46.275 -17.798  44.954  0.00  0.00    -0.267 OA
ATOM     10  C   UNL d   1      46.647 -19.912  43.361  0.00  0.00     0.000 A 
ATOM     11  C   UNL d   1      46.508 -19.735  42.555  0.00  0.00     0.000 A 
ATOM     12  C   UNL d   1      46.599 -20.325  42.001  0.00  0.00     0.000 C 
ENDROOT
BRANCH   1  13
ATOM     13  C   UNL d   1      45.843 -16.592  43.940  0.00  0.00     0.070 A 
ATOM     14  C   UNL d   1      45.281 -16.468  44.537  0.00  0.00     0.018 A 
ATOM     15  C   UNL d   1      45.114 -15.709  44.809  0.00  0.00     0.007 A 
ATOM     16  C   UNL d   1      45.498 -15.053  44.497  0.00  0.00     0.064 A 
ATOM     17  C   UNL d   1      46.089 -15.165  43.872  0.00  0.00     0.007 A 
ATOM     18  C   UNL d   1      46.245 -15.971  43.605  0.00  0.00     0.018 A 
BRANCH  16  19
ATOM     19  C   UNL d   1      45.297 -14.309  44.802  0.00  0.00     0.300 C 
ATOM     20  O   UNL d   1      44.480 -14.128  44.940  0.00  0.00    -0.259 OA
BRANCH  19  21
ATOM     21  O   UNL d   1      45.873 -13.795  44.953  0.00  0.00    -0.271 OA
BRANCH  21  22
ATOM     22  C   UNL d   1      45.807 -13.050  44.680  0.00  0.00     0.126 C 
ATOM     23  C   UNL d   1      46.406 -12.469  44.842  0.00  0.00     0.029 C 
ENDBRANCH  21  22
ENDBRANCH  19  21
ENDBRANCH  16  19
ENDBRANCH   1  13
TORSDOF 4
ENDMDL
