MODEL 1
REMARK VINA RESULT:      30.5      0.000      0.000
REMARK  7 active torsions:
REMARK  status: ('A' for Active; 'I' for Inactive)
REMARK    1  A    between atoms: C_6  and  N_2 
REMARK    2  A    between atoms: C_7  and  C_3 
REMARK    3  A    between atoms: C_15  and  C_6 
REMARK    4  A    between atoms: C_21  and  C_7 
REMARK    5  A    between atoms: C_8  and  O_14 
REMARK    6  A    between atoms: O_14  and  C_15 
REMARK    7  A    between atoms: C_19  and  C_21 
ROOT
ATOM      1  N   UNL d   1      13.445  14.048  -4.599  0.00  0.00    -0.227 NA
ATOM      2  N   UNL d   1      13.024  13.152  -3.665  0.00  0.00    -0.287 N 
ATOM      3  C   UNL d   1      13.278  13.939  -3.786  0.00  0.00     0.148 A 
ATOM      4  C   UNL d   1      13.034  12.772  -4.411  0.00  0.00     0.083 A 
ATOM      5  C   UNL d   1      13.290  13.318  -4.977  0.00  0.00     0.099 A 
ATOM      6  C   UNL d   1      12.843  12.000  -4.645  0.00  0.00     0.019 A 
ATOM      7  C   UNL d   1      13.356  13.098  -5.770  0.00  0.00     0.021 A 
ATOM      8  C   UNL d   1      12.908  11.779  -5.437  0.00  0.00     0.002 A 
ATOM      9  C   UNL d   1      13.165  12.329  -6.000  0.00  0.00     0.002 A 
ENDROOT
BRANCH   2  10
ATOM     10  C   UNL d   1      12.804  12.810  -2.951  0.00  0.00     0.108 C 
BRANCH  10  11
ATOM     11  C   UNL d   1      13.181  12.120  -2.682  0.00  0.00     0.142 C 
BRANCH  11  12
ATOM     12  O   UNL d   1      13.125  11.906  -1.892  0.00  0.00    -0.304 OA
BRANCH  12  13
ATOM     13  C   UNL d   1      13.802  11.875  -1.425  0.00  0.00     0.100 A 
ATOM     14  C   UNL d   1      13.733  11.904  -0.602  0.00  0.00     0.025 A 
ATOM     15  C   UNL d   1      14.409  11.873  -0.135  0.00  0.00     0.002 A 
ATOM     16  C   UNL d   1      15.160  11.811  -0.489  0.00  0.00     0.000 A 
ATOM     17  C   UNL d   1      15.220  11.782  -1.316  0.00  0.00     0.002 A 
ATOM     18  C   UNL d   1      15.833  11.780  -0.018  0.00  0.00     0.000 C 
ATOM     19  C   UNL d   1      14.538  11.814  -1.781  0.00  0.00     0.025 A 
ENDBRANCH  12  13
ENDBRANCH  11  12
ENDBRANCH  10  11
ENDBRANCH   2  10
BRANCH   3  20
ATOM     20  C   UNL d   1      13.469  14.708  -3.557  0.00  0.00     0.041 C 
BRANCH  20  21
ATOM     21  C   UNL d   1      14.203  14.864  -3.213  0.00  0.00     0.049 C 
BRANCH  21  22
ATOM     22  C   UNL d   1      14.516  15.627  -3.240  0.00  0.00     0.234 C 
ATOM     23  O   UNL d   1      15.002  15.895  -2.632  0.00  0.00    -0.283 OA
ENDBRANCH  21  22
ENDBRANCH  20  21
ENDBRANCH   3  20
TORSDOF 7
ENDMDL
MODEL 2
REMARK VINA RESULT:      32.4      1.451      3.346
REMARK  7 active torsions:
REMARK  status: ('A' for Active; 'I' for Inactive)
REMARK    1  A    between atoms: C_6  and  N_2 
REMARK    2  A    between atoms: C_7  and  C_3 
REMARK    3  A    between atoms: C_15  and  C_6 
REMARK    4  A    between atoms: C_21  and  C_7 
REMARK    5  A    between atoms: C_8  and  O_14 
REMARK    6  A    between atoms: O_14  and  C_15 
REMARK    7  A    between atoms: C_19  and  C_21 
ROOT
ATOM      1  N   UNL d   1      13.582  11.779  -3.129  0.00  0.00    -0.227 NA
ATOM      2  N   UNL d   1      13.511  13.128  -2.960  0.00  0.00    -0.287 N 
ATOM      3  C   UNL d   1      13.684  12.404  -2.581  0.00  0.00     0.148 A 
ATOM      4  C   UNL d   1      13.299  12.948  -3.751  0.00  0.00     0.083 A 
ATOM      5  C   UNL d   1      13.343  12.128  -3.851  0.00  0.00     0.099 A 
ATOM      6  C   UNL d   1      13.073  13.426  -4.389  0.00  0.00     0.019 A 
ATOM      7  C   UNL d   1      13.163  11.786  -4.580  0.00  0.00     0.021 A 
ATOM      8  C   UNL d   1      12.893  13.085  -5.118  0.00  0.00     0.002 A 
ATOM      9  C   UNL d   1      12.938  12.264  -5.214  0.00  0.00     0.002 A 
ENDROOT
BRANCH   2  10
ATOM     10  C   UNL d   1      13.541  13.878  -2.627  0.00  0.00     0.108 C 
BRANCH  10  11
ATOM     11  C   UNL d   1      14.181  14.383  -2.785  0.00  0.00     0.142 C 
BRANCH  11  12
ATOM     12  O   UNL d   1      14.073  15.196  -2.767  0.00  0.00    -0.304 OA
BRANCH  12  13
ATOM     13  C   UNL d   1      14.503  15.657  -2.238  0.00  0.00     0.100 A 
ATOM     14  C   UNL d   1      14.907  16.324  -2.512  0.00  0.00     0.025 A 
ATOM     15  C   UNL d   1      15.338  16.785  -1.983  0.00  0.00     0.002 A 
ATOM     16  C   UNL d   1      15.367  16.581  -1.178  0.00  0.00     0.000 A 
ATOM     17  C   UNL d   1      14.959  15.910  -0.911  0.00  0.00     0.002 A 
ATOM     18  C   UNL d   1      15.798  17.045  -0.653  0.00  0.00     0.000 C 
ATOM     19  C   UNL d   1      14.528  15.449  -1.445  0.00  0.00     0.025 A 
ENDBRANCH  12  13
ENDBRANCH  11  12
ENDBRANCH  10  11
ENDBRANCH   2  10
BRANCH   3  20
ATOM     20  C   UNL d   1      13.909  11.925  -1.948  0.00  0.00     0.041 C 
BRANCH  20  21
ATOM     21  C   UNL d   1      14.477  12.193  -1.413  0.00  0.00     0.049 C 
BRANCH  21  22
ATOM     22  C   UNL d   1      14.603  11.783  -0.708  0.00  0.00     0.234 C 
ATOM     23  O   UNL d   1      15.283  11.921  -0.265  0.00  0.00    -0.283 OA
ENDBRANCH  21  22
ENDBRANCH  20  21
ENDBRANCH   3  20
TORSDOF 7
ENDMDL
