MODEL 1
REMARK VINA RESULT:      -2.8      0.000      0.000
REMARK  8 active torsions:
REMARK  status: ('A' for Active; 'I' for Inactive)
REMARK    1  A    between atoms: C_4  and  C_1 
REMARK    2  A    between atoms: N_6  and  C_3 
REMARK    3  A    between atoms: O_18  and  C_4 
REMARK       I    between atoms: C_7  and  N_6 
REMARK    4  A    between atoms: C_16  and  C_7 
REMARK    5  A    between atoms: C_10  and  C_8 
REMARK    6  A    between atoms: C_9  and  S_11 
REMARK    7  A    between atoms: S_11  and  C_16 
REMARK    8  A    between atoms: C_24  and  O_18 
ROOT
ATOM      1  N   UNL d   1      58.810  -1.253  29.628  0.00  0.00    -0.207 NA
ATOM      2  C   UNL d   1      58.717  -0.496  29.944  0.00  0.00     0.286 C 
ATOM      3  O   UNL d   1      59.323   0.058  29.866  0.00  0.00    -0.265 OA
ENDROOT
BRANCH   2   4
ATOM      4  C   UNL d   1      58.022  -0.295  30.334  0.00  0.00     0.099 C 
BRANCH   4   5
ATOM      5  S   UNL d   1      58.014   0.352  30.838  0.00  0.00    -0.061 SA
BRANCH   5   6
ATOM      6  C   UNL d   1      57.485   0.382  31.471  0.00  0.00     0.133 A 
ATOM      7  N   UNL d   1      57.759   0.423  32.242  0.00  0.00    -0.141 NA
ATOM      8  N   UNL d   1      57.230   0.453  32.874  0.00  0.00    -0.148 NA
ATOM      9  C   UNL d   1      56.413   0.442  32.733  0.00  0.00     0.104 A 
ATOM     10  C   UNL d   1      56.134   0.401  31.956  0.00  0.00     0.023 A 
ATOM     11  C   UNL d   1      56.664   0.371  31.328  0.00  0.00     0.029 A 
BRANCH   9  12
ATOM     12  C   UNL d   1      55.884   0.472  33.366  0.00  0.00     0.039 A 
ATOM     13  C   UNL d   1      55.102   0.651  33.229  0.00  0.00     0.101 A 
ATOM     14  N   UNL d   1      54.574   0.682  33.854  0.00  0.00    -0.242 NA
ATOM     15  C   UNL d   1      54.839   0.530  34.628  0.00  0.00     0.099 A 
ATOM     16  C   UNL d   1      55.626   0.350  34.760  0.00  0.00     0.021 A 
ATOM     17  C   UNL d   1      56.163   0.318  34.133  0.00  0.00     0.005 A 
ENDBRANCH   9  12
ENDBRANCH   5   6
ENDBRANCH   4   5
ENDBRANCH   2   4
BRANCH   1  18
ATOM     18  C   UNL d   1      59.502  -1.453  29.239  0.00  0.00     0.090 A 
ATOM     19  C   UNL d   1      59.639  -2.235  29.014  0.00  0.00     0.081 A 
ATOM     20  C   UNL d   1      60.333  -2.436  28.623  0.00  0.00     0.007 A 
ATOM     21  C   UNL d   1      60.894  -1.860  28.456  0.00  0.00     0.000 A 
ATOM     22  C   UNL d   1      60.766  -1.067  28.680  0.00  0.00     0.002 A 
ATOM     23  C   UNL d   1      60.065  -0.874  29.072  0.00  0.00     0.019 A 
BRANCH  19  24
ATOM     24  C   UNL d   1      59.075  -2.805  29.184  0.00  0.00     0.302 C 
ATOM     25  O   UNL d   1      59.031  -3.122  29.939  0.00  0.00    -0.259 OA
BRANCH  24  26
ATOM     26  O   UNL d   1      58.553  -3.061  28.602  0.00  0.00    -0.271 OA
BRANCH  26  27
ATOM     27  C   UNL d   1      58.461  -3.869  28.460  0.00  0.00     0.126 C 
ATOM     28  C   UNL d   1      57.744  -4.236  28.647  0.00  0.00     0.029 C 
ENDBRANCH  26  27
ENDBRANCH  24  26
ENDBRANCH  19  24
ENDBRANCH   1  18
TORSDOF 8
ENDMDL
MODEL 2
REMARK VINA RESULT:      -1.4      0.999      1.922
REMARK  8 active torsions:
REMARK  status: ('A' for Active; 'I' for Inactive)
REMARK    1  A    between atoms: C_4  and  C_1 
REMARK    2  A    between atoms: N_6  and  C_3 
REMARK    3  A    between atoms: O_18  and  C_4 
REMARK       I    between atoms: C_7  and  N_6 
REMARK    4  A    between atoms: C_16  and  C_7 
REMARK    5  A    between atoms: C_10  and  C_8 
REMARK    6  A    between atoms: C_9  and  S_11 
REMARK    7  A    between atoms: S_11  and  C_16 
REMARK    8  A    between atoms: C_24  and  O_18 
ROOT
ATOM      1  N   UNL d   1      58.914  -1.562  29.752  0.00  0.00    -0.207 NA
ATOM      2  C   UNL d   1      58.168  -1.404  30.067  0.00  0.00     0.286 C 
ATOM      3  O   UNL d   1      57.553  -1.943  29.954  0.00  0.00    -0.265 OA
ENDROOT
BRANCH   2   4
ATOM      4  C   UNL d   1      58.038  -0.713  30.492  0.00  0.00     0.099 C 
BRANCH   4   5
ATOM      5  S   UNL d   1      57.270  -0.443  30.601  0.00  0.00    -0.061 SA
BRANCH   5   6
ATOM      6  C   UNL d   1      56.998  -0.254  31.356  0.00  0.00     0.133 A 
ATOM      7  N   UNL d   1      57.123   0.493  31.670  0.00  0.00    -0.141 NA
ATOM      8  N   UNL d   1      56.851   0.682  32.425  0.00  0.00    -0.148 NA
ATOM      9  C   UNL d   1      56.446   0.115  32.875  0.00  0.00     0.104 A 
ATOM     10  C   UNL d   1      56.318  -0.639  32.561  0.00  0.00     0.023 A 
ATOM     11  C   UNL d   1      56.591  -0.825  31.807  0.00  0.00     0.029 A 
BRANCH   9  12
ATOM     12  C   UNL d   1      56.174   0.304  33.630  0.00  0.00     0.039 A 
ATOM     13  C   UNL d   1      55.374   0.379  33.764  0.00  0.00     0.101 A 
ATOM     14  N   UNL d   1      55.100   0.566  34.512  0.00  0.00    -0.242 NA
ATOM     15  C   UNL d   1      55.640   0.680  35.134  0.00  0.00     0.099 A 
ATOM     16  C   UNL d   1      56.443   0.604  34.995  0.00  0.00     0.021 A 
ATOM     17  C   UNL d   1      56.725   0.415  34.242  0.00  0.00     0.005 A 
ENDBRANCH   9  12
ENDBRANCH   5   6
ENDBRANCH   4   5
ENDBRANCH   2   4
BRANCH   1  18
ATOM     18  C   UNL d   1      59.044  -2.250  29.329  0.00  0.00     0.090 A 
ATOM     19  C   UNL d   1      59.778  -2.388  28.977  0.00  0.00     0.081 A 
ATOM     20  C   UNL d   1      59.908  -3.080  28.552  0.00  0.00     0.007 A 
ATOM     21  C   UNL d   1      59.309  -3.636  28.476  0.00  0.00     0.000 A 
ATOM     22  C   UNL d   1      58.564  -3.507  28.827  0.00  0.00     0.002 A 
ATOM     23  C   UNL d   1      58.441  -2.809  29.253  0.00  0.00     0.019 A 
BRANCH  19  24
ATOM     24  C   UNL d   1      60.371  -1.829  29.057  0.00  0.00     0.302 C 
ATOM     25  O   UNL d   1      60.918  -1.898  29.666  0.00  0.00    -0.259 OA
BRANCH  24  26
ATOM     26  O   UNL d   1      60.422  -1.198  28.532  0.00  0.00    -0.271 OA
BRANCH  26  27
ATOM     27  C   UNL d   1      61.062  -0.679  28.574  0.00  0.00     0.126 C 
ATOM     28  C   UNL d   1      60.948   0.085  28.869  0.00  0.00     0.029 C 
ENDBRANCH  26  27
ENDBRANCH  24  26
ENDBRANCH  19  24
ENDBRANCH   1  18
TORSDOF 8
ENDMDL
