MODEL 1
REMARK VINA RESULT:      85.3      0.000      0.000
REMARK  3 active torsions:
REMARK  status: ('A' for Active; 'I' for Inactive)
REMARK    1  A    between atoms: N_10  and  C_3 
REMARK    2  A    between atoms: C_15  and  N_4 
REMARK    3  A    between atoms: C_20  and  C_15 
ROOT
ATOM      1  C   UNL d   1     -51.573  25.075  33.315  0.00  0.00     0.191 A 
ATOM      2  C   UNL d   1     -51.849  25.858  33.318  0.00  0.00     0.173 A 
ATOM      3  C   UNL d   1     -52.903  25.038  33.321  0.00  0.00     0.738 A 
ATOM      4  N   UNL d   1     -50.500  26.322  33.313  0.00  0.00    -0.224 N 
ATOM      5  N   UNL d   1     -52.224  24.571  33.316  0.00  0.00    -0.041 NA
ATOM      6  N   UNL d   1     -50.767  24.918  33.311  0.00  0.00    -0.240 N 
ATOM      7  C   UNL d   1     -50.229  25.542  33.310  0.00  0.00     0.343 A 
ATOM      8  C   UNL d   1     -51.309  26.479  33.317  0.00  0.00     0.288 A 
ATOM      9  N   UNL d   1     -52.674  25.832  33.321  0.00  0.00    -0.130 N 
ATOM     10  O   UNL d   1     -49.419  25.386  33.306  0.00  0.00    -0.245 OA
ATOM     11  O   UNL d   1     -51.580  27.259  33.320  0.00  0.00    -0.265 OA
ATOM     12  C   UNL d   1     -50.497  24.138  33.308  0.00  0.00     0.105 C 
ATOM     13  C   UNL d   1     -53.179  26.483  33.325  0.00  0.00     0.118 C 
ENDROOT
BRANCH   4  14
ATOM     14  C   UNL d   1     -49.957  26.948  33.312  0.00  0.00     0.087 C 
BRANCH  14  15
ATOM     15  C   UNL d   1     -49.683  27.256  34.025  0.00  0.00     0.019 A 
ATOM     16  C   UNL d   1     -49.961  26.946  34.747  0.00  0.00     0.014 A 
ATOM     17  C   UNL d   1     -49.687  27.255  35.461  0.00  0.00     0.068 A 
ATOM     18 CL   UNL d   1     -49.963  26.947  36.174  0.00  0.00    -0.082 Cl
ATOM     19  C   UNL d   1     -49.142  27.864  35.462  0.00  0.00     0.068 A 
ATOM     20  C   UNL d   1     -48.860  28.178  34.736  0.00  0.00     0.012 A 
ATOM     21 CL   UNL d   1     -48.867  28.173  36.175  0.00  0.00    -0.082 Cl
ATOM     22  C   UNL d   1     -49.140  27.863  34.026  0.00  0.00     0.002 A 
ENDBRANCH  14  15
ENDBRANCH   4  14
BRANCH   3  23
ATOM     23  N   UNL d   1     -53.680  24.759  33.323  0.00  0.00    -0.059 N 
ATOM     24  N   UNL d   1     -53.909  23.968  33.333  0.00  0.00    -0.151 NA
ATOM     25  C   UNL d   1     -54.740  23.941  33.333  0.00  0.00     0.103 A 
ATOM     26  C   UNL d   1     -55.203  23.254  33.341  0.00  0.00     0.022 C 
ATOM     27  C   UNL d   1     -55.014  24.721  33.322  0.00  0.00     0.041 A 
ATOM     28  C   UNL d   1     -54.358  25.221  33.317  0.00  0.00     0.102 A 
ATOM     29  C   UNL d   1     -54.383  26.048  33.306  0.00  0.00     0.021 C 
ENDBRANCH   3  23
TORSDOF 3
ENDMDL
