MODEL 1
REMARK VINA RESULT:      -3.9      0.000      0.000
REMARK  6 active torsions:
REMARK  status: ('A' for Active; 'I' for Inactive)
REMARK    1  A    between atoms: C_8  and  C_1 
REMARK    2  A    between atoms: C_7  and  C_2 
REMARK    3  A    between atoms: O_11  and  C_7 
REMARK    4  A    between atoms: O_12  and  C_8 
REMARK    5  A    between atoms: C_16  and  O_11 
REMARK    6  A    between atoms: C_15  and  O_12 
ROOT
ATOM      1  C   UNL d   1     -41.525-122.631 -53.318  0.00  0.00     0.081 A 
ATOM      2  C   UNL d   1     -41.537-122.631 -51.885  0.00  0.00     0.081 A 
ATOM      3  N   UNL d   1     -41.139-123.803 -52.599  0.00  0.00    -0.245 NA
ATOM      4  C   UNL d   1     -41.275-123.413 -51.883  0.00  0.00     0.086 A 
ATOM      5  C   UNL d   1     -41.263-123.413 -53.316  0.00  0.00     0.086 A 
ATOM      6  C   UNL d   1     -41.660-122.244 -52.603  0.00  0.00     0.014 A 
ATOM      7  C   UNL d   1     -41.123-123.817 -54.027  0.00  0.00     0.021 C 
ATOM      8  C   UNL d   1     -41.146-123.817 -51.150  0.00  0.00     0.021 C 
ENDROOT
BRANCH   1   9
ATOM      9  C   UNL d   1     -41.656-122.224 -54.031  0.00  0.00     0.302 C 
ATOM     10  O   UNL d   1     -41.163-121.604 -54.264  0.00  0.00    -0.259 OA
BRANCH   9  11
ATOM     11  O   UNL d   1     -42.289-122.446 -54.512  0.00  0.00    -0.271 OA
BRANCH  11  12
ATOM     12  C   UNL d   1     -42.549-121.950 -55.115  0.00  0.00     0.126 C 
ATOM     13  C   UNL d   1     -43.297-121.974 -55.298  0.00  0.00     0.029 C 
ENDBRANCH  11  12
ENDBRANCH   9  11
ENDBRANCH   1   9
BRANCH   2  14
ATOM     14  C   UNL d   1     -41.672-122.244 -51.154  0.00  0.00     0.302 C 
ATOM     15  O   UNL d   1     -41.155-121.683 -50.883  0.00  0.00    -0.259 OA
BRANCH  14  16
ATOM     16  O   UNL d   1     -42.357-122.447 -50.701  0.00  0.00    -0.271 OA
BRANCH  16  17
ATOM     17  C   UNL d   1     -42.441-122.180 -49.940  0.00  0.00     0.126 C 
ATOM     18  C   UNL d   1     -43.188-122.308 -49.459  0.00  0.00     0.029 C 
ENDBRANCH  16  17
ENDBRANCH  14  16
ENDBRANCH   2  14
TORSDOF 6
ENDMDL
MODEL 2
REMARK VINA RESULT:      -3.8      0.215      3.494
REMARK  6 active torsions:
REMARK  status: ('A' for Active; 'I' for Inactive)
REMARK    1  A    between atoms: C_8  and  C_1 
REMARK    2  A    between atoms: C_7  and  C_2 
REMARK    3  A    between atoms: O_11  and  C_7 
REMARK    4  A    between atoms: O_12  and  C_8 
REMARK    5  A    between atoms: C_16  and  O_11 
REMARK    6  A    between atoms: C_15  and  O_12 
ROOT
ATOM      1  C   UNL d   1     -41.504-122.622 -51.763  0.00  0.00     0.081 A 
ATOM      2  C   UNL d   1     -41.504-122.617 -53.196  0.00  0.00     0.081 A 
ATOM      3  N   UNL d   1     -41.128-123.797 -52.484  0.00  0.00    -0.245 NA
ATOM      4  C   UNL d   1     -41.253-123.403 -53.199  0.00  0.00     0.086 A 
ATOM      5  C   UNL d   1     -41.253-123.408 -51.766  0.00  0.00     0.086 A 
ATOM      6  C   UNL d   1     -41.628-122.231 -52.478  0.00  0.00     0.014 A 
ATOM      7  C   UNL d   1     -41.123-123.817 -51.056  0.00  0.00     0.021 C 
ATOM      8  C   UNL d   1     -41.123-123.806 -53.933  0.00  0.00     0.021 C 
ENDROOT
BRANCH   1   9
ATOM      9  C   UNL d   1     -41.635-122.217 -51.050  0.00  0.00     0.302 C 
ATOM     10  O   UNL d   1     -41.263-121.496 -50.895  0.00  0.00    -0.259 OA
BRANCH   9  11
ATOM     11  O   UNL d   1     -42.145-122.542 -50.488  0.00  0.00    -0.271 OA
BRANCH  11  12
ATOM     12  C   UNL d   1     -42.588-122.055 -49.995  0.00  0.00     0.126 C 
ATOM     13  C   UNL d   1     -42.917-122.379 -49.377  0.00  0.00     0.029 C 
ENDBRANCH  11  12
ENDBRANCH   9  11
ENDBRANCH   1   9
BRANCH   2  14
ATOM     14  C   UNL d   1     -41.628-122.225 -53.927  0.00  0.00     0.302 C 
ATOM     15  O   UNL d   1     -41.123-121.643 -54.173  0.00  0.00    -0.259 OA
BRANCH  14  16
ATOM     16  O   UNL d   1     -42.290-122.446 -54.405  0.00  0.00    -0.271 OA
BRANCH  16  17
ATOM     17  C   UNL d   1     -42.602-121.924 -54.942  0.00  0.00     0.126 C 
ATOM     18  C   UNL d   1     -42.931-122.182 -55.736  0.00  0.00     0.029 C 
ENDBRANCH  16  17
ENDBRANCH  14  16
ENDBRANCH   2  14
TORSDOF 6
ENDMDL
MODEL 3
REMARK VINA RESULT:      -2.2      1.209      3.833
REMARK  6 active torsions:
REMARK  status: ('A' for Active; 'I' for Inactive)
REMARK    1  A    between atoms: C_8  and  C_1 
REMARK    2  A    between atoms: C_7  and  C_2 
REMARK    3  A    between atoms: O_11  and  C_7 
REMARK    4  A    between atoms: O_12  and  C_8 
REMARK    5  A    between atoms: C_16  and  O_11 
REMARK    6  A    between atoms: C_15  and  O_12 
ROOT
ATOM      1  C   UNL d   1     -41.631-122.786 -51.097  0.00  0.00     0.081 A 
ATOM      2  C   UNL d   1     -41.517-122.757 -52.525  0.00  0.00     0.081 A 
ATOM      3  N   UNL d   1     -41.242-121.582 -51.760  0.00  0.00    -0.245 NA
ATOM      4  C   UNL d   1     -41.295-121.963 -52.491  0.00  0.00     0.086 A 
ATOM      5  C   UNL d   1     -41.409-121.992 -51.063  0.00  0.00     0.086 A 
ATOM      6  C   UNL d   1     -41.684-123.164 -51.828  0.00  0.00     0.014 A 
ATOM      7  C   UNL d   1     -41.351-121.597 -50.336  0.00  0.00     0.021 C 
ATOM      8  C   UNL d   1     -41.123-121.538 -53.203  0.00  0.00     0.021 C 
ENDROOT
BRANCH   1   9
ATOM      9  C   UNL d   1     -41.803-123.214 -50.405  0.00  0.00     0.302 C 
ATOM     10  O   UNL d   1     -41.229-123.679 -50.039  0.00  0.00    -0.259 OA
BRANCH   9  11
ATOM     11  O   UNL d   1     -42.561-123.169 -50.082  0.00  0.00    -0.271 OA
BRANCH  11  12
ATOM     12  C   UNL d   1     -42.826-123.747 -49.560  0.00  0.00     0.126 C 
ATOM     13  C   UNL d   1     -43.371-123.546 -49.053  0.00  0.00     0.029 C 
ENDBRANCH  11  12
ENDBRANCH   9  11
ENDBRANCH   1   9
BRANCH   2  14
ATOM     14  C   UNL d   1     -41.569-123.134 -53.272  0.00  0.00     0.302 C 
ATOM     15  O   UNL d   1     -41.123-123.790 -53.434  0.00  0.00    -0.259 OA
BRANCH  14  16
ATOM     16  O   UNL d   1     -42.094-122.821 -53.856  0.00  0.00    -0.271 OA
BRANCH  16  17
ATOM     17  C   UNL d   1     -42.159-123.175 -54.583  0.00  0.00     0.126 C 
ATOM     18  C   UNL d   1     -42.801-122.962 -55.173  0.00  0.00     0.029 C 
ENDBRANCH  16  17
ENDBRANCH  14  16
ENDBRANCH   2  14
TORSDOF 6
ENDMDL
