MODEL 1
REMARK VINA RESULT:      -7.6      0.000      0.000
REMARK  3 active torsions:
REMARK  status: ('A' for Active; 'I' for Inactive)
REMARK       I    between atoms: N_2  and  C_1 
REMARK    1  A    between atoms: C_4  and  C_1 
REMARK    2  A    between atoms: C_3  and  N_2 
REMARK    3  A    between atoms: S_11  and  C_7 
ROOT
ATOM      1  C   UNL d   1      52.850  33.393  53.185  0.00  0.00     0.064 A 
ATOM      2  C   UNL d   1      52.065  33.598  53.324  0.00  0.00     0.030 A 
ATOM      3  C   UNL d   1      53.442  33.976  53.206  0.00  0.00     0.005 A 
ATOM      4  C   UNL d   1      51.863  34.381  53.485  0.00  0.00     0.006 A 
ATOM      5  C   UNL d   1      53.241  34.759  53.367  0.00  0.00     0.000 A 
ATOM      6  C   UNL d   1      52.447  34.961  53.507  0.00  0.00     0.001 A 
ENDROOT
BRANCH   1   7
ATOM      7  C   UNL d   1      53.051  32.609  53.023  0.00  0.00     0.281 C 
ATOM      8  N   UNL d   1      53.610  32.221  53.500  0.00  0.00    -0.183 NA
ATOM      9  O   UNL d   1      52.699  32.215  52.393  0.00  0.00    -0.265 OA
BRANCH   8  10
ATOM     10  C   UNL d   1      53.959  32.608  54.122  0.00  0.00     0.197 A 
ATOM     11  N   UNL d   1      53.669  32.643  54.898  0.00  0.00    -0.219 NA
ATOM     12  C   UNL d   1      54.197  33.094  55.354  0.00  0.00     0.108 A 
ATOM     13  C   UNL d   1      54.818  33.343  54.861  0.00  0.00     0.059 A 
ATOM     14  S   UNL d   1      54.668  33.042  54.104  0.00  0.00    -0.046 SA
ENDBRANCH   8  10
ENDBRANCH   1   7
BRANCH   2  15
ATOM     15  S   UNL d   1      51.480  33.017  53.301  0.00  0.00    -0.113 SA
ATOM     16  C   UNL d   1      50.687  33.234  53.335  0.00  0.00     0.074 C 
ENDBRANCH   2  15
TORSDOF 3
ENDMDL
MODEL 2
REMARK VINA RESULT:      -7.6      1.156      2.558
REMARK  3 active torsions:
REMARK  status: ('A' for Active; 'I' for Inactive)
REMARK       I    between atoms: N_2  and  C_1 
REMARK    1  A    between atoms: C_4  and  C_1 
REMARK    2  A    between atoms: C_3  and  N_2 
REMARK    3  A    between atoms: S_11  and  C_7 
ROOT
ATOM      1  C   UNL d   1      53.231  33.795  53.602  0.00  0.00     0.064 A 
ATOM      2  C   UNL d   1      53.488  33.681  54.375  0.00  0.00     0.030 A 
ATOM      3  C   UNL d   1      52.945  34.538  53.364  0.00  0.00     0.005 A 
ATOM      4  C   UNL d   1      53.464  34.303  54.916  0.00  0.00     0.006 A 
ATOM      5  C   UNL d   1      52.921  35.161  53.904  0.00  0.00     0.000 A 
ATOM      6  C   UNL d   1      53.182  35.040  54.683  0.00  0.00     0.001 A 
ENDROOT
BRANCH   1   7
ATOM      7  C   UNL d   1      53.255  33.172  53.061  0.00  0.00     0.281 C 
ATOM      8  N   UNL d   1      52.558  32.929  52.681  0.00  0.00    -0.183 NA
ATOM      9  O   UNL d   1      53.968  32.794  52.900  0.00  0.00    -0.265 OA
BRANCH   8  10
ATOM     10  C   UNL d   1      51.854  33.300  52.838  0.00  0.00     0.197 A 
ATOM     11  N   UNL d   1      51.322  33.100  53.443  0.00  0.00    -0.219 NA
ATOM     12  C   UNL d   1      50.676  33.621  53.404  0.00  0.00     0.108 A 
ATOM     13  C   UNL d   1      50.804  34.148  52.774  0.00  0.00     0.059 A 
ATOM     14  S   UNL d   1      51.529  33.947  52.429  0.00  0.00    -0.046 SA
ENDBRANCH   8  10
ENDBRANCH   1   7
BRANCH   2  15
ATOM     15  S   UNL d   1      53.771  32.942  54.608  0.00  0.00    -0.113 SA
ATOM     16  C   UNL d   1      54.155  32.861  55.332  0.00  0.00     0.074 C 
ENDBRANCH   2  15
TORSDOF 3
ENDMDL
MODEL 3
REMARK VINA RESULT:      -6.9      1.419      2.491
REMARK  3 active torsions:
REMARK  status: ('A' for Active; 'I' for Inactive)
REMARK       I    between atoms: N_2  and  C_1 
REMARK    1  A    between atoms: C_4  and  C_1 
REMARK    2  A    between atoms: C_3  and  N_2 
REMARK    3  A    between atoms: S_11  and  C_7 
ROOT
ATOM      1  C   UNL d   1      53.479  33.526  53.515  0.00  0.00     0.064 A 
ATOM      2  C   UNL d   1      53.491  33.857  54.268  0.00  0.00     0.030 A 
ATOM      3  C   UNL d   1      54.041  32.954  53.301  0.00  0.00     0.005 A 
ATOM      4  C   UNL d   1      54.062  33.620  54.815  0.00  0.00     0.006 A 
ATOM      5  C   UNL d   1      54.612  32.717  53.848  0.00  0.00     0.000 A 
ATOM      6  C   UNL d   1      54.621  33.053  54.607  0.00  0.00     0.001 A 
ENDROOT
BRANCH   1   7
ATOM      7  C   UNL d   1      52.907  33.763  52.968  0.00  0.00     0.281 C 
ATOM      8  N   UNL d   1      52.401  33.199  52.630  0.00  0.00    -0.183 NA
ATOM      9  O   UNL d   1      52.840  34.556  52.760  0.00  0.00    -0.265 OA
BRANCH   8  10
ATOM     10  C   UNL d   1      52.465  32.416  52.834  0.00  0.00     0.197 A 
ATOM     11  N   UNL d   1      53.008  31.873  52.518  0.00  0.00    -0.219 NA
ATOM     12  C   UNL d   1      52.881  31.137  52.881  0.00  0.00     0.108 A 
ATOM     13  C   UNL d   1      52.257  31.219  53.425  0.00  0.00     0.059 A 
ATOM     14  S   UNL d   1      52.005  32.007  53.392  0.00  0.00    -0.046 SA
ENDBRANCH   8  10
ENDBRANCH   1   7
BRANCH   2  15
ATOM     15  S   UNL d   1      52.931  34.424  54.476  0.00  0.00    -0.113 SA
ATOM     16  C   UNL d   1      53.046  34.885  55.148  0.00  0.00     0.074 C 
ENDBRANCH   2  15
TORSDOF 3
ENDMDL
MODEL 4
REMARK VINA RESULT:      -6.8      1.618      3.176
REMARK  3 active torsions:
REMARK  status: ('A' for Active; 'I' for Inactive)
REMARK       I    between atoms: N_2  and  C_1 
REMARK    1  A    between atoms: C_4  and  C_1 
REMARK    2  A    between atoms: C_3  and  N_2 
REMARK    3  A    between atoms: S_11  and  C_7 
ROOT
ATOM      1  C   UNL d   1      53.360  33.605  54.409  0.00  0.00     0.064 A 
ATOM      2  C   UNL d   1      54.163  33.423  54.391  0.00  0.00     0.030 A 
ATOM      3  C   UNL d   1      52.805  33.074  54.092  0.00  0.00     0.005 A 
ATOM      4  C   UNL d   1      54.419  32.712  54.060  0.00  0.00     0.006 A 
ATOM      5  C   UNL d   1      53.061  32.363  53.761  0.00  0.00     0.000 A 
ATOM      6  C   UNL d   1      53.872  32.184  53.746  0.00  0.00     0.001 A 
ENDROOT
BRANCH   1   7
ATOM      7  C   UNL d   1      53.104  34.316  54.740  0.00  0.00     0.281 C 
ATOM      8  N   UNL d   1      52.622  34.827  54.297  0.00  0.00    -0.183 NA
ATOM      9  O   UNL d   1      53.327  34.517  55.506  0.00  0.00    -0.265 OA
BRANCH   8  10
ATOM     10  C   UNL d   1      52.401  34.631  53.541  0.00  0.00     0.197 A 
ATOM     11  N   UNL d   1      52.840  34.776  52.853  0.00  0.00    -0.219 NA
ATOM     12  C   UNL d   1      52.409  34.486  52.204  0.00  0.00     0.108 A 
ATOM     13  C   UNL d   1      51.700  34.159  52.488  0.00  0.00     0.059 A 
ATOM     14  S   UNL d   1      51.699  34.250  53.311  0.00  0.00    -0.046 SA
ENDBRANCH   8  10
ENDBRANCH   1   7
BRANCH   2  15
ATOM     15  S   UNL d   1      54.710  33.953  54.705  0.00  0.00    -0.113 SA
ATOM     16  C   UNL d   1      55.497  33.727  54.788  0.00  0.00     0.074 C 
ENDBRANCH   2  15
TORSDOF 3
ENDMDL
MODEL 5
REMARK VINA RESULT:      -6.7      1.295      2.505
REMARK  3 active torsions:
REMARK  status: ('A' for Active; 'I' for Inactive)
REMARK       I    between atoms: N_2  and  C_1 
REMARK    1  A    between atoms: C_4  and  C_1 
REMARK    2  A    between atoms: C_3  and  N_2 
REMARK    3  A    between atoms: S_11  and  C_7 
ROOT
ATOM      1  C   UNL d   1      53.337  32.362  53.271  0.00  0.00     0.064 A 
ATOM      2  C   UNL d   1      53.480  31.815  53.869  0.00  0.00     0.030 A 
ATOM      3  C   UNL d   1      53.708  33.106  53.290  0.00  0.00     0.005 A 
ATOM      4  C   UNL d   1      53.992  32.003  54.488  0.00  0.00     0.006 A 
ATOM      5  C   UNL d   1      54.220  33.293  53.909  0.00  0.00     0.000 A 
ATOM      6  C   UNL d   1      54.361  32.738  54.510  0.00  0.00     0.001 A 
ENDROOT
BRANCH   1   7
ATOM      7  C   UNL d   1      52.825  32.175  52.652  0.00  0.00     0.281 C 
ATOM      8  N   UNL d   1      52.177  32.667  52.490  0.00  0.00    -0.183 NA
ATOM      9  O   UNL d   1      52.958  31.502  52.197  0.00  0.00    -0.265 OA
BRANCH   8  10
ATOM     10  C   UNL d   1      52.043  33.331  52.938  0.00  0.00     0.197 A 
ATOM     11  N   UNL d   1      51.630  33.359  53.656  0.00  0.00    -0.219 NA
ATOM     12  C   UNL d   1      51.625  34.146  53.923  0.00  0.00     0.108 A 
ATOM     13  C   UNL d   1      52.036  34.611  53.370  0.00  0.00     0.059 A 
ATOM     14  S   UNL d   1      52.292  34.105  52.766  0.00  0.00    -0.046 SA
ENDBRANCH   8  10
ENDBRANCH   1   7
BRANCH   2  15
ATOM     15  S   UNL d   1      53.111  31.079  53.848  0.00  0.00    -0.113 SA
ATOM     16  C   UNL d   1      53.376  30.473  54.338  0.00  0.00     0.074 C 
ENDBRANCH   2  15
TORSDOF 3
ENDMDL
MODEL 6
REMARK VINA RESULT:      -6.1      1.457      2.131
REMARK  3 active torsions:
REMARK  status: ('A' for Active; 'I' for Inactive)
REMARK       I    between atoms: N_2  and  C_1 
REMARK    1  A    between atoms: C_4  and  C_1 
REMARK    2  A    between atoms: C_3  and  N_2 
REMARK    3  A    between atoms: S_11  and  C_7 
ROOT
ATOM      1  C   UNL d   1      52.864  33.850  54.272  0.00  0.00     0.064 A 
ATOM      2  C   UNL d   1      52.877  34.601  53.935  0.00  0.00     0.030 A 
ATOM      3  C   UNL d   1      52.421  33.243  53.917  0.00  0.00     0.005 A 
ATOM      4  C   UNL d   1      52.452  34.753  53.245  0.00  0.00     0.006 A 
ATOM      5  C   UNL d   1      51.996  33.395  53.227  0.00  0.00     0.000 A 
ATOM      6  C   UNL d   1      52.013  34.154  52.891  0.00  0.00     0.001 A 
ENDROOT
BRANCH   1   7
ATOM      7  C   UNL d   1      53.289  33.698  54.962  0.00  0.00     0.281 C 
ATOM      8  N   UNL d   1      53.867  33.102  54.967  0.00  0.00    -0.183 NA
ATOM      9  O   UNL d   1      53.140  34.135  55.643  0.00  0.00    -0.265 OA
BRANCH   8  10
ATOM     10  C   UNL d   1      54.016  32.669  54.297  0.00  0.00     0.197 A 
ATOM     11  N   UNL d   1      54.547  32.873  53.693  0.00  0.00    -0.219 NA
ATOM     12  C   UNL d   1      54.527  32.276  53.115  0.00  0.00     0.108 A 
ATOM     13  C   UNL d   1      53.981  31.698  53.358  0.00  0.00     0.059 A 
ATOM     14  S   UNL d   1      53.670  31.944  54.085  0.00  0.00    -0.046 SA
ENDBRANCH   8  10
ENDBRANCH   1   7
BRANCH   2  15
ATOM     15  S   UNL d   1      53.317  35.201  54.290  0.00  0.00    -0.113 SA
ATOM     16  C   UNL d   1      53.200  35.983  54.062  0.00  0.00     0.074 C 
ENDBRANCH   2  15
TORSDOF 3
ENDMDL
