MODEL 1
REMARK VINA RESULT:      -4.2      0.000      0.000
REMARK  6 active torsions:
REMARK  status: ('A' for Active; 'I' for Inactive)
REMARK    1  A    between atoms: C_2  and  S_1 
REMARK    2  A    between atoms: N_10  and  S_1 
REMARK    3  A    between atoms: O_16  and  C_7 
REMARK    4  A    between atoms: C_13  and  N_10 
REMARK    5  A    between atoms: N_11  and  C_17 
REMARK    6  A    between atoms: C_17  and  C_13 
ROOT
ATOM      1  S   UNL d   1      58.135  -0.049  30.177  0.00  0.00     0.286 S 
ATOM      2  O   UNL d   1      57.615  -0.066  29.531  0.00  0.00    -0.198 OA
ATOM      3  O   UNL d   1      58.646  -0.033  30.812  0.00  0.00    -0.198 OA
ENDROOT
BRANCH   1   4
ATOM      4  C   UNL d   1      58.682  -0.493  29.749  0.00  0.00     0.117 A 
ATOM      5  C   UNL d   1      58.580  -1.309  29.669  0.00  0.00     0.027 A 
ATOM      6  C   UNL d   1      59.127  -1.753  29.240  0.00  0.00     0.081 A 
ATOM      7 CL   UNL d   1      59.025  -2.574  29.159  0.00  0.00    -0.080 Cl
ATOM      8  C   UNL d   1      59.776  -1.382  28.891  0.00  0.00     0.105 A 
ATOM      9  C   UNL d   1      59.873  -0.575  28.973  0.00  0.00     0.037 A 
ATOM     10  C   UNL d   1      59.326  -0.131  29.401  0.00  0.00     0.072 A 
ATOM     11 CL   UNL d   1      59.431   0.681  29.479  0.00  0.00    -0.082 Cl
BRANCH   8  12
ATOM     12  O   UNL d   1      60.324  -1.827  28.462  0.00  0.00    -0.327 OA
ATOM     13  C   UNL d   1      61.124  -1.796  28.659  0.00  0.00     0.181 C 
ENDBRANCH   8  12
ENDBRANCH   1   4
BRANCH   1  14
ATOM     14  N   UNL d   1      57.588   0.395  30.606  0.00  0.00    -0.155 NA
BRANCH  14  15
ATOM     15  C   UNL d   1      57.185   0.056  31.228  0.00  0.00     0.131 C 
BRANCH  15  16
ATOM     16  C   UNL d   1      56.754   0.530  31.747  0.00  0.00     0.102 C 
BRANCH  16  17
ATOM     17  N   UNL d   1      56.301   0.183  32.343  0.00  0.00    -0.298 N 
ATOM     18  C   UNL d   1      56.288  -0.638  32.428  0.00  0.00     0.107 A 
ATOM     19  C   UNL d   1      55.835  -0.983  33.024  0.00  0.00     0.142 A 
ATOM     20  O   UNL d   1      55.391  -0.509  33.539  0.00  0.00    -0.300 OA
ATOM     21  C   UNL d   1      55.404   0.311  33.455  0.00  0.00     0.142 A 
ATOM     22  C   UNL d   1      55.860   0.658  32.855  0.00  0.00     0.107 A 
ENDBRANCH  16  17
ENDBRANCH  15  16
ENDBRANCH  14  15
ENDBRANCH   1  14
TORSDOF 6
ENDMDL
MODEL 2
REMARK VINA RESULT:      -3.7      1.730      4.774
REMARK  6 active torsions:
REMARK  status: ('A' for Active; 'I' for Inactive)
REMARK    1  A    between atoms: C_2  and  S_1 
REMARK    2  A    between atoms: N_10  and  S_1 
REMARK    3  A    between atoms: O_16  and  C_7 
REMARK    4  A    between atoms: C_13  and  N_10 
REMARK    5  A    between atoms: N_11  and  C_17 
REMARK    6  A    between atoms: C_17  and  C_13 
ROOT
ATOM      1  S   UNL d   1      57.375  -0.094  31.058  0.00  0.00     0.286 S 
ATOM      2  O   UNL d   1      57.588  -0.883  31.203  0.00  0.00    -0.198 OA
ATOM      3  O   UNL d   1      57.167   0.681  30.916  0.00  0.00    -0.198 OA
ENDROOT
BRANCH   1   4
ATOM      4  C   UNL d   1      57.074  -0.035  31.823  0.00  0.00     0.117 A 
ATOM      5  C   UNL d   1      56.340  -0.366  32.005  0.00  0.00     0.027 A 
ATOM      6  C   UNL d   1      56.038  -0.307  32.770  0.00  0.00     0.081 A 
ATOM      7 CL   UNL d   1      55.300  -0.640  32.955  0.00  0.00    -0.080 Cl
ATOM      8  C   UNL d   1      56.471   0.084  33.354  0.00  0.00     0.105 A 
ATOM      9  C   UNL d   1      57.197   0.410  33.171  0.00  0.00     0.037 A 
ATOM     10  C   UNL d   1      57.498   0.351  32.405  0.00  0.00     0.072 A 
ATOM     11 CL   UNL d   1      58.230   0.682  32.228  0.00  0.00    -0.082 Cl
BRANCH   8  12
ATOM     12  O   UNL d   1      56.169   0.143  34.121  0.00  0.00    -0.327 OA
ATOM     13  C   UNL d   1      56.498   0.682  34.652  0.00  0.00     0.181 C 
ENDBRANCH   8  12
ENDBRANCH   1   4
BRANCH   1  14
ATOM     14  N   UNL d   1      57.677  -0.153  30.293  0.00  0.00    -0.155 NA
BRANCH  14  15
ATOM     15  C   UNL d   1      58.161  -0.777  30.092  0.00  0.00     0.131 C 
BRANCH  15  16
ATOM     16  C   UNL d   1      58.431  -0.857  29.317  0.00  0.00     0.102 C 
BRANCH  16  17
ATOM     17  N   UNL d   1      59.102  -1.310  29.158  0.00  0.00    -0.298 N 
ATOM     18  C   UNL d   1      59.030  -2.119  29.012  0.00  0.00     0.107 A 
ATOM     19  C   UNL d   1      59.702  -2.570  28.853  0.00  0.00     0.142 A 
ATOM     20  O   UNL d   1      60.451  -2.214  28.840  0.00  0.00    -0.300 OA
ATOM     21  C   UNL d   1      60.523  -1.406  28.986  0.00  0.00     0.142 A 
ATOM     22  C   UNL d   1      59.847  -0.953  29.146  0.00  0.00     0.107 A 
ENDBRANCH  16  17
ENDBRANCH  15  16
ENDBRANCH  14  15
ENDBRANCH   1  14
TORSDOF 6
ENDMDL
MODEL 3
REMARK VINA RESULT:      -2.3      0.988      1.554
REMARK  6 active torsions:
REMARK  status: ('A' for Active; 'I' for Inactive)
REMARK    1  A    between atoms: C_2  and  S_1 
REMARK    2  A    between atoms: N_10  and  S_1 
REMARK    3  A    between atoms: O_16  and  C_7 
REMARK    4  A    between atoms: C_13  and  N_10 
REMARK    5  A    between atoms: N_11  and  C_17 
REMARK    6  A    between atoms: C_17  and  C_13 
ROOT
ATOM      1  S   UNL d   1      57.800   0.006  30.609  0.00  0.00     0.286 S 
ATOM      2  O   UNL d   1      58.122  -0.421  31.243  0.00  0.00    -0.198 OA
ATOM      3  O   UNL d   1      57.483   0.425  29.986  0.00  0.00    -0.198 OA
ENDROOT
BRANCH   1   4
ATOM      4  C   UNL d   1      58.514  -0.058  30.203  0.00  0.00     0.117 A 
ATOM      5  C   UNL d   1      59.182   0.343  30.477  0.00  0.00     0.027 A 
ATOM      6  C   UNL d   1      59.897   0.279  30.070  0.00  0.00     0.081 A 
ATOM      7 CL   UNL d   1      60.570   0.682  30.344  0.00  0.00    -0.080 Cl
ATOM      8  C   UNL d   1      59.944  -0.185  29.389  0.00  0.00     0.105 A 
ATOM      9  C   UNL d   1      59.281  -0.580  29.122  0.00  0.00     0.037 A 
ATOM     10  C   UNL d   1      58.566  -0.516  29.528  0.00  0.00     0.072 A 
ATOM     11 CL   UNL d   1      57.903  -0.916  29.253  0.00  0.00    -0.082 Cl
BRANCH   8  12
ATOM     12  O   UNL d   1      60.660  -0.249  28.982  0.00  0.00    -0.327 OA
ATOM     13  C   UNL d   1      60.920  -0.987  28.720  0.00  0.00     0.181 C 
ENDBRANCH   8  12
ENDBRANCH   1   4
BRANCH   1  14
ATOM     14  N   UNL d   1      57.085   0.070  31.016  0.00  0.00    -0.155 NA
BRANCH  14  15
ATOM     15  C   UNL d   1      57.083   0.172  31.824  0.00  0.00     0.131 C 
BRANCH  15  16
ATOM     16  C   UNL d   1      56.590  -0.291  32.297  0.00  0.00     0.102 C 
BRANCH  16  17
ATOM     17  N   UNL d   1      56.252   0.030  32.978  0.00  0.00    -0.298 N 
ATOM     18  C   UNL d   1      55.433   0.029  33.072  0.00  0.00     0.107 A 
ATOM     19  C   UNL d   1      55.095   0.350  33.753  0.00  0.00     0.142 A 
ATOM     20  O   UNL d   1      55.577   0.673  34.345  0.00  0.00    -0.300 OA
ATOM     21  C   UNL d   1      56.397   0.674  34.251  0.00  0.00     0.142 A 
ATOM     22  C   UNL d   1      56.735   0.352  33.566  0.00  0.00     0.107 A 
ENDBRANCH  16  17
ENDBRANCH  15  16
ENDBRANCH  14  15
ENDBRANCH   1  14
TORSDOF 6
ENDMDL
