MODEL 1
REMARK VINA RESULT:      -0.7      0.000      0.000
REMARK  8 active torsions:
REMARK  status: ('A' for Active; 'I' for Inactive)
REMARK    1  A    between atoms: C_2  and  C_1 
REMARK    2  A    between atoms: C_12  and  C_5 
REMARK    3  A    between atoms: C_14  and  C_6 
REMARK    4  A    between atoms: O_20  and  C_13 
REMARK    5  A    between atoms: O_21  and  C_14 
REMARK    6  A    between atoms: O_23  and  C_15 
REMARK    7  A    between atoms: O_22  and  C_16 
REMARK    8  A    between atoms: C_26  and  O_21 
ROOT
ATOM      1  C   UNL d   1      58.279  -0.263  30.213  0.00  0.00     0.206 A 
ATOM      2  O   UNL d   1      58.236  -0.228  31.074  0.00  0.00    -0.268 OA
ATOM      3  N   UNL d   1      57.540   0.058  29.899  0.00  0.00    -0.121 NA
ATOM      4  C   UNL d   1      57.473   0.114  31.295  0.00  0.00     0.205 A 
ATOM      5  N   UNL d   1      57.036   0.293  30.560  0.00  0.00    -0.121 NA
ENDROOT
BRANCH   1   6
ATOM      6  C   UNL d   1      58.912  -0.551  29.781  0.00  0.00     0.061 A 
ATOM      7  C   UNL d   1      58.887  -1.313  29.495  0.00  0.00     0.012 A 
ATOM      8  C   UNL d   1      59.505  -1.611  29.066  0.00  0.00     0.081 A 
ATOM      9  C   UNL d   1      60.161  -1.144  28.918  0.00  0.00     0.086 A 
ATOM     10  N   UNL d   1      60.190  -0.386  29.201  0.00  0.00    -0.245 NA
ATOM     11  C   UNL d   1      60.780  -1.442  28.488  0.00  0.00     0.021 C 
ATOM     12  C   UNL d   1      59.568  -0.084  29.633  0.00  0.00     0.085 A 
ATOM     13  C   UNL d   1      59.601   0.678  29.915  0.00  0.00     0.021 C 
BRANCH   8  14
ATOM     14  C   UNL d   1      59.475  -2.365  28.786  0.00  0.00     0.302 C 
ATOM     15  O   UNL d   1      60.153  -2.729  28.520  0.00  0.00    -0.259 OA
BRANCH  14  16
ATOM     16  O   UNL d   1      58.772  -2.770  28.764  0.00  0.00    -0.271 OA
BRANCH  16  17
ATOM     17  C   UNL d   1      58.747  -3.519  28.456  0.00  0.00     0.126 C 
ATOM     18  C   UNL d   1      58.392  -4.129  28.885  0.00  0.00     0.029 C 
ENDBRANCH  16  17
ENDBRANCH  14  16
ENDBRANCH   8  14
ENDBRANCH   1   6
BRANCH   4  19
ATOM     19  C   UNL d   1      57.185   0.256  32.110  0.00  0.00     0.047 A 
ATOM     20  C   UNL d   1      57.749   0.299  32.757  0.00  0.00     0.030 A 
ATOM     21  C   UNL d   1      57.469   0.440  33.563  0.00  0.00     0.118 A 
ATOM     22  C   UNL d   1      56.614   0.538  33.717  0.00  0.00     0.138 A 
ATOM     23  C   UNL d   1      56.053   0.493  33.057  0.00  0.00     0.118 A 
ATOM     24  C   UNL d   1      56.338   0.353  32.254  0.00  0.00     0.030 A 
BRANCH  21  25
ATOM     25  O   UNL d   1      57.718   0.537  34.394  0.00  0.00    -0.326 OA
ATOM     26  C   UNL d   1      58.553   0.660  34.591  0.00  0.00     0.181 C 
ENDBRANCH  21  25
BRANCH  22  27
ATOM     27  O   UNL d   1      56.334   0.678  34.522  0.00  0.00    -0.324 OA
ATOM     28  C   UNL d   1      55.721   0.168  34.860  0.00  0.00     0.182 C 
ENDBRANCH  22  27
BRANCH  23  29
ATOM     29  O   UNL d   1      55.204   0.590  33.208  0.00  0.00    -0.326 OA
ATOM     30  C   UNL d   1      54.627   0.314  32.627  0.00  0.00     0.181 C 
ENDBRANCH  23  29
ENDBRANCH   4  19
TORSDOF 8
ENDMDL
MODEL 2
REMARK VINA RESULT:      -0.3      1.142      5.682
REMARK  8 active torsions:
REMARK  status: ('A' for Active; 'I' for Inactive)
REMARK    1  A    between atoms: C_2  and  C_1 
REMARK    2  A    between atoms: C_12  and  C_5 
REMARK    3  A    between atoms: C_14  and  C_6 
REMARK    4  A    between atoms: O_20  and  C_13 
REMARK    5  A    between atoms: O_21  and  C_14 
REMARK    6  A    between atoms: O_23  and  C_15 
REMARK    7  A    between atoms: O_22  and  C_16 
REMARK    8  A    between atoms: C_26  and  O_21 
ROOT
ATOM      1  C   UNL d   1      57.281   0.350  31.782  0.00  0.00     0.206 A 
ATOM      2  O   UNL d   1      57.963  -0.092  31.494  0.00  0.00    -0.268 OA
ATOM      3  N   UNL d   1      56.873   0.681  31.095  0.00  0.00    -0.121 NA
ATOM      4  C   UNL d   1      57.980  -0.036  30.630  0.00  0.00     0.205 A 
ATOM      5  N   UNL d   1      57.297   0.447  30.380  0.00  0.00    -0.121 NA
ENDROOT
BRANCH   1   6
ATOM      6  C   UNL d   1      57.068   0.434  32.567  0.00  0.00     0.061 A 
ATOM      7  C   UNL d   1      56.282   0.381  32.776  0.00  0.00     0.012 A 
ATOM      8  C   UNL d   1      56.056   0.463  33.549  0.00  0.00     0.081 A 
ATOM      9  C   UNL d   1      56.620   0.600  34.127  0.00  0.00     0.086 A 
ATOM     10  N   UNL d   1      57.402   0.654  33.923  0.00  0.00    -0.245 NA
ATOM     11  C   UNL d   1      56.395   0.682  34.900  0.00  0.00     0.021 C 
ATOM     12  C   UNL d   1      57.632   0.572  33.145  0.00  0.00     0.085 A 
ATOM     13  C   UNL d   1      58.418   0.627  32.945  0.00  0.00     0.021 C 
BRANCH   8  14
ATOM     14  C   UNL d   1      55.279   0.409  33.750  0.00  0.00     0.302 C 
ATOM     15  O   UNL d   1      54.720   0.258  33.178  0.00  0.00    -0.259 OA
BRANCH  14  16
ATOM     16  O   UNL d   1      55.043   0.504  34.520  0.00  0.00    -0.271 OA
BRANCH  16  17
ATOM     17  C   UNL d   1      54.254   0.542  34.700  0.00  0.00     0.126 C 
ATOM     18  C   UNL d   1      54.013   0.609  35.487  0.00  0.00     0.029 C 
ENDBRANCH  16  17
ENDBRANCH  14  16
ENDBRANCH   8  14
ENDBRANCH   1   6
BRANCH   4  19
ATOM     19  C   UNL d   1      58.574  -0.399  30.099  0.00  0.00     0.047 A 
ATOM     20  C   UNL d   1      59.229   0.075  29.807  0.00  0.00     0.030 A 
ATOM     21  C   UNL d   1      59.817  -0.279  29.283  0.00  0.00     0.118 A 
ATOM     22  C   UNL d   1      59.744  -1.120  29.050  0.00  0.00     0.138 A 
ATOM     23  C   UNL d   1      59.080  -1.590  29.349  0.00  0.00     0.118 A 
ATOM     24  C   UNL d   1      58.495  -1.230  29.873  0.00  0.00     0.030 A 
BRANCH  21  25
ATOM     25  O   UNL d   1      60.548  -0.128  28.830  0.00  0.00    -0.326 OA
ATOM     26  C   UNL d   1      60.680   0.642  28.455  0.00  0.00     0.181 C 
ENDBRANCH  21  25
BRANCH  22  27
ATOM     27  O   UNL d   1      60.332  -1.474  28.526  0.00  0.00    -0.324 OA
ATOM     28  C   UNL d   1      60.793  -2.156  28.795  0.00  0.00     0.182 C 
ENDBRANCH  22  27
BRANCH  23  29
ATOM     29  O   UNL d   1      59.006  -2.423  29.120  0.00  0.00    -0.326 OA
ATOM     30  C   UNL d   1      58.223  -2.775  29.012  0.00  0.00     0.181 C 
ENDBRANCH  23  29
ENDBRANCH   4  19
TORSDOF 8
ENDMDL
MODEL 3
REMARK VINA RESULT:      -0.0      1.130      5.678
REMARK  8 active torsions:
REMARK  status: ('A' for Active; 'I' for Inactive)
REMARK    1  A    between atoms: C_2  and  C_1 
REMARK    2  A    between atoms: C_12  and  C_5 
REMARK    3  A    between atoms: C_14  and  C_6 
REMARK    4  A    between atoms: O_20  and  C_13 
REMARK    5  A    between atoms: O_21  and  C_14 
REMARK    6  A    between atoms: O_23  and  C_15 
REMARK    7  A    between atoms: O_22  and  C_16 
REMARK    8  A    between atoms: C_26  and  O_21 
ROOT
ATOM      1  C   UNL d   1      57.131   0.299  31.948  0.00  0.00     0.206 A 
ATOM      2  O   UNL d   1      57.764  -0.176  31.606  0.00  0.00    -0.268 OA
ATOM      3  N   UNL d   1      56.683   0.649  31.297  0.00  0.00    -0.121 NA
ATOM      4  C   UNL d   1      57.710  -0.123  30.744  0.00  0.00     0.205 A 
ATOM      5  N   UNL d   1      57.033   0.393  30.550  0.00  0.00    -0.121 NA
ENDROOT
BRANCH   1   6
ATOM      6  C   UNL d   1      56.989   0.396  32.749  0.00  0.00     0.061 A 
ATOM      7  C   UNL d   1      56.224   0.355  33.027  0.00  0.00     0.012 A 
ATOM      8  C   UNL d   1      56.069   0.448  33.816  0.00  0.00     0.081 A 
ATOM      9  C   UNL d   1      56.683   0.585  34.339  0.00  0.00     0.086 A 
ATOM     10  N   UNL d   1      57.445   0.626  34.066  0.00  0.00    -0.245 NA
ATOM     11  C   UNL d   1      56.529   0.678  35.129  0.00  0.00     0.021 C 
ATOM     12  C   UNL d   1      57.604   0.532  33.272  0.00  0.00     0.085 A 
ATOM     13  C   UNL d   1      58.370   0.574  33.003  0.00  0.00     0.021 C 
BRANCH   8  14
ATOM     14  C   UNL d   1      55.312   0.407  34.085  0.00  0.00     0.302 C 
ATOM     15  O   UNL d   1      55.128   0.682  34.828  0.00  0.00    -0.259 OA
BRANCH  14  16
ATOM     16  O   UNL d   1      54.724   0.093  33.621  0.00  0.00    -0.271 OA
BRANCH  16  17
ATOM     17  C   UNL d   1      53.988   0.431  33.617  0.00  0.00     0.126 C 
ATOM     18  C   UNL d   1      53.323  -0.028  33.784  0.00  0.00     0.029 C 
ENDBRANCH  16  17
ENDBRANCH  14  16
ENDBRANCH   8  14
ENDBRANCH   1   6
BRANCH   4  19
ATOM     19  C   UNL d   1      58.238  -0.515  30.167  0.00  0.00     0.047 A 
ATOM     20  C   UNL d   1      58.128  -1.350  29.989  0.00  0.00     0.030 A 
ATOM     21  C   UNL d   1      58.647  -1.740  29.420  0.00  0.00     0.118 A 
ATOM     22  C   UNL d   1      59.284  -1.287  29.027  0.00  0.00     0.138 A 
ATOM     23  C   UNL d   1      59.388  -0.447  29.213  0.00  0.00     0.118 A 
ATOM     24  C   UNL d   1      58.865  -0.061  29.783  0.00  0.00     0.030 A 
BRANCH  21  25
ATOM     25  O   UNL d   1      58.823  -2.497  29.023  0.00  0.00    -0.326 OA
ATOM     26  C   UNL d   1      58.439  -3.230  29.283  0.00  0.00     0.181 C 
ENDBRANCH  21  25
BRANCH  22  27
ATOM     27  O   UNL d   1      59.803  -1.678  28.458  0.00  0.00    -0.324 OA
ATOM     28  C   UNL d   1      60.525  -2.070  28.732  0.00  0.00     0.182 C 
ENDBRANCH  22  27
BRANCH  23  29
ATOM     29  O   UNL d   1      60.018   0.005  28.825  0.00  0.00    -0.326 OA
ATOM     30  C   UNL d   1      60.568   0.476  29.297  0.00  0.00     0.181 C 
ENDBRANCH  23  29
ENDBRANCH   4  19
TORSDOF 8
ENDMDL
