MODEL 1
REMARK VINA RESULT:      -7.8      0.000      0.000
REMARK  4 active torsions:
REMARK  status: ('A' for Active; 'I' for Inactive)
REMARK    1  A    between atoms: C_3  and  C_1 
REMARK       I    between atoms: N_8  and  C_3 
REMARK    2  A    between atoms: C_10  and  C_7 
REMARK    3  A    between atoms: C_9  and  N_8 
REMARK    4  A    between atoms: O_14  and  C_10 
ROOT
ATOM      1  C   UNL d   1     -46.776  12.411  23.309  0.00  0.00     0.081 A 
ATOM      2  C   UNL d   1     -47.598  12.426  23.311  0.00  0.00     0.090 A 
ATOM      3  C   UNL d   1     -46.379  11.714  23.503  0.00  0.00     0.007 A 
ATOM      4  C   UNL d   1     -48.027  11.747  23.506  0.00  0.00     0.019 A 
ATOM      5  C   UNL d   1     -46.805  11.031  23.698  0.00  0.00     0.000 A 
ATOM      6  C   UNL d   1     -47.634  11.052  23.698  0.00  0.00     0.002 A 
ENDROOT
BRANCH   2   7
ATOM      7  N   UNL d   1     -47.933  13.148  23.111  0.00  0.00    -0.207 NA
ATOM      8  C   UNL d   1     -48.752  13.211  23.042  0.00  0.00     0.287 C 
ATOM      9  O   UNL d   1     -49.228  12.555  23.174  0.00  0.00    -0.265 OA
BRANCH   8  10
ATOM     10  C   UNL d   1     -49.098  13.932  22.841  0.00  0.00     0.108 A 
ATOM     11  C   UNL d   1     -49.409  14.135  22.102  0.00  0.00     0.094 A 
ATOM     12  N   UNL d   1     -49.696  14.907  22.153  0.00  0.00    -0.219 NA
ATOM     13  C   UNL d   1     -49.427  13.652  21.437  0.00  0.00     0.021 C 
ATOM     14  C   UNL d   1     -49.563  15.176  22.915  0.00  0.00     0.215 A 
ATOM     15  S   UNL d   1     -49.194  14.576  23.341  0.00  0.00    -0.041 SA
ATOM     16  N   UNL d   1     -49.763  15.922  23.211  0.00  0.00    -0.120 N 
ENDBRANCH   8  10
ENDBRANCH   2   7
BRANCH   1  17
ATOM     17  C   UNL d   1     -46.351  13.088  23.116  0.00  0.00     0.297 C 
ATOM     18  O   UNL d   1     -46.179  13.638  23.697  0.00  0.00    -0.259 OA
BRANCH  17  19
ATOM     19  O   UNL d   1     -46.103  13.205  22.346  0.00  0.00    -0.296 OA
ATOM     20  C   UNL d   1     -45.431  13.660  22.195  0.00  0.00     0.185 C 
ENDBRANCH  17  19
ENDBRANCH   1  17
TORSDOF 4
ENDMDL
MODEL 2
REMARK VINA RESULT:      -7.2      1.563      3.614
REMARK  4 active torsions:
REMARK  status: ('A' for Active; 'I' for Inactive)
REMARK    1  A    between atoms: C_3  and  C_1 
REMARK       I    between atoms: N_8  and  C_3 
REMARK    2  A    between atoms: C_10  and  C_7 
REMARK    3  A    between atoms: C_9  and  N_8 
REMARK    4  A    between atoms: O_14  and  C_10 
ROOT
ATOM      1  C   UNL d   1     -49.943  14.001  22.328  0.00  0.00     0.081 A 
ATOM      2  C   UNL d   1     -49.462  13.349  22.190  0.00  0.00     0.090 A 
ATOM      3  C   UNL d   1     -50.745  13.966  22.132  0.00  0.00     0.007 A 
ATOM      4  C   UNL d   1     -49.776  12.661  21.857  0.00  0.00     0.019 A 
ATOM      5  C   UNL d   1     -51.063  13.279  21.798  0.00  0.00     0.000 A 
ATOM      6  C   UNL d   1     -50.573  12.625  21.662  0.00  0.00     0.002 A 
ENDROOT
BRANCH   2   7
ATOM      7  N   UNL d   1     -48.676  13.445  22.406  0.00  0.00    -0.207 NA
ATOM      8  C   UNL d   1     -48.158  12.807  22.351  0.00  0.00     0.287 C 
ATOM      9  O   UNL d   1     -48.427  12.080  22.082  0.00  0.00    -0.265 OA
BRANCH   8  10
ATOM     10  C   UNL d   1     -47.366  12.894  22.566  0.00  0.00     0.108 A 
ATOM     11  C   UNL d   1     -46.983  12.505  23.186  0.00  0.00     0.094 A 
ATOM     12  N   UNL d   1     -46.198  12.760  23.197  0.00  0.00    -0.219 NA
ATOM     13  C   UNL d   1     -47.325  11.960  23.698  0.00  0.00     0.021 C 
ATOM     14  C   UNL d   1     -46.100  13.301  22.591  0.00  0.00     0.215 A 
ATOM     15  S   UNL d   1     -46.819  13.386  22.200  0.00  0.00    -0.041 SA
ATOM     16  N   UNL d   1     -45.400  13.698  22.399  0.00  0.00    -0.120 N 
ENDBRANCH   8  10
ENDBRANCH   2   7
BRANCH   1  17
ATOM     17  C   UNL d   1     -49.629  14.685  22.659  0.00  0.00     0.297 C 
ATOM     18  O   UNL d   1     -49.194  15.198  22.193  0.00  0.00    -0.259 OA
BRANCH  17  19
ATOM     19  O   UNL d   1     -49.753  14.846  23.451  0.00  0.00    -0.296 OA
ATOM     20  C   UNL d   1     -49.874  15.624  23.698  0.00  0.00     0.185 C 
ENDBRANCH  17  19
ENDBRANCH   1  17
TORSDOF 4
ENDMDL
MODEL 3
REMARK VINA RESULT:      -7.2      1.433      3.886
REMARK  4 active torsions:
REMARK  status: ('A' for Active; 'I' for Inactive)
REMARK    1  A    between atoms: C_3  and  C_1 
REMARK       I    between atoms: N_8  and  C_3 
REMARK    2  A    between atoms: C_10  and  C_7 
REMARK    3  A    between atoms: C_9  and  N_8 
REMARK    4  A    between atoms: O_14  and  C_10 
ROOT
ATOM      1  C   UNL d   1     -49.333  14.051  22.212  0.00  0.00     0.081 A 
ATOM      2  C   UNL d   1     -48.635  14.208  22.617  0.00  0.00     0.090 A 
ATOM      3  C   UNL d   1     -49.904  14.643  22.137  0.00  0.00     0.007 A 
ATOM      4  C   UNL d   1     -48.503  14.954  22.949  0.00  0.00     0.019 A 
ATOM      5  C   UNL d   1     -49.776  15.391  22.468  0.00  0.00     0.000 A 
ATOM      6  C   UNL d   1     -49.070  15.543  22.875  0.00  0.00     0.002 A 
ENDROOT
BRANCH   2   7
ATOM      7  N   UNL d   1     -48.108  13.581  22.657  0.00  0.00    -0.207 NA
ATOM      8  C   UNL d   1     -47.370  13.691  23.008  0.00  0.00     0.287 C 
ATOM      9  O   UNL d   1     -47.165  14.424  23.315  0.00  0.00    -0.265 OA
BRANCH   8  10
ATOM     10  C   UNL d   1     -46.834  13.065  23.053  0.00  0.00     0.108 A 
ATOM     11  C   UNL d   1     -46.096  13.028  22.682  0.00  0.00     0.094 A 
ATOM     12  N   UNL d   1     -45.751  12.305  22.880  0.00  0.00    -0.219 NA
ATOM     13  C   UNL d   1     -45.767  13.609  22.202  0.00  0.00     0.021 C 
ATOM     14  C   UNL d   1     -46.271  11.902  23.368  0.00  0.00     0.215 A 
ATOM     15  S   UNL d   1     -46.940  12.370  23.476  0.00  0.00    -0.041 SA
ATOM     16  N   UNL d   1     -46.151  11.154  23.698  0.00  0.00    -0.120 N 
ENDBRANCH   8  10
ENDBRANCH   2   7
BRANCH   1  17
ATOM     17  C   UNL d   1     -49.462  13.309  21.883  0.00  0.00     0.297 C 
ATOM     18  O   UNL d   1     -49.159  13.136  21.143  0.00  0.00    -0.259 OA
BRANCH  17  19
ATOM     19  O   UNL d   1     -49.892  12.751  22.298  0.00  0.00    -0.296 OA
ATOM     20  C   UNL d   1     -50.309  12.168  21.889  0.00  0.00     0.185 C 
ENDBRANCH  17  19
ENDBRANCH   1  17
TORSDOF 4
ENDMDL
MODEL 4
REMARK VINA RESULT:      -6.4      1.258      2.182
REMARK  4 active torsions:
REMARK  status: ('A' for Active; 'I' for Inactive)
REMARK    1  A    between atoms: C_3  and  C_1 
REMARK       I    between atoms: N_8  and  C_3 
REMARK    2  A    between atoms: C_10  and  C_7 
REMARK    3  A    between atoms: C_9  and  N_8 
REMARK    4  A    between atoms: O_14  and  C_10 
ROOT
ATOM      1  C   UNL d   1     -47.066  12.927  22.897  0.00  0.00     0.081 A 
ATOM      2  C   UNL d   1     -47.285  13.699  22.717  0.00  0.00     0.090 A 
ATOM      3  C   UNL d   1     -46.270  12.749  23.028  0.00  0.00     0.007 A 
ATOM      4  C   UNL d   1     -46.714  14.294  22.667  0.00  0.00     0.019 A 
ATOM      5  C   UNL d   1     -45.695  13.342  22.979  0.00  0.00     0.000 A 
ATOM      6  C   UNL d   1     -45.923  14.118  22.797  0.00  0.00     0.002 A 
ENDROOT
BRANCH   2   7
ATOM      7  N   UNL d   1     -48.089  13.812  22.597  0.00  0.00    -0.207 NA
ATOM      8  C   UNL d   1     -48.377  14.574  22.467  0.00  0.00     0.287 C 
ATOM      9  O   UNL d   1     -47.862  15.213  22.456  0.00  0.00    -0.265 OA
BRANCH   8  10
ATOM     10  C   UNL d   1     -49.184  14.698  22.346  0.00  0.00     0.108 A 
ATOM     11  C   UNL d   1     -49.684  15.155  22.820  0.00  0.00     0.094 A 
ATOM     12  N   UNL d   1     -50.440  15.123  22.492  0.00  0.00    -0.219 NA
ATOM     13  C   UNL d   1     -49.463  15.566  23.496  0.00  0.00     0.021 C 
ATOM     14  C   UNL d   1     -50.406  14.651  21.824  0.00  0.00     0.215 A 
ATOM     15  S   UNL d   1     -49.632  14.388  21.731  0.00  0.00    -0.041 SA
ATOM     16  N   UNL d   1     -51.038  14.467  21.323  0.00  0.00    -0.120 N 
ENDBRANCH   8  10
ENDBRANCH   2   7
BRANCH   1  17
ATOM     17  C   UNL d   1     -47.635  12.336  22.946  0.00  0.00     0.297 C 
ATOM     18  O   UNL d   1     -48.035  12.217  23.650  0.00  0.00    -0.259 OA
BRANCH  17  19
ATOM     19  O   UNL d   1     -47.796  11.872  22.293  0.00  0.00    -0.296 OA
ATOM     20  C   UNL d   1     -48.187  11.152  22.387  0.00  0.00     0.185 C 
ENDBRANCH  17  19
ENDBRANCH   1  17
TORSDOF 4
ENDMDL
MODEL 5
REMARK VINA RESULT:      -5.6      8.091      9.564
REMARK  4 active torsions:
REMARK  status: ('A' for Active; 'I' for Inactive)
REMARK    1  A    between atoms: C_3  and  C_1 
REMARK       I    between atoms: N_8  and  C_3 
REMARK    2  A    between atoms: C_10  and  C_7 
REMARK    3  A    between atoms: C_9  and  N_8 
REMARK    4  A    between atoms: O_14  and  C_10 
ROOT
ATOM      1  C   UNL d   1     -40.006  14.866  17.583  0.00  0.00     0.081 A 
ATOM      2  C   UNL d   1     -40.320  15.302  18.206  0.00  0.00     0.090 A 
ATOM      3  C   UNL d   1     -40.316  14.957  16.823  0.00  0.00     0.007 A 
ATOM      4  C   UNL d   1     -40.942  15.830  18.073  0.00  0.00     0.019 A 
ATOM      5  C   UNL d   1     -40.939  15.485  16.687  0.00  0.00     0.000 A 
ATOM      6  C   UNL d   1     -41.250  15.922  17.318  0.00  0.00     0.002 A 
ENDROOT
BRANCH   2   7
ATOM      7  N   UNL d   1     -39.970  15.167  18.935  0.00  0.00    -0.207 NA
ATOM      8  C   UNL d   1     -40.315  15.479  19.616  0.00  0.00     0.287 C 
ATOM      9  O   UNL d   1     -41.003  15.922  19.562  0.00  0.00    -0.265 OA
BRANCH   8  10
ATOM     10  C   UNL d   1     -39.970  15.349  20.354  0.00  0.00     0.108 A 
ATOM     11  C   UNL d   1     -40.257  14.847  20.945  0.00  0.00     0.094 A 
ATOM     12  N   UNL d   1     -39.738  14.889  21.585  0.00  0.00    -0.219 NA
ATOM     13  C   UNL d   1     -40.939  14.390  20.899  0.00  0.00     0.021 C 
ATOM     14  C   UNL d   1     -39.138  15.411  21.390  0.00  0.00     0.215 A 
ATOM     15  S   UNL d   1     -39.279  15.696  20.631  0.00  0.00    -0.041 SA
ATOM     16  N   UNL d   1     -38.498  15.620  21.869  0.00  0.00    -0.120 N 
ENDBRANCH   8  10
ENDBRANCH   2   7
BRANCH   1  17
ATOM     17  C   UNL d   1     -39.388  14.341  17.716  0.00  0.00     0.297 C 
ATOM     18  O   UNL d   1     -38.620  14.623  17.762  0.00  0.00    -0.259 OA
BRANCH  17  19
ATOM     19  O   UNL d   1     -39.544  13.543  17.801  0.00  0.00    -0.296 OA
ATOM     20  C   UNL d   1     -38.937  12.993  17.699  0.00  0.00     0.185 C 
ENDBRANCH  17  19
ENDBRANCH   1  17
TORSDOF 4
ENDMDL
MODEL 6
REMARK VINA RESULT:      -5.4      8.278      9.816
REMARK  4 active torsions:
REMARK  status: ('A' for Active; 'I' for Inactive)
REMARK    1  A    between atoms: C_3  and  C_1 
REMARK       I    between atoms: N_8  and  C_3 
REMARK    2  A    between atoms: C_10  and  C_7 
REMARK    3  A    between atoms: C_9  and  N_8 
REMARK    4  A    between atoms: O_14  and  C_10 
ROOT
ATOM      1  C   UNL d   1     -39.700  14.673  20.333  0.00  0.00     0.081 A 
ATOM      2  C   UNL d   1     -40.097  14.422  19.659  0.00  0.00     0.090 A 
ATOM      3  C   UNL d   1     -40.101  14.712  21.054  0.00  0.00     0.007 A 
ATOM      4  C   UNL d   1     -40.895  14.209  19.699  0.00  0.00     0.019 A 
ATOM      5  C   UNL d   1     -40.900  14.499  21.098  0.00  0.00     0.000 A 
ATOM      6  C   UNL d   1     -41.295  14.247  20.415  0.00  0.00     0.002 A 
ENDROOT
BRANCH   2   7
ATOM      7  N   UNL d   1     -39.644  14.405  18.975  0.00  0.00    -0.207 NA
ATOM      8  C   UNL d   1     -39.988  14.167  18.265  0.00  0.00     0.287 C 
ATOM      9  O   UNL d   1     -40.779  13.949  18.243  0.00  0.00    -0.265 OA
BRANCH   8  10
ATOM     10  C   UNL d   1     -39.540  14.147  17.572  0.00  0.00     0.108 A 
ATOM     11  C   UNL d   1     -39.582  14.688  16.948  0.00  0.00     0.094 A 
ATOM     12  N   UNL d   1     -39.038  14.453  16.375  0.00  0.00    -0.219 NA
ATOM     13  C   UNL d   1     -40.078  15.343  16.910  0.00  0.00     0.021 C 
ATOM     14  C   UNL d   1     -38.665  13.775  16.642  0.00  0.00     0.215 A 
ATOM     15  S   UNL d   1     -38.974  13.584  17.381  0.00  0.00    -0.041 SA
ATOM     16  N   UNL d   1     -38.079  13.350  16.243  0.00  0.00    -0.120 N 
ENDBRANCH   8  10
ENDBRANCH   2   7
BRANCH   1  17
ATOM     17  C   UNL d   1     -38.907  14.885  20.292  0.00  0.00     0.297 C 
ATOM     18  O   UNL d   1     -38.329  14.306  20.340  0.00  0.00    -0.259 OA
BRANCH  17  19
ATOM     19  O   UNL d   1     -38.701  15.671  20.202  0.00  0.00    -0.296 OA
ATOM     20  C   UNL d   1     -37.940  15.922  20.402  0.00  0.00     0.185 C 
ENDBRANCH  17  19
ENDBRANCH   1  17
TORSDOF 4
ENDMDL
MODEL 7
REMARK VINA RESULT:      -5.3      8.226      9.723
REMARK  4 active torsions:
REMARK  status: ('A' for Active; 'I' for Inactive)
REMARK    1  A    between atoms: C_3  and  C_1 
REMARK       I    between atoms: N_8  and  C_3 
REMARK    2  A    between atoms: C_10  and  C_7 
REMARK    3  A    between atoms: C_9  and  N_8 
REMARK    4  A    between atoms: O_14  and  C_10 
ROOT
ATOM      1  C   UNL d   1     -39.553  14.507  17.267  0.00  0.00     0.081 A 
ATOM      2  C   UNL d   1     -39.388  14.280  18.040  0.00  0.00     0.090 A 
ATOM      3  C   UNL d   1     -39.225  14.085  16.638  0.00  0.00     0.007 A 
ATOM      4  C   UNL d   1     -38.896  13.632  18.188  0.00  0.00     0.019 A 
ATOM      5  C   UNL d   1     -38.732  13.436  16.782  0.00  0.00     0.000 A 
ATOM      6  C   UNL d   1     -38.569  13.212  17.563  0.00  0.00     0.002 A 
ENDROOT
BRANCH   2   7
ATOM      7  N   UNL d   1     -39.743  14.738  18.620  0.00  0.00    -0.207 NA
ATOM      8  C   UNL d   1     -39.555  14.608  19.413  0.00  0.00     0.287 C 
ATOM      9  O   UNL d   1     -39.016  14.024  19.617  0.00  0.00    -0.265 OA
BRANCH   8  10
ATOM     10  C   UNL d   1     -39.907  15.064  20.003  0.00  0.00     0.108 A 
ATOM     11  C   UNL d   1     -39.519  15.589  20.510  0.00  0.00     0.094 A 
ATOM     12  N   UNL d   1     -40.086  15.921  21.010  0.00  0.00    -0.219 NA
ATOM     13  C   UNL d   1     -38.713  15.750  20.514  0.00  0.00     0.021 C 
ATOM     14  C   UNL d   1     -40.814  15.604  20.812  0.00  0.00     0.215 A 
ATOM     15  S   UNL d   1     -40.706  15.074  20.191  0.00  0.00    -0.041 SA
ATOM     16  N   UNL d   1     -41.538  15.781  21.171  0.00  0.00    -0.120 N 
ENDBRANCH   8  10
ENDBRANCH   2   7
BRANCH   1  17
ATOM     17  C   UNL d   1     -40.043  15.151  17.122  0.00  0.00     0.297 C 
ATOM     18  O   UNL d   1     -39.725  15.905  17.102  0.00  0.00    -0.259 OA
BRANCH  17  19
ATOM     19  O   UNL d   1     -40.842  15.033  16.997  0.00  0.00    -0.296 OA
ATOM     20  C   UNL d   1     -41.293  15.624  16.638  0.00  0.00     0.185 C 
ENDBRANCH  17  19
ENDBRANCH   1  17
TORSDOF 4
ENDMDL
