MODEL 1
REMARK VINA RESULT:       2.3      0.000      0.000
REMARK  4 active torsions:
REMARK  status: ('A' for Active; 'I' for Inactive)
REMARK       I    between atoms: C_3  and  N_1 
REMARK    1  A    between atoms: C_7  and  C_3 
REMARK    2  A    between atoms: C_8  and  C_4 
REMARK    3  A    between atoms: C_9  and  C_5 
REMARK    4  A    between atoms: O_25  and  C_18 
ROOT
ATOM      1  N   UNL d   1     -41.866-122.030 -51.416  0.00  0.00    -0.195 N 
ATOM      2  N   UNL d   1     -41.869-122.020 -50.583  0.00  0.00    -0.163 NA
ATOM      3  C   UNL d   1     -41.866-121.350 -51.896  0.00  0.00     0.282 C 
ATOM      4  C   UNL d   1     -41.862-122.804 -51.685  0.00  0.00     0.088 A 
ATOM      5  C   UNL d   1     -41.868-122.801 -50.331  0.00  0.00     0.103 A 
ATOM      6  C   UNL d   1     -41.864-123.284 -51.012  0.00  0.00     0.040 A 
ATOM      7  O   UNL d   1     -41.870-120.602 -51.559  0.00  0.00    -0.265 OA
ENDROOT
BRANCH   3   8
ATOM      8  C   UNL d   1     -41.862-121.442 -52.733  0.00  0.00     0.077 A 
ATOM      9  C   UNL d   1     -42.563-121.460 -53.152  0.00  0.00     0.104 A 
ATOM     10  N   UNL d   1     -42.559-121.550 -53.964  0.00  0.00    -0.242 NA
ATOM     11  C   UNL d   1     -41.828-121.622 -54.355  0.00  0.00     0.099 A 
ATOM     12  C   UNL d   1     -41.124-121.604 -53.937  0.00  0.00     0.021 A 
ATOM     13  C   UNL d   1     -41.131-121.515 -53.125  0.00  0.00     0.008 A 
ENDBRANCH   3   8
BRANCH   4  14
ATOM     14  C   UNL d   1     -41.858-123.058 -52.471  0.00  0.00     0.018 A 
ATOM     15  C   UNL d   1     -41.160-123.334 -52.811  0.00  0.00     0.004 A 
ATOM     16  C   UNL d   1     -41.156-123.587 -53.596  0.00  0.00     0.024 A 
ATOM     17  C   UNL d   1     -41.850-123.564 -54.041  0.00  0.00     0.094 A 
ATOM     18  C   UNL d   1     -42.544-123.288 -53.700  0.00  0.00     0.024 A 
ATOM     19  C   UNL d   1     -42.548-123.035 -52.914  0.00  0.00     0.004 A 
BRANCH  17  20
ATOM     20  O   UNL d   1     -41.846-123.817 -54.826  0.00  0.00    -0.328 OA
ATOM     21  C   UNL d   1     -41.150-123.782 -55.267  0.00  0.00     0.181 C 
ENDBRANCH  17  20
ENDBRANCH   4  14
BRANCH   5  22
ATOM     22  C   UNL d   1     -41.870-123.047 -49.556  0.00  0.00     0.019 A 
ATOM     23  C   UNL d   1     -42.607-123.171 -49.189  0.00  0.00     0.002 A 
ATOM     24  C   UNL d   1     -42.614-123.426 -48.385  0.00  0.00     0.007 A 
ATOM     25  C   UNL d   1     -41.913-123.546 -47.987  0.00  0.00     0.035 A 
ATOM     26  C   UNL d   1     -41.177-123.422 -48.354  0.00  0.00     0.007 A 
ATOM     27 BR   UNL d   1     -41.939-123.796 -47.201  0.00  0.00    -0.049 Br
ATOM     28  C   UNL d   1     -41.172-123.165 -49.163  0.00  0.00     0.002 A 
ENDBRANCH   5  22
TORSDOF 4
ENDMDL
MODEL 2
REMARK VINA RESULT:       3.5      2.138      4.739
REMARK  4 active torsions:
REMARK  status: ('A' for Active; 'I' for Inactive)
REMARK       I    between atoms: C_3  and  N_1 
REMARK    1  A    between atoms: C_7  and  C_3 
REMARK    2  A    between atoms: C_8  and  C_4 
REMARK    3  A    between atoms: C_9  and  C_5 
REMARK    4  A    between atoms: O_25  and  C_18 
ROOT
ATOM      1  N   UNL d   1     -42.841-122.444 -51.297  0.00  0.00    -0.195 N 
ATOM      2  N   UNL d   1     -42.845-122.310 -52.119  0.00  0.00    -0.163 NA
ATOM      3  C   UNL d   1     -43.506-122.361 -50.803  0.00  0.00     0.282 C 
ATOM      4  C   UNL d   1     -42.090-122.667 -51.054  0.00  0.00     0.088 A 
ATOM      5  C   UNL d   1     -42.084-122.452 -52.391  0.00  0.00     0.103 A 
ATOM      6  C   UNL d   1     -41.620-122.672 -51.734  0.00  0.00     0.040 A 
ATOM      7  O   UNL d   1     -44.231-122.134 -51.112  0.00  0.00    -0.265 OA
ENDROOT
BRANCH   3   8
ATOM      8  C   UNL d   1     -43.422-122.515 -49.979  0.00  0.00     0.077 A 
ATOM      9  C   UNL d   1     -43.192-121.921 -49.467  0.00  0.00     0.104 A 
ATOM     10  N   UNL d   1     -43.111-122.071 -48.668  0.00  0.00    -0.242 NA
ATOM     11  C   UNL d   1     -43.267-122.838 -48.386  0.00  0.00     0.099 A 
ATOM     12  C   UNL d   1     -43.498-123.435 -48.898  0.00  0.00     0.021 A 
ATOM     13  C   UNL d   1     -43.578-123.283 -49.697  0.00  0.00     0.008 A 
ENDBRANCH   3   8
BRANCH   4  14
ATOM     14  C   UNL d   1     -41.850-122.849 -50.287  0.00  0.00     0.018 A 
ATOM     15  C   UNL d   1     -41.692-122.244 -49.749  0.00  0.00     0.004 A 
ATOM     16  C   UNL d   1     -41.451-122.427 -48.982  0.00  0.00     0.024 A 
ATOM     17  C   UNL d   1     -41.369-123.215 -48.751  0.00  0.00     0.094 A 
ATOM     18  C   UNL d   1     -41.527-123.816 -49.289  0.00  0.00     0.024 A 
ATOM     19  C   UNL d   1     -41.768-123.633 -50.056  0.00  0.00     0.004 A 
BRANCH  17  20
ATOM     20  O   UNL d   1     -41.128-123.398 -47.984  0.00  0.00    -0.328 OA
ATOM     21  C   UNL d   1     -41.123-122.813 -47.403  0.00  0.00     0.181 C 
ENDBRANCH  17  20
ENDBRANCH   4  14
BRANCH   5  22
ATOM     22  C   UNL d   1     -41.840-122.387 -53.164  0.00  0.00     0.019 A 
ATOM     23  C   UNL d   1     -42.050-121.699 -53.582  0.00  0.00     0.002 A 
ATOM     24  C   UNL d   1     -41.797-121.628 -54.385  0.00  0.00     0.007 A 
ATOM     25  C   UNL d   1     -41.361-122.221 -54.732  0.00  0.00     0.035 A 
ATOM     26  C   UNL d   1     -41.151-122.909 -54.313  0.00  0.00     0.007 A 
ATOM     27 BR   UNL d   1     -41.123-122.134 -55.517  0.00  0.00    -0.049 Br
ATOM     28  C   UNL d   1     -41.406-122.979 -53.507  0.00  0.00     0.002 A 
ENDBRANCH   5  22
TORSDOF 4
ENDMDL
