MODEL 1
REMARK VINA RESULT:      13.5      0.000      0.000
REMARK  7 active torsions:
REMARK  status: ('A' for Active; 'I' for Inactive)
REMARK    1  A    between atoms: C_21  and  C_3 
REMARK    2  A    between atoms: S_17  and  C_5 
REMARK    3  A    between atoms: C_11  and  C_16 
REMARK       I    between atoms: N_14  and  C_11 
REMARK    4  A    between atoms: C_19  and  N_14 
REMARK    5  A    between atoms: C_16  and  C_20 
REMARK    6  A    between atoms: C_20  and  S_17 
REMARK    7  A    between atoms: O_27  and  C_22 
ROOT
ATOM      1  C   UNL d   1     -41.710-122.366 -53.924  0.00  0.00     0.092 A 
ATOM      2  C   UNL d   1     -41.771-120.943 -53.783  0.00  0.00     0.057 A 
ATOM      3  C   UNL d   1     -41.924-121.623 -54.220  0.00  0.00     0.016 A 
ATOM      4  N   UNL d   1     -41.189-121.737 -52.751  0.00  0.00    -0.239 NA
ATOM      5  C   UNL d   1     -41.343-122.423 -53.189  0.00  0.00     0.120 A 
ATOM      6  C   UNL d   1     -41.403-121.001 -53.048  0.00  0.00     0.081 A 
ATOM      7  C   UNL d   1     -41.984-120.208 -54.080  0.00  0.00     0.193 A 
ATOM      8  C   UNL d   1     -41.866-123.049 -54.366  0.00  0.00     0.103 C 
ATOM      9  N   UNL d   1     -42.024-123.735 -54.815  0.00  0.00    -0.191 NA
ATOM     10  C   UNL d   1     -41.463-119.583 -52.908  0.00  0.00     0.042 A 
ATOM     11  C   UNL d   1     -41.831-119.526 -53.643  0.00  0.00     0.019 A 
ATOM     12  C   UNL d   1     -41.249-120.322 -52.611  0.00  0.00    -0.003 A 
ATOM     13  O   UNL d   1     -42.352-120.151 -54.815  0.00  0.00    -0.287 OA
ATOM     14  C   UNL d   1     -41.126-119.355 -52.183  0.00  0.00     0.009 C 
ATOM     15  C   UNL d   1     -41.674-118.839 -53.198  0.00  0.00     0.009 C 
ENDROOT
BRANCH   3  16
ATOM     16  C   UNL d   1     -42.292-121.566 -54.955  0.00  0.00     0.001 C 
ATOM     17  C   UNL d   1     -41.842-121.436 -55.632  0.00  0.00     0.000 C 
ENDBRANCH   3  16
BRANCH   5  18
ATOM     18  S   UNL d   1     -41.128-123.164 -52.892  0.00  0.00    -0.067 SA
BRANCH  18  19
ATOM     19  C   UNL d   1     -41.612-123.538 -52.340  0.00  0.00     0.042 C 
BRANCH  19  20
ATOM     20  C   UNL d   1     -41.288-123.817 -51.629  0.00  0.00     0.070 C 
BRANCH  20  21
ATOM     21  C   UNL d   1     -41.594-123.544 -50.905  0.00  0.00     0.280 C 
ATOM     22  N   UNL d   1     -41.264-123.815 -50.194  0.00  0.00    -0.208 NA
ATOM     23  O   UNL d   1     -42.220-123.009 -50.892  0.00  0.00    -0.265 OA
BRANCH  22  24
ATOM     24  C   UNL d   1     -41.569-123.543 -49.470  0.00  0.00     0.085 A 
ATOM     25  C   UNL d   1     -42.308-123.795 -49.208  0.00  0.00     0.021 A 
ATOM     26  C   UNL d   1     -42.603-123.522 -48.491  0.00  0.00     0.026 A 
ATOM     27  C   UNL d   1     -42.169-122.994 -48.026  0.00  0.00     0.094 A 
ATOM     28  C   UNL d   1     -41.431-122.741 -48.288  0.00  0.00     0.026 A 
ATOM     29  C   UNL d   1     -41.125-123.013 -49.012  0.00  0.00     0.021 A 
BRANCH  27  30
ATOM     30  O   UNL d   1     -42.474-122.717 -47.294  0.00  0.00    -0.328 OA
ATOM     31  C   UNL d   1     -43.014-123.182 -46.870  0.00  0.00     0.181 C 
ENDBRANCH  27  30
ENDBRANCH  22  24
ENDBRANCH  20  21
ENDBRANCH  19  20
ENDBRANCH  18  19
ENDBRANCH   5  18
TORSDOF 7
ENDMDL
MODEL 2
REMARK VINA RESULT:      14.5      1.482      2.049
REMARK  7 active torsions:
REMARK  status: ('A' for Active; 'I' for Inactive)
REMARK    1  A    between atoms: C_21  and  C_3 
REMARK    2  A    between atoms: S_17  and  C_5 
REMARK    3  A    between atoms: C_11  and  C_16 
REMARK       I    between atoms: N_14  and  C_11 
REMARK    4  A    between atoms: C_19  and  N_14 
REMARK    5  A    between atoms: C_16  and  C_20 
REMARK    6  A    between atoms: C_20  and  S_17 
REMARK    7  A    between atoms: O_27  and  C_22 
ROOT
ATOM      1  C   UNL d   1     -42.372-122.659 -53.789  0.00  0.00     0.092 A 
ATOM      2  C   UNL d   1     -42.336-122.012 -55.065  0.00  0.00     0.057 A 
ATOM      3  C   UNL d   1     -42.653-122.581 -54.564  0.00  0.00     0.016 A 
ATOM      4  N   UNL d   1     -41.453-121.590 -54.027  0.00  0.00    -0.239 NA
ATOM      5  C   UNL d   1     -41.771-122.163 -53.521  0.00  0.00     0.120 A 
ATOM      6  C   UNL d   1     -41.736-121.515 -54.796  0.00  0.00     0.081 A 
ATOM      7  C   UNL d   1     -42.618-121.937 -55.832  0.00  0.00     0.193 A 
ATOM      8  C   UNL d   1     -42.693-123.234 -53.287  0.00  0.00     0.103 C 
ATOM      9  N   UNL d   1     -43.019-123.815 -52.784  0.00  0.00    -0.191 NA
ATOM     10  C   UNL d   1     -41.700-120.870 -56.067  0.00  0.00     0.042 A 
ATOM     11  C   UNL d   1     -42.301-121.366 -56.336  0.00  0.00     0.019 A 
ATOM     12  C   UNL d   1     -41.418-120.946 -55.296  0.00  0.00    -0.003 A 
ATOM     13  O   UNL d   1     -43.219-122.433 -56.101  0.00  0.00    -0.287 OA
ATOM     14  C   UNL d   1     -41.124-120.271 -56.065  0.00  0.00     0.009 C 
ATOM     15  C   UNL d   1     -41.977-120.787 -56.841  0.00  0.00     0.009 C 
ENDROOT
BRANCH   3  16
ATOM     16  C   UNL d   1     -43.254-123.077 -54.833  0.00  0.00     0.001 C 
ATOM     17  C   UNL d   1     -43.067-123.779 -55.220  0.00  0.00     0.000 C 
ENDBRANCH   3  16
BRANCH   5  18
ATOM     18  S   UNL d   1     -41.488-122.239 -52.748  0.00  0.00    -0.067 SA
BRANCH  18  19
ATOM     19  C   UNL d   1     -41.643-121.647 -52.196  0.00  0.00     0.042 C 
BRANCH  19  20
ATOM     20  C   UNL d   1     -41.195-121.605 -51.499  0.00  0.00     0.070 C 
BRANCH  20  21
ATOM     21  C   UNL d   1     -41.387-122.100 -50.859  0.00  0.00     0.280 C 
ATOM     22  N   UNL d   1     -41.847-121.803 -50.236  0.00  0.00    -0.208 NA
ATOM     23  O   UNL d   1     -41.123-122.880 -50.841  0.00  0.00    -0.265 OA
BRANCH  22  24
ATOM     24  C   UNL d   1     -42.038-122.297 -49.595  0.00  0.00     0.085 A 
ATOM     25  C   UNL d   1     -42.363-123.043 -49.727  0.00  0.00     0.021 A 
ATOM     26  C   UNL d   1     -42.550-123.526 -49.089  0.00  0.00     0.026 A 
ATOM     27  C   UNL d   1     -42.417-123.275 -48.312  0.00  0.00     0.094 A 
ATOM     28  C   UNL d   1     -42.093-122.529 -48.180  0.00  0.00     0.026 A 
ATOM     29  C   UNL d   1     -41.901-122.034 -48.820  0.00  0.00     0.021 A 
BRANCH  27  30
ATOM     30  O   UNL d   1     -42.610-123.771 -47.663  0.00  0.00    -0.328 OA
ATOM     31  C   UNL d   1     -42.227-123.665 -46.935  0.00  0.00     0.181 C 
ENDBRANCH  27  30
ENDBRANCH  22  24
ENDBRANCH  20  21
ENDBRANCH  19  20
ENDBRANCH  18  19
ENDBRANCH   5  18
TORSDOF 7
ENDMDL
MODEL 3
REMARK VINA RESULT:      15.3      1.859      5.402
REMARK  7 active torsions:
REMARK  status: ('A' for Active; 'I' for Inactive)
REMARK    1  A    between atoms: C_21  and  C_3 
REMARK    2  A    between atoms: S_17  and  C_5 
REMARK    3  A    between atoms: C_11  and  C_16 
REMARK       I    between atoms: N_14  and  C_11 
REMARK    4  A    between atoms: C_19  and  N_14 
REMARK    5  A    between atoms: C_16  and  C_20 
REMARK    6  A    between atoms: C_20  and  S_17 
REMARK    7  A    between atoms: O_27  and  C_22 
ROOT
ATOM      1  C   UNL d   1     -42.242-123.090 -49.258  0.00  0.00     0.092 A 
ATOM      2  C   UNL d   1     -43.468-122.368 -49.417  0.00  0.00     0.057 A 
ATOM      3  C   UNL d   1     -42.911-122.728 -48.931  0.00  0.00     0.016 A 
ATOM      4  N   UNL d   1     -42.698-122.725 -50.564  0.00  0.00    -0.239 NA
ATOM      5  C   UNL d   1     -42.135-123.089 -50.075  0.00  0.00     0.120 A 
ATOM      6  C   UNL d   1     -43.361-122.367 -50.234  0.00  0.00     0.081 A 
ATOM      7  C   UNL d   1     -44.130-122.010 -49.089  0.00  0.00     0.193 A 
ATOM      8  C   UNL d   1     -41.683-123.452 -48.766  0.00  0.00     0.103 C 
ATOM      9  N   UNL d   1     -41.123-123.816 -48.266  0.00  0.00    -0.191 NA
ATOM     10  C   UNL d   1     -44.582-121.647 -50.393  0.00  0.00     0.042 A 
ATOM     11  C   UNL d   1     -44.688-121.649 -49.576  0.00  0.00     0.019 A 
ATOM     12  C   UNL d   1     -43.916-122.007 -50.722  0.00  0.00    -0.003 A 
ATOM     13  O   UNL d   1     -44.237-122.012 -48.272  0.00  0.00    -0.287 OA
ATOM     14  C   UNL d   1     -44.722-121.503 -51.200  0.00  0.00     0.009 C 
ATOM     15  C   UNL d   1     -45.250-121.284 -50.072  0.00  0.00     0.009 C 
ENDROOT
BRANCH   3  16
ATOM     16  C   UNL d   1     -43.018-122.730 -48.114  0.00  0.00     0.001 C 
ATOM     17  C   UNL d   1     -43.360-123.380 -47.744  0.00  0.00     0.000 C 
ENDBRANCH   3  16
BRANCH   5  18
ATOM     18  S   UNL d   1     -41.469-123.449 -50.404  0.00  0.00    -0.067 SA
BRANCH  18  19
ATOM     19  C   UNL d   1     -41.431-123.574 -51.218  0.00  0.00     0.042 C 
BRANCH  19  20
ATOM     20  C   UNL d   1     -41.123-122.985 -51.713  0.00  0.00     0.070 C 
BRANCH  20  21
ATOM     21  C   UNL d   1     -41.371-122.944 -52.506  0.00  0.00     0.280 C 
ATOM     22  N   UNL d   1     -41.308-122.227 -52.917  0.00  0.00    -0.208 NA
ATOM     23  O   UNL d   1     -41.676-123.610 -52.881  0.00  0.00    -0.265 OA
BRANCH  22  24
ATOM     24  C   UNL d   1     -41.556-122.186 -53.710  0.00  0.00     0.085 A 
ATOM     25  C   UNL d   1     -41.310-122.754 -54.253  0.00  0.00     0.021 A 
ATOM     26  C   UNL d   1     -41.559-122.707 -55.035  0.00  0.00     0.026 A 
ATOM     27  C   UNL d   1     -42.055-122.095 -55.287  0.00  0.00     0.094 A 
ATOM     28  C   UNL d   1     -42.300-121.527 -54.744  0.00  0.00     0.026 A 
ATOM     29  C   UNL d   1     -42.053-121.567 -53.951  0.00  0.00     0.021 A 
BRANCH  27  30
ATOM     30  O   UNL d   1     -42.307-122.050 -56.087  0.00  0.00    -0.328 OA
ATOM     31  C   UNL d   1     -42.990-122.454 -56.327  0.00  0.00     0.181 C 
ENDBRANCH  27  30
ENDBRANCH  22  24
ENDBRANCH  20  21
ENDBRANCH  19  20
ENDBRANCH  18  19
ENDBRANCH   5  18
TORSDOF 7
ENDMDL
