MODEL 1
REMARK VINA RESULT:       4.9      0.000      0.000
REMARK  1 active torsions:
REMARK  status: ('A' for Active; 'I' for Inactive)
REMARK    1  A    between atoms: C_2  and  C_1 
ROOT
ATOM      1  C   UNL d   1      60.703  49.707  51.213  0.00  0.00     0.169 A 
ATOM      2  N   UNL d   1      61.251  49.706  50.608  0.00  0.00    -0.142 NA
ATOM      3  N   UNL d   1      60.849  49.705  49.886  0.00  0.00    -0.146 NA
ATOM      4  C   UNL d   1      59.948  49.707  50.880  0.00  0.00     0.050 A 
ATOM      5  C   UNL d   1      60.038  49.706  50.061  0.00  0.00     0.124 A 
ENDROOT
BRANCH   1   6
ATOM      6  C   UNL d   1      60.870  49.707  52.023  0.00  0.00     0.231 C 
ATOM      7  O   UNL d   1      61.653  49.708  52.280  0.00  0.00    -0.643 OA
ATOM      8  O   UNL d   1      60.256  49.708  52.570  0.00  0.00    -0.643 OA
ENDBRANCH   1   6
TORSDOF 1
ENDMDL
MODEL 2
REMARK VINA RESULT:       5.5      1.522      2.062
REMARK  1 active torsions:
REMARK  status: ('A' for Active; 'I' for Inactive)
REMARK    1  A    between atoms: C_2  and  C_1 
ROOT
ATOM      1  C   UNL d   1      60.539  49.700  51.069  0.00  0.00     0.169 A 
ATOM      2  N   UNL d   1      61.284  49.695  51.401  0.00  0.00    -0.142 NA
ATOM      3  N   UNL d   1      61.210  49.699  52.224  0.00  0.00    -0.146 NA
ATOM      4  C   UNL d   1      59.984  49.708  51.680  0.00  0.00     0.050 A 
ATOM      5  C   UNL d   1      60.398  49.707  52.393  0.00  0.00     0.124 A 
ENDROOT
BRANCH   1   6
ATOM      6  C   UNL d   1      60.363  49.699  50.261  0.00  0.00     0.231 C 
ATOM      7  O   UNL d   1      59.577  49.689  50.013  0.00  0.00    -0.643 OA
ATOM      8  O   UNL d   1      60.970  49.706  49.707  0.00  0.00    -0.643 OA
ENDBRANCH   1   6
TORSDOF 1
ENDMDL
MODEL 3
REMARK VINA RESULT:       6.3      3.476      3.891
REMARK  1 active torsions:
REMARK  status: ('A' for Active; 'I' for Inactive)
REMARK    1  A    between atoms: C_2  and  C_1 
ROOT
ATOM      1  C   UNL d   1      57.350  49.681  49.863  0.00  0.00     0.169 A 
ATOM      2  N   UNL d   1      56.799  49.637  50.463  0.00  0.00    -0.142 NA
ATOM      3  N   UNL d   1      56.043  49.636  50.130  0.00  0.00    -0.146 NA
ATOM      4  C   UNL d   1      56.948  49.708  49.143  0.00  0.00     0.050 A 
ATOM      5  C   UNL d   1      56.141  49.680  49.307  0.00  0.00     0.124 A 
ENDROOT
BRANCH   1   6
ATOM      6  C   UNL d   1      58.172  49.695  49.954  0.00  0.00     0.231 C 
ATOM      7  O   UNL d   1      58.500  49.701  50.711  0.00  0.00    -0.643 OA
ATOM      8  O   UNL d   1      58.660  49.704  49.293  0.00  0.00    -0.643 OA
ENDBRANCH   1   6
TORSDOF 1
ENDMDL
