MODEL 1
REMARK VINA RESULT:      49.1      0.000      0.000
REMARK  7 active torsions:
REMARK  status: ('A' for Active; 'I' for Inactive)
REMARK    1  A    between atoms: S_7  and  C_1 
REMARK    2  A    between atoms: C_6  and  C_8 
REMARK       I    between atoms: N_10  and  C_6 
REMARK    3  A    between atoms: C_13  and  S_7 
REMARK    4  A    between atoms: C_21  and  N_10 
REMARK    5  A    between atoms: C_14  and  C_13 
REMARK    6  A    between atoms: C_17  and  C_21 
REMARK    7  A    between atoms: C_22  and  C_17 
ROOT
ATOM      1  C   UNL d   1      13.636  14.853  -4.098  0.00  0.00     0.058 A 
ATOM      2  C   UNL d   1      13.019  14.929  -4.626  0.00  0.00     0.005 A 
ATOM      3  C   UNL d   1      14.354  15.264  -4.242  0.00  0.00     0.005 A 
ATOM      4  C   UNL d   1      13.808  15.813  -5.444  0.00  0.00     0.007 A 
ATOM      5  C   UNL d   1      14.437  15.726  -4.890  0.00  0.00     0.001 A 
ATOM      6  C   UNL d   1      13.105  15.403  -5.291  0.00  0.00     0.001 A 
ENDROOT
BRANCH   4   7
ATOM      7  C   UNL d   1      13.891  16.275  -6.092  0.00  0.00     0.038 C 
BRANCH   7   8
ATOM      8  S   UNL d   1      13.260  16.775  -6.340  0.00  0.00    -0.048 SA
BRANCH   8   9
ATOM      9  C   UNL d   1      13.360  17.601  -6.351  0.00  0.00     0.194 A 
ATOM     10  N   UNL d   1      14.087  17.993  -6.354  0.00  0.00    -0.220 NA
ATOM     11  C   UNL d   1      13.931  18.796  -6.366  0.00  0.00     0.101 A 
ATOM     12  C   UNL d   1      14.411  19.450  -6.373  0.00  0.00     0.021 A 
ATOM     13  C   UNL d   1      13.111  18.895  -6.370  0.00  0.00     0.101 A 
ATOM     14  C   UNL d   1      14.098  20.178  -6.384  0.00  0.00     0.002 A 
ATOM     15  C   UNL d   1      13.278  20.277  -6.389  0.00  0.00     0.002 A 
ATOM     16  C   UNL d   1      12.770  19.648  -6.382  0.00  0.00     0.021 A 
ATOM     17  N   UNL d   1      12.769  18.152  -6.361  0.00  0.00    -0.220 NA
ENDBRANCH   8   9
ENDBRANCH   7   8
ENDBRANCH   4   7
BRANCH   1  18
ATOM     18  C   UNL d   1      13.520  14.368  -3.437  0.00  0.00     0.279 C 
ATOM     19  O   UNL d   1      13.501  14.712  -2.685  0.00  0.00    -0.265 OA
ATOM     20  N   UNL d   1      13.424  13.554  -3.519  0.00  0.00    -0.206 NA
BRANCH  20  21
ATOM     21  C   UNL d   1      13.442  13.207  -4.266  0.00  0.00     0.106 C 
BRANCH  21  22
ATOM     22  C   UNL d   1      13.546  12.387  -4.342  0.00  0.00     0.066 C 
BRANCH  22  23
ATOM     23  C   UNL d   1      12.938  11.923  -4.633  0.00  0.00     0.236 C 
ATOM     24  O   UNL d   1      12.874  11.780  -5.447  0.00  0.00    -0.283 OA
ENDBRANCH  22  23
ENDBRANCH  21  22
ENDBRANCH  20  21
ENDBRANCH   1  18
TORSDOF 7
ENDMDL
MODEL 2
REMARK VINA RESULT:      49.8      3.457      6.406
REMARK  7 active torsions:
REMARK  status: ('A' for Active; 'I' for Inactive)
REMARK    1  A    between atoms: S_7  and  C_1 
REMARK    2  A    between atoms: C_6  and  C_8 
REMARK       I    between atoms: N_10  and  C_6 
REMARK    3  A    between atoms: C_13  and  S_7 
REMARK    4  A    between atoms: C_21  and  N_10 
REMARK    5  A    between atoms: C_14  and  C_13 
REMARK    6  A    between atoms: C_17  and  C_21 
REMARK    7  A    between atoms: C_22  and  C_17 
ROOT
ATOM      1  C   UNL d   1      15.280  16.950  -1.713  0.00  0.00     0.058 A 
ATOM      2  C   UNL d   1      16.002  16.595  -1.580  0.00  0.00     0.005 A 
ATOM      3  C   UNL d   1      14.613  16.704  -1.267  0.00  0.00     0.005 A 
ATOM      4  C   UNL d   1      15.419  15.753  -0.567  0.00  0.00     0.007 A 
ATOM      5  C   UNL d   1      14.680  16.129  -0.715  0.00  0.00     0.001 A 
ATOM      6  C   UNL d   1      16.070  16.004  -1.014  0.00  0.00     0.001 A 
ENDROOT
BRANCH   4   7
ATOM      7  C   UNL d   1      15.486  15.178  -0.016  0.00  0.00     0.038 C 
BRANCH   7   8
ATOM      8  S   UNL d   1      15.819  14.431  -0.220  0.00  0.00    -0.048 SA
BRANCH   8   9
ATOM      9  C   UNL d   1      15.327  13.803  -0.455  0.00  0.00     0.194 A 
ATOM     10  N   UNL d   1      15.370  13.409  -1.179  0.00  0.00    -0.220 NA
ATOM     11  C   UNL d   1      14.789  12.833  -1.179  0.00  0.00     0.101 A 
ATOM     12  C   UNL d   1      14.562  12.279  -1.726  0.00  0.00     0.021 A 
ATOM     13  C   UNL d   1      14.391  12.875  -0.456  0.00  0.00     0.101 A 
ATOM     14  C   UNL d   1      13.965  11.781  -1.571  0.00  0.00     0.002 A 
ATOM     15  C   UNL d   1      13.568  11.823  -0.848  0.00  0.00     0.002 A 
ATOM     16  C   UNL d   1      13.767  12.363  -0.279  0.00  0.00     0.021 A 
ATOM     17  N   UNL d   1      14.731  13.476  -0.017  0.00  0.00    -0.220 NA
ENDBRANCH   8   9
ENDBRANCH   7   8
ENDBRANCH   4   7
BRANCH   1  18
ATOM     18  C   UNL d   1      15.242  17.543  -2.290  0.00  0.00     0.279 C 
ATOM     19  O   UNL d   1      15.333  18.332  -2.061  0.00  0.00    -0.265 OA
ATOM     20  N   UNL d   1      15.115  17.356  -3.083  0.00  0.00    -0.206 NA
BRANCH  20  21
ATOM     21  C   UNL d   1      15.024  16.572  -3.315  0.00  0.00     0.106 C 
BRANCH  21  22
ATOM     22  C   UNL d   1      14.828  16.390  -4.101  0.00  0.00     0.066 C 
BRANCH  22  23
ATOM     23  C   UNL d   1      14.236  15.847  -4.260  0.00  0.00     0.236 C 
ATOM     24  O   UNL d   1      14.260  15.393  -4.952  0.00  0.00    -0.283 OA
ENDBRANCH  22  23
ENDBRANCH  21  22
ENDBRANCH  20  21
ENDBRANCH   1  18
TORSDOF 7
ENDMDL
MODEL 3
REMARK VINA RESULT:      51.2      2.120      5.750
REMARK  7 active torsions:
REMARK  status: ('A' for Active; 'I' for Inactive)
REMARK    1  A    between atoms: S_7  and  C_1 
REMARK    2  A    between atoms: C_6  and  C_8 
REMARK       I    between atoms: N_10  and  C_6 
REMARK    3  A    between atoms: C_13  and  S_7 
REMARK    4  A    between atoms: C_21  and  N_10 
REMARK    5  A    between atoms: C_14  and  C_13 
REMARK    6  A    between atoms: C_17  and  C_21 
REMARK    7  A    between atoms: C_22  and  C_17 
ROOT
ATOM      1  C   UNL d   1      14.738  17.808  -5.222  0.00  0.00     0.058 A 
ATOM      2  C   UNL d   1      14.909  17.373  -4.553  0.00  0.00     0.005 A 
ATOM      3  C   UNL d   1      14.247  17.473  -5.815  0.00  0.00     0.005 A 
ATOM      4  C   UNL d   1      14.115  16.276  -5.043  0.00  0.00     0.007 A 
ATOM      5  C   UNL d   1      13.947  16.736  -5.729  0.00  0.00     0.001 A 
ATOM      6  C   UNL d   1      14.601  16.617  -4.465  0.00  0.00     0.001 A 
ENDROOT
BRANCH   4   7
ATOM      7  C   UNL d   1      13.815  15.540  -4.958  0.00  0.00     0.038 C 
BRANCH   7   8
ATOM      8  S   UNL d   1      13.904  15.128  -4.228  0.00  0.00    -0.048 SA
BRANCH   8   9
ATOM      9  C   UNL d   1      13.671  14.332  -4.165  0.00  0.00     0.194 A 
ATOM     10  N   UNL d   1      13.808  13.846  -3.512  0.00  0.00    -0.220 NA
ATOM     11  C   UNL d   1      13.489  13.112  -3.683  0.00  0.00     0.101 A 
ATOM     12  C   UNL d   1      13.451  12.417  -3.265  0.00  0.00     0.021 A 
ATOM     13  C   UNL d   1      13.159  13.149  -4.439  0.00  0.00     0.101 A 
ATOM     14  C   UNL d   1      13.100  11.779  -3.578  0.00  0.00     0.002 A 
ATOM     15  C   UNL d   1      12.769  11.817  -4.334  0.00  0.00     0.002 A 
ATOM     16  C   UNL d   1      12.789  12.492  -4.778  0.00  0.00     0.021 A 
ATOM     17  N   UNL d   1      13.277  13.906  -4.727  0.00  0.00    -0.220 NA
ENDBRANCH   8   9
ENDBRANCH   7   8
ENDBRANCH   4   7
BRANCH   1  18
ATOM     18  C   UNL d   1      15.063  18.567  -5.282  0.00  0.00     0.279 C 
ATOM     19  O   UNL d   1      15.822  18.703  -4.984  0.00  0.00    -0.265 OA
ATOM     20  N   UNL d   1      14.641  19.182  -5.632  0.00  0.00    -0.206 NA
BRANCH  20  21
ATOM     21  C   UNL d   1      13.886  19.051  -5.930  0.00  0.00     0.106 C 
BRANCH  21  22
ATOM     22  C   UNL d   1      13.344  19.678  -5.985  0.00  0.00     0.066 C 
BRANCH  22  23
ATOM     23  C   UNL d   1      13.557  20.369  -6.371  0.00  0.00     0.236 C 
ATOM     24  O   UNL d   1      13.038  21.014  -6.387  0.00  0.00    -0.283 OA
ENDBRANCH  22  23
ENDBRANCH  21  22
ENDBRANCH  20  21
ENDBRANCH   1  18
TORSDOF 7
ENDMDL
