MODEL 1
REMARK VINA RESULT:       7.6      0.000      0.000
REMARK  9 active torsions:
REMARK  status: ('A' for Active; 'I' for Inactive)
REMARK    1  A    between atoms: P_3  and  C_1 
REMARK    2  A    between atoms: O_13  and  P_3 
REMARK    3  A    between atoms: O_14  and  P_3 
REMARK    4  A    between atoms: N_8  and  C_4 
REMARK    5  A    between atoms: C_15  and  N_8 
REMARK    6  A    between atoms: C_25  and  O_13 
REMARK    7  A    between atoms: C_26  and  O_14 
REMARK    8  A    between atoms: O_23  and  C_16 
REMARK    9  A    between atoms: O_24  and  C_17 
ROOT
ATOM      1  C   UNL d   1     -41.721-122.322 -53.446  0.00  0.00     0.174 A 
ATOM      2  C   UNL d   1     -41.523-122.700 -52.731  0.00  0.00     0.100 A 
ATOM      3  C   UNL d   1     -41.364-122.249 -52.057  0.00  0.00     0.095 A 
ATOM      4  N   UNL d   1     -41.759-121.498 -53.480  0.00  0.00    -0.237 NA
ATOM      5  C   UNL d   1     -41.402-121.428 -52.093  0.00  0.00     0.038 A 
ATOM      6  C   UNL d   1     -41.601-121.051 -52.808  0.00  0.00     0.083 A 
ATOM      7  C   UNL d   1     -41.244-120.984 -51.423  0.00  0.00     0.027 A 
ATOM      8 CL   UNL d   1     -41.486-123.528 -52.699  0.00  0.00    -0.079 Cl
ATOM      9  C   UNL d   1     -41.639-120.230 -52.843  0.00  0.00     0.021 A 
ATOM     10  C   UNL d   1     -41.281-120.152 -51.453  0.00  0.00     0.094 A 
ATOM     11  C   UNL d   1     -41.480-119.782 -52.172  0.00  0.00     0.026 A 
ENDROOT
BRANCH   3  12
ATOM     12  N   UNL d   1     -41.167-122.625 -51.345  0.00  0.00    -0.245 NA
BRANCH  12  13
ATOM     13  C   UNL d   1     -41.750-122.774 -50.774  0.00  0.00     0.082 A 
ATOM     14  C   UNL d   1     -41.729-122.370 -50.058  0.00  0.00     0.021 A 
ATOM     15  C   UNL d   1     -42.309-122.513 -49.477  0.00  0.00     0.026 A 
ATOM     16  C   UNL d   1     -42.907-123.067 -49.628  0.00  0.00     0.094 A 
ATOM     17  C   UNL d   1     -42.923-123.474 -50.356  0.00  0.00     0.026 A 
ATOM     18  C   UNL d   1     -42.344-123.325 -50.924  0.00  0.00     0.021 A 
BRANCH  16  19
ATOM     19  O   UNL d   1     -43.485-123.211 -49.055  0.00  0.00    -0.328 OA
ATOM     20  C   UNL d   1     -43.317-123.727 -48.424  0.00  0.00     0.181 C 
ENDBRANCH  16  19
ENDBRANCH  12  13
ENDBRANCH   3  12
BRANCH   1  21
ATOM     21  P   UNL d   1     -41.882-122.775 -54.125  0.00  0.00     0.393 P 
ATOM     22  O   UNL d   1     -41.200-123.218 -53.983  0.00  0.00    -0.251 OA
BRANCH  21  23
ATOM     23  O   UNL d   1     -42.066-123.206 -54.804  0.00  0.00    -0.263 OA
BRANCH  23  24
ATOM     24  C   UNL d   1     -41.572-123.817 -55.055  0.00  0.00     0.126 C 
ATOM     25  C   UNL d   1     -41.209-123.783 -55.795  0.00  0.00     0.029 C 
ENDBRANCH  23  24
ENDBRANCH  21  23
BRANCH  21  26
ATOM     26  O   UNL d   1     -42.587-122.453 -54.432  0.00  0.00    -0.263 OA
BRANCH  26  27
ATOM     27  C   UNL d   1     -42.574-121.999 -55.121  0.00  0.00     0.126 C 
ATOM     28  C   UNL d   1     -42.979-122.253 -55.793  0.00  0.00     0.029 C 
ENDBRANCH  26  27
ENDBRANCH  21  26
ENDBRANCH   1  21
BRANCH  10  29
ATOM     29  O   UNL d   1     -41.123-119.705 -50.782  0.00  0.00    -0.328 OA
ATOM     30  C   UNL d   1     -41.271-118.896 -50.783  0.00  0.00     0.181 C 
ENDBRANCH  10  29
TORSDOF 9
ENDMDL
