MODEL 1
REMARK VINA RESULT:      68.2      0.000      0.000
REMARK  9 active torsions:
REMARK  status: ('A' for Active; 'I' for Inactive)
REMARK    1  A    between atoms: C_14  and  N_1 
REMARK    2  A    between atoms: C_8  and  C_2 
REMARK    3  A    between atoms: C_3  and  N_11 
REMARK    4  A    between atoms: S_16  and  C_4 
REMARK    5  A    between atoms: C_10  and  C_8 
REMARK       I    between atoms: N_11  and  C_17 
REMARK    6  A    between atoms: C_23  and  C_14 
REMARK    7  A    between atoms: C_22  and  S_16 
REMARK    8  A    between atoms: C_17  and  C_22 
REMARK    9  A    between atoms: C_25  and  C_23 
ROOT
ATOM      1  N   UNL d   1      13.846  15.125  -3.649  0.00  0.00    -0.268 N 
ATOM      2  C   UNL d   1      13.481  14.458  -3.973  0.00  0.00     0.172 A 
ATOM      3  C   UNL d   1      14.041  15.638  -4.265  0.00  0.00     0.201 A 
ATOM      4  N   UNL d   1      13.450  14.558  -4.788  0.00  0.00    -0.128 NA
ATOM      5  N   UNL d   1      13.794  15.284  -4.976  0.00  0.00    -0.121 NA
ENDROOT
BRANCH   3   6
ATOM      6  S   UNL d   1      14.411  16.366  -4.194  0.00  0.00    -0.043 SA
BRANCH   6   7
ATOM      7  C   UNL d   1      14.728  16.737  -4.859  0.00  0.00     0.101 C 
BRANCH   7   8
ATOM      8  C   UNL d   1      14.684  17.559  -4.933  0.00  0.00     0.288 C 
ATOM      9  N   UNL d   1      14.635  17.898  -5.678  0.00  0.00    -0.182 NA
ATOM     10  O   UNL d   1      14.689  18.035  -4.260  0.00  0.00    -0.265 OA
BRANCH   9  11
ATOM     11  C   UNL d   1      14.591  18.712  -5.757  0.00  0.00     0.197 A 
ATOM     12  N   UNL d   1      14.003  19.132  -6.161  0.00  0.00    -0.221 NA
ATOM     13  C   UNL d   1      14.175  19.933  -6.101  0.00  0.00     0.090 A 
ATOM     14  C   UNL d   1      13.794  20.598  -6.388  0.00  0.00     0.020 A 
ATOM     15  C   UNL d   1      14.869  20.019  -5.661  0.00  0.00     0.050 A 
ATOM     16  C   UNL d   1      14.098  21.351  -6.240  0.00  0.00     0.002 A 
ATOM     17  C   UNL d   1      14.794  21.429  -5.798  0.00  0.00     0.001 A 
ATOM     18  C   UNL d   1      15.173  20.771  -5.513  0.00  0.00     0.008 A 
ATOM     19  S   UNL d   1      15.137  19.266  -5.442  0.00  0.00    -0.047 SA
ENDBRANCH   9  11
ENDBRANCH   7   8
ENDBRANCH   6   7
ENDBRANCH   3   6
BRANCH   1  20
ATOM     20  C   UNL d   1      13.990  15.255  -2.847  0.00  0.00     0.084 C 
BRANCH  20  21
ATOM     21  C   UNL d   1      14.775  15.279  -2.565  0.00  0.00     0.019 C 
BRANCH  21  22
ATOM     22  C   UNL d   1      14.923  15.410  -1.760  0.00  0.00     0.002 A 
ATOM     23  C   UNL d   1      14.762  14.817  -1.219  0.00  0.00     0.000 A 
ATOM     24  C   UNL d   1      14.911  14.951  -0.419  0.00  0.00     0.000 A 
ATOM     25  C   UNL d   1      15.221  15.680  -0.172  0.00  0.00     0.000 A 
ATOM     26  C   UNL d   1      15.382  16.274  -0.725  0.00  0.00     0.000 A 
ATOM     27  C   UNL d   1      15.228  16.129  -1.522  0.00  0.00     0.000 A 
ENDBRANCH  21  22
ENDBRANCH  20  21
ENDBRANCH   1  20
BRANCH   2  28
ATOM     28  C   UNL d   1      13.197  13.806  -3.553  0.00  0.00     0.057 C 
BRANCH  28  29
ATOM     29  C   UNL d   1      13.072  13.090  -3.936  0.00  0.00     0.067 A 
ATOM     30  N   UNL d   1      13.169  12.335  -3.612  0.00  0.00    -0.303 N 
ATOM     31  C   UNL d   1      12.982  11.780  -4.193  0.00  0.00     0.080 A 
ATOM     32  C   UNL d   1      13.412  12.174  -2.841  0.00  0.00     0.100 C 
ATOM     33  C   UNL d   1      12.769  12.183  -4.876  0.00  0.00     0.021 A 
ATOM     34  C   UNL d   1      12.822  12.991  -4.723  0.00  0.00     0.019 A 
ENDBRANCH  28  29
ENDBRANCH   2  28
TORSDOF 9
ENDMDL
