MODEL 1
REMARK VINA RESULT:      50.7      0.000      0.000
REMARK  5 active torsions:
REMARK  status: ('A' for Active; 'I' for Inactive)
REMARK    1  A    between atoms: N_2  and  S_1 
REMARK    2  A    between atoms: C_9  and  S_1 
REMARK    3  A    between atoms: C_8  and  N_2 
REMARK       I    between atoms: C_14  and  N_2 
REMARK    4  A    between atoms: C_17  and  C_3 
REMARK    5  A    between atoms: N_6  and  C_5 
ROOT
ATOM      1  N   UNL d   1      14.845  13.076  -1.062  0.00  0.00    -0.198 N 
ATOM      2  C   UNL d   1      15.317  12.609  -0.551  0.00  0.00     0.274 C 
ATOM      3  O   UNL d   1      15.245  11.779  -0.563  0.00  0.00    -0.266 OA
ATOM      4  C   UNL d   1      15.859  12.955  -0.029  0.00  0.00     0.067 C 
ENDROOT
BRANCH   1   5
ATOM      5  S   UNL d   1      14.934  13.917  -1.033  0.00  0.00     0.274 S 
ATOM      6  O   UNL d   1      14.511  13.923  -0.330  0.00  0.00    -0.200 OA
ATOM      7  O   UNL d   1      15.370  13.902  -1.760  0.00  0.00    -0.200 OA
BRANCH   5   8
ATOM      8  C   UNL d   1      15.010  14.734  -0.987  0.00  0.00     0.106 A 
ATOM      9  C   UNL d   1      15.004  15.186  -1.650  0.00  0.00     0.037 A 
ATOM     10  C   UNL d   1      15.079  16.013  -1.631  0.00  0.00     0.138 A 
ATOM     11  C   UNL d   1      15.167  16.379  -0.837  0.00  0.00     0.080 A 
ATOM     12  C   UNL d   1      15.171  15.898  -0.167  0.00  0.00     0.014 A 
ATOM     13 CL   UNL d   1      15.246  17.204  -0.745  0.00  0.00    -0.081 Cl
ATOM     14  C   UNL d   1      15.093  15.092  -0.248  0.00  0.00     0.014 A 
BRANCH  10  15
ATOM     15  N   UNL d   1      15.071  16.473  -2.323  0.00  0.00    -0.113 N 
ATOM     16  O   UNL d   1      14.413  16.384  -2.830  0.00  0.00    -0.532 OA
ATOM     17  O   UNL d   1      15.660  16.987  -2.516  0.00  0.00    -0.532 OA
ENDBRANCH  10  15
ENDBRANCH   5   8
ENDBRANCH   1   5
BRANCH   1  18
ATOM     18  C   UNL d   1      14.311  12.722  -1.575  0.00  0.00     0.078 A 
ATOM     19  C   UNL d   1      14.320  12.921  -2.337  0.00  0.00     0.021 A 
ATOM     20  C   UNL d   1      13.790  12.579  -2.883  0.00  0.00     0.029 A 
ATOM     21  C   UNL d   1      13.686  12.685  -3.680  0.00  0.00     0.064 A 
ATOM     22  C   UNL d   1      13.243  12.020  -2.632  0.00  0.00     0.100 A 
ATOM     23  C   UNL d   1      13.081  12.199  -3.930  0.00  0.00     0.103 A 
ATOM     24  C   UNL d   1      12.771  12.109  -4.689  0.00  0.00     0.027 C 
ATOM     25  O   UNL d   1      12.806  11.786  -3.276  0.00  0.00    -0.307 OA
ATOM     26  C   UNL d   1      13.209  11.788  -1.827  0.00  0.00     0.026 A 
ATOM     27  C   UNL d   1      13.734  12.133  -1.310  0.00  0.00     0.020 A 
BRANCH  21  28
ATOM     28  C   UNL d   1      14.123  13.203  -4.172  0.00  0.00     0.198 C 
ATOM     29  O   UNL d   1      14.171  14.003  -4.018  0.00  0.00    -0.286 OA
ATOM     30  C   UNL d   1      14.520  12.872  -4.845  0.00  0.00     0.045 C 
ENDBRANCH  21  28
ENDBRANCH   1  18
TORSDOF 5
ENDMDL
MODEL 2
REMARK VINA RESULT:      53.0      1.674      3.266
REMARK  5 active torsions:
REMARK  status: ('A' for Active; 'I' for Inactive)
REMARK    1  A    between atoms: N_2  and  S_1 
REMARK    2  A    between atoms: C_9  and  S_1 
REMARK    3  A    between atoms: C_8  and  N_2 
REMARK       I    between atoms: C_14  and  N_2 
REMARK    4  A    between atoms: C_17  and  C_3 
REMARK    5  A    between atoms: N_6  and  C_5 
ROOT
ATOM      1  N   UNL d   1      13.371  13.028  -3.923  0.00  0.00    -0.198 N 
ATOM      2  C   UNL d   1      13.121  12.577  -4.583  0.00  0.00     0.274 C 
ATOM      3  O   UNL d   1      12.900  11.780  -4.483  0.00  0.00    -0.266 OA
ATOM      4  C   UNL d   1      13.087  12.908  -5.343  0.00  0.00     0.067 C 
ENDROOT
BRANCH   1   5
ATOM      5  S   UNL d   1      13.590  13.835  -4.048  0.00  0.00     0.274 S 
ATOM      6  O   UNL d   1      12.885  14.066  -3.699  0.00  0.00    -0.200 OA
ATOM      7  O   UNL d   1      14.318  13.588  -4.408  0.00  0.00    -0.200 OA
BRANCH   5   8
ATOM      8  C   UNL d   1      13.786  14.626  -4.161  0.00  0.00     0.106 A 
ATOM      9  C   UNL d   1      14.153  15.045  -3.584  0.00  0.00     0.037 A 
ATOM     10  C   UNL d   1      14.362  15.844  -3.672  0.00  0.00     0.138 A 
ATOM     11  C   UNL d   1      14.159  16.218  -4.441  0.00  0.00     0.080 A 
ATOM     12  C   UNL d   1      13.781  15.770  -5.022  0.00  0.00     0.014 A 
ATOM     13 CL   UNL d   1      14.339  17.016  -4.597  0.00  0.00    -0.081 Cl
ATOM     14  C   UNL d   1      13.602  14.990  -4.878  0.00  0.00     0.014 A 
BRANCH  10  15
ATOM     15  N   UNL d   1      14.742  16.271  -3.069  0.00  0.00    -0.113 N 
ATOM     16  O   UNL d   1      15.578  16.248  -3.057  0.00  0.00    -0.532 OA
ATOM     17  O   UNL d   1      14.344  16.694  -2.511  0.00  0.00    -0.532 OA
ENDBRANCH  10  15
ENDBRANCH   5   8
ENDBRANCH   1   5
BRANCH   1  18
ATOM     18  C   UNL d   1      13.400  12.689  -3.176  0.00  0.00     0.078 A 
ATOM     19  C   UNL d   1      14.022  12.830  -2.714  0.00  0.00     0.021 A 
ATOM     20  C   UNL d   1      14.081  12.501  -1.949  0.00  0.00     0.029 A 
ATOM     21  C   UNL d   1      14.650  12.557  -1.375  0.00  0.00     0.064 A 
ATOM     22  C   UNL d   1      13.483  12.017  -1.661  0.00  0.00     0.100 A 
ATOM     23  C   UNL d   1      14.415  12.115  -0.731  0.00  0.00     0.103 A 
ATOM     24  C   UNL d   1      14.804  11.999  -0.014  0.00  0.00     0.027 C 
ATOM     25  O   UNL d   1      13.688  11.779  -0.912  0.00  0.00    -0.307 OA
ATOM     26  C   UNL d   1      12.808  11.849  -2.130  0.00  0.00     0.026 A 
ATOM     27  C   UNL d   1      12.769  12.179  -2.872  0.00  0.00     0.020 A 
BRANCH  21  28
ATOM     28  C   UNL d   1      15.363  12.994  -1.424  0.00  0.00     0.198 C 
ATOM     29  O   UNL d   1      15.941  12.812  -1.970  0.00  0.00    -0.286 OA
ATOM     30  C   UNL d   1      15.470  13.640  -0.886  0.00  0.00     0.045 C 
ENDBRANCH  21  28
ENDBRANCH   1  18
TORSDOF 5
ENDMDL
