MODEL 1
REMARK VINA RESULT:      54.1      0.000      0.000
REMARK  5 active torsions:
REMARK  status: ('A' for Active; 'I' for Inactive)
REMARK    1  A    between atoms: N_2  and  C_1 
REMARK    2  A    between atoms: N_3  and  C_1 
REMARK       I    between atoms: C_6  and  N_3 
REMARK    3  A    between atoms: C_12  and  C_6 
REMARK    4  A    between atoms: O_11  and  C_12 
REMARK    5  A    between atoms: C_13  and  O_11 
ROOT
ATOM      1  C   UNL d   1      58.858  48.746  50.436  0.00  0.00     0.209 C 
ATOM      2  S   UNL d   1      59.260  48.234  50.931  0.00  0.00    -0.038 SA
ENDROOT
BRANCH   1   3
ATOM      3  N   UNL d   1      58.074  48.946  50.611  0.00  0.00    -0.282 N 
ATOM      4  C   UNL d   1      57.500  49.186  50.076  0.00  0.00     0.066 A 
ATOM      5  C   UNL d   1      56.803  49.327  50.487  0.00  0.00     0.018 A 
ATOM      6  C   UNL d   1      57.528  49.295  49.257  0.00  0.00     0.018 A 
ATOM      7  C   UNL d   1      56.130  49.577  50.082  0.00  0.00     0.002 A 
ATOM      8  C   UNL d   1      56.944  49.174  51.277  0.00  0.00     0.021 A 
ATOM      9  C   UNL d   1      56.148  49.690  49.253  0.00  0.00     0.000 A 
ATOM     10  C   UNL d   1      56.846  49.549  48.842  0.00  0.00     0.002 A 
ATOM     11  C   UNL d   1      57.730  48.938  51.358  0.00  0.00     0.082 A 
ENDBRANCH   1   3
BRANCH   1  12
ATOM     12  N   UNL d   1      59.226  49.058  49.775  0.00  0.00    -0.178 NA
ATOM     13  C   UNL d   1      60.031  49.254  49.802  0.00  0.00     0.306 C 
ATOM     14  O   UNL d   1      60.398  49.568  49.134  0.00  0.00    -0.263 OA
BRANCH  13  15
ATOM     15  C   UNL d   1      60.456  49.136  50.488  0.00  0.00     0.185 C 
BRANCH  15  16
ATOM     16  O   UNL d   1      60.443  49.707  51.082  0.00  0.00    -0.300 OA
BRANCH  16  17
ATOM     17  C   UNL d   1      60.923  49.611  51.753  0.00  0.00     0.100 A 
ATOM     18  C   UNL d   1      60.578  49.531  52.490  0.00  0.00     0.025 A 
ATOM     19  C   UNL d   1      61.051  49.435  53.159  0.00  0.00     0.002 A 
ATOM     20  C   UNL d   1      61.875  49.420  53.082  0.00  0.00     0.000 A 
ATOM     21  C   UNL d   1      62.219  49.500  52.338  0.00  0.00     0.002 A 
ATOM     22  C   UNL d   1      61.746  49.596  51.669  0.00  0.00     0.025 A 
ENDBRANCH  16  17
ENDBRANCH  15  16
ENDBRANCH  13  15
ENDBRANCH   1  12
TORSDOF 5
ENDMDL
MODEL 2
REMARK VINA RESULT:      55.9      1.866      4.106
REMARK  5 active torsions:
REMARK  status: ('A' for Active; 'I' for Inactive)
REMARK    1  A    between atoms: N_2  and  C_1 
REMARK    2  A    between atoms: N_3  and  C_1 
REMARK       I    between atoms: C_6  and  N_3 
REMARK    3  A    between atoms: C_12  and  C_6 
REMARK    4  A    between atoms: O_11  and  C_12 
REMARK    5  A    between atoms: C_13  and  O_11 
ROOT
ATOM      1  C   UNL d   1      60.735  48.697  50.945  0.00  0.00     0.209 C 
ATOM      2  S   UNL d   1      60.544  49.218  51.546  0.00  0.00    -0.038 SA
ENDROOT
BRANCH   1   3
ATOM      3  N   UNL d   1      60.744  47.884  51.103  0.00  0.00    -0.282 N 
ATOM      4  C   UNL d   1      61.114  47.304  50.656  0.00  0.00     0.066 A 
ATOM      5  C   UNL d   1      60.981  46.575  51.013  0.00  0.00     0.018 A 
ATOM      6  C   UNL d   1      61.559  47.351  49.961  0.00  0.00     0.018 A 
ATOM      7  C   UNL d   1      61.293  45.890  50.677  0.00  0.00     0.002 A 
ATOM      8  C   UNL d   1      60.529  46.704  51.681  0.00  0.00     0.021 A 
ATOM      9  C   UNL d   1      61.745  45.928  49.974  0.00  0.00     0.000 A 
ATOM     10  C   UNL d   1      61.878  46.656  49.617  0.00  0.00     0.002 A 
ATOM     11  C   UNL d   1      60.380  47.513  51.741  0.00  0.00     0.082 A 
ENDBRANCH   1   3
BRANCH   1  12
ATOM     12  N   UNL d   1      60.916  48.975  50.198  0.00  0.00    -0.178 NA
ATOM     13  C   UNL d   1      60.343  49.376  49.754  0.00  0.00     0.306 C 
ATOM     14  O   UNL d   1      60.529  49.655  49.001  0.00  0.00    -0.263 OA
BRANCH  13  15
ATOM     15  C   UNL d   1      59.598  49.495  50.064  0.00  0.00     0.185 C 
BRANCH  15  16
ATOM     16  O   UNL d   1      58.966  49.656  49.559  0.00  0.00    -0.300 OA
BRANCH  16  17
ATOM     17  C   UNL d   1      58.188  49.577  49.840  0.00  0.00     0.100 A 
ATOM     18  C   UNL d   1      58.058  49.407  50.629  0.00  0.00     0.025 A 
ATOM     19  C   UNL d   1      57.287  49.327  50.912  0.00  0.00     0.002 A 
ATOM     20  C   UNL d   1      56.647  49.419  50.396  0.00  0.00     0.000 A 
ATOM     21  C   UNL d   1      56.782  49.589  49.602  0.00  0.00     0.002 A 
ATOM     22  C   UNL d   1      57.553  49.669  49.319  0.00  0.00     0.025 A 
ENDBRANCH  16  17
ENDBRANCH  15  16
ENDBRANCH  13  15
ENDBRANCH   1  12
TORSDOF 5
ENDMDL
