MODEL 1
REMARK VINA RESULT:      75.5      0.000      0.000
REMARK  3 active torsions:
REMARK  status: ('A' for Active; 'I' for Inactive)
REMARK    1  A    between atoms: C_5  and  C_1 
REMARK    2  A    between atoms: N_11  and  C_9 
REMARK    3  A    between atoms: C_17  and  N_11 
ROOT
ATOM      1  C   UNL d   1     -55.011-101.246 -45.067  0.00  0.00     0.075 A 
ATOM      2  C   UNL d   1     -54.940-101.211 -44.252  0.00  0.00     0.004 A 
ATOM      3  C   UNL d   1     -54.991-100.473 -43.867  0.00  0.00     0.004 A 
ATOM      4  C   UNL d   1     -55.133-100.543 -45.513  0.00  0.00     0.046 A 
ATOM      5  C   UNL d   1     -55.183 -99.827 -45.144  0.00  0.00     0.196 A 
ATOM      6  C   UNL d   1     -55.112 -99.792 -44.324  0.00  0.00     0.039 A 
ATOM      7  C   UNL d   1     -54.920-100.438 -43.046  0.00  0.00     0.018 A 
ATOM      8  C   UNL d   1     -54.797-101.140 -42.605  0.00  0.00     0.081 A 
ATOM      9  C   UNL d   1     -54.822-101.888 -43.821  0.00  0.00     0.002 A 
ATOM     10  C   UNL d   1     -54.751-101.853 -43.000  0.00  0.00     0.019 A 
ATOM     11  O   UNL d   1     -55.309 -99.126 -45.632  0.00  0.00    -0.287 OA
ATOM     12  C   UNL d   1     -55.165 -99.033 -43.935  0.00  0.00     0.003 A 
ATOM     13  C   UNL d   1     -54.972 -99.679 -42.652  0.00  0.00     0.002 A 
ATOM     14  C   UNL d   1     -55.089 -99.018 -43.092  0.00  0.00     0.000 A 
ENDROOT
BRANCH   8  15
ATOM     15  N   UNL d   1     -54.726-101.105 -41.784  0.00  0.00    -0.246 NA
BRANCH  15  16
ATOM     16  C   UNL d   1     -55.117-101.666 -41.305  0.00  0.00     0.081 A 
ATOM     17  C   UNL d   1     -55.141-101.556 -40.474  0.00  0.00     0.019 A 
ATOM     18  C   UNL d   1     -55.530-102.115 -39.998  0.00  0.00     0.002 A 
ATOM     19  C   UNL d   1     -55.877-102.750 -40.326  0.00  0.00     0.000 A 
ATOM     20  C   UNL d   1     -55.865-102.877 -41.134  0.00  0.00     0.002 A 
ATOM     21  C   UNL d   1     -55.484-102.333 -41.622  0.00  0.00     0.019 A 
ENDBRANCH  15  16
ENDBRANCH   8  15
BRANCH   1  22
ATOM     22  C   UNL d   1     -54.959-102.005 -45.466  0.00  0.00     0.419 C 
ATOM     23  F   UNL d   1     -54.911-102.730 -45.857  0.00  0.00    -0.166 F 
ATOM     24  F   UNL d   1     -54.716-102.360 -44.746  0.00  0.00    -0.166 F 
ATOM     25  F   UNL d   1     -55.205-101.619 -46.175  0.00  0.00    -0.166 F 
ENDBRANCH   1  22
TORSDOF 3
ENDMDL
