MODEL 1
REMARK VINA RESULT:      -8.5      0.000      0.000
REMARK  2 active torsions:
REMARK  status: ('A' for Active; 'I' for Inactive)
REMARK       I    between atoms: N_2  and  C_1 
REMARK    1  A    between atoms: C_6  and  C_1 
REMARK    2  A    between atoms: C_4  and  N_2 
ROOT
ATOM      1  C   UNL d   1      53.627  31.898  53.827  0.00  0.00     0.279 C 
ATOM      2  N   UNL d   1      53.766  31.100  53.964  0.00  0.00    -0.204 NA
ATOM      3  O   UNL d   1      53.026  32.130  53.302  0.00  0.00    -0.265 OA
ENDROOT
BRANCH   1   4
ATOM      4  C   UNL d   1      54.081  32.473  54.207  0.00  0.00     0.058 A 
ATOM      5  C   UNL d   1      53.940  32.663  54.984  0.00  0.00     0.006 A 
ATOM      6  C   UNL d   1      54.394  33.237  55.364  0.00  0.00     0.012 A 
ATOM      7  C   UNL d   1      54.994  33.628  54.973  0.00  0.00     0.058 A 
ATOM      8  C   UNL d   1      55.147  33.436  54.165  0.00  0.00     0.012 A 
ATOM      9 CL   UNL d   1      55.436  34.187  55.343  0.00  0.00    -0.082 Cl
ATOM     10  C   UNL d   1      54.693  32.862  53.785  0.00  0.00     0.006 A 
ENDBRANCH   1   4
BRANCH   2  11
ATOM     11  C   UNL d   1      53.304  30.529  53.576  0.00  0.00     0.130 A 
ATOM     12  C   UNL d   1      53.156  29.764  53.827  0.00  0.00     0.243 A 
ATOM     13  S   UNL d   1      52.671  29.400  53.270  0.00  0.00    -0.044 SA
ATOM     14  O   UNL d   1      53.447  29.420  54.526  0.00  0.00    -0.278 OA
ATOM     15  C   UNL d   1      52.519  29.948  52.666  0.00  0.00     0.040 A 
ATOM     16  C   UNL d   1      52.910  30.648  52.854  0.00  0.00     0.030 A 
ENDBRANCH   2  11
TORSDOF 2
ENDMDL
MODEL 2
REMARK VINA RESULT:      -8.4      3.250      4.085
REMARK  2 active torsions:
REMARK  status: ('A' for Active; 'I' for Inactive)
REMARK       I    between atoms: N_2  and  C_1 
REMARK    1  A    between atoms: C_6  and  C_1 
REMARK    2  A    between atoms: C_4  and  N_2 
ROOT
ATOM      1  C   UNL d   1      52.505  33.439  53.460  0.00  0.00     0.279 C 
ATOM      2  N   UNL d   1      52.782  33.815  54.136  0.00  0.00    -0.204 NA
ATOM      3  O   UNL d   1      52.928  32.799  53.139  0.00  0.00    -0.265 OA
ENDROOT
BRANCH   1   4
ATOM      4  C   UNL d   1      51.809  33.693  53.096  0.00  0.00     0.058 A 
ATOM      5  C   UNL d   1      51.088  33.541  53.436  0.00  0.00     0.006 A 
ATOM      6  C   UNL d   1      50.392  33.795  53.072  0.00  0.00     0.012 A 
ATOM      7  C   UNL d   1      50.409  34.203  52.365  0.00  0.00     0.058 A 
ATOM      8  C   UNL d   1      51.156  34.364  52.006  0.00  0.00     0.012 A 
ATOM      9 CL   UNL d   1      49.733  34.450  52.012  0.00  0.00    -0.082 Cl
ATOM     10  C   UNL d   1      51.852  34.111  52.369  0.00  0.00     0.006 A 
ENDBRANCH   1   4
BRANCH   2  11
ATOM     11  C   UNL d   1      53.484  33.552  54.495  0.00  0.00     0.130 A 
ATOM     12  C   UNL d   1      54.030  34.009  54.898  0.00  0.00     0.243 A 
ATOM     13  S   UNL d   1      54.636  33.516  55.158  0.00  0.00    -0.044 SA
ATOM     14  O   UNL d   1      53.976  34.830  55.022  0.00  0.00    -0.278 OA
ATOM     15  C   UNL d   1      54.462  32.744  54.911  0.00  0.00     0.040 A 
ATOM     16  C   UNL d   1      53.749  32.764  54.500  0.00  0.00     0.030 A 
ENDBRANCH   2  11
TORSDOF 2
ENDMDL
MODEL 3
REMARK VINA RESULT:      -8.3      2.620      3.782
REMARK  2 active torsions:
REMARK  status: ('A' for Active; 'I' for Inactive)
REMARK       I    between atoms: N_2  and  C_1 
REMARK    1  A    between atoms: C_6  and  C_1 
REMARK    2  A    between atoms: C_4  and  N_2 
ROOT
ATOM      1  C   UNL d   1      53.035  32.628  53.313  0.00  0.00     0.279 C 
ATOM      2  N   UNL d   1      52.998  33.078  54.000  0.00  0.00    -0.204 NA
ATOM      3  O   UNL d   1      53.006  33.001  52.571  0.00  0.00    -0.265 OA
ENDROOT
BRANCH   1   4
ATOM      4  C   UNL d   1      53.100  31.807  53.356  0.00  0.00     0.058 A 
ATOM      5  C   UNL d   1      53.718  31.462  53.754  0.00  0.00     0.006 A 
ATOM      6  C   UNL d   1      53.783  30.640  53.797  0.00  0.00     0.012 A 
ATOM      7  C   UNL d   1      53.232  30.154  53.441  0.00  0.00     0.058 A 
ATOM      8  C   UNL d   1      52.587  30.505  53.025  0.00  0.00     0.012 A 
ATOM      9 CL   UNL d   1      53.296  29.356  53.483  0.00  0.00    -0.082 Cl
ATOM     10  C   UNL d   1      52.522  31.326  52.982  0.00  0.00     0.006 A 
ENDBRANCH   1   4
BRANCH   2  11
ATOM     11  C   UNL d   1      52.932  33.905  53.947  0.00  0.00     0.130 A 
ATOM     12  C   UNL d   1      53.227  34.456  54.475  0.00  0.00     0.243 A 
ATOM     13  S   UNL d   1      53.031  35.207  54.200  0.00  0.00    -0.044 SA
ATOM     14  O   UNL d   1      53.651  34.281  55.169  0.00  0.00    -0.278 OA
ATOM     15  C   UNL d   1      52.609  35.118  53.492  0.00  0.00     0.040 A 
ATOM     16  C   UNL d   1      52.547  34.312  53.333  0.00  0.00     0.030 A 
ENDBRANCH   2  11
TORSDOF 2
ENDMDL
MODEL 4
REMARK VINA RESULT:      -7.5      2.775      3.180
REMARK  2 active torsions:
REMARK  status: ('A' for Active; 'I' for Inactive)
REMARK       I    between atoms: N_2  and  C_1 
REMARK    1  A    between atoms: C_6  and  C_1 
REMARK    2  A    between atoms: C_4  and  N_2 
ROOT
ATOM      1  C   UNL d   1      52.777  34.173  53.463  0.00  0.00     0.279 C 
ATOM      2  N   UNL d   1      52.126  33.676  53.393  0.00  0.00    -0.204 NA
ATOM      3  O   UNL d   1      52.820  34.866  53.005  0.00  0.00    -0.265 OA
ENDROOT
BRANCH   1   4
ATOM      4  C   UNL d   1      53.389  33.990  53.984  0.00  0.00     0.058 A 
ATOM      5  C   UNL d   1      53.491  34.416  54.668  0.00  0.00     0.006 A 
ATOM      6  C   UNL d   1      54.103  34.233  55.190  0.00  0.00     0.012 A 
ATOM      7  C   UNL d   1      54.620  33.620  55.035  0.00  0.00     0.058 A 
ATOM      8  C   UNL d   1      54.521  33.172  54.326  0.00  0.00     0.012 A 
ATOM      9 CL   UNL d   1      55.215  33.442  55.542  0.00  0.00    -0.082 Cl
ATOM     10  C   UNL d   1      53.909  33.356  53.804  0.00  0.00     0.006 A 
ENDBRANCH   1   4
BRANCH   2  11
ATOM     11  C   UNL d   1      51.515  33.869  52.865  0.00  0.00     0.130 A 
ATOM     12  C   UNL d   1      50.713  33.751  52.977  0.00  0.00     0.243 A 
ATOM     13  S   UNL d   1      50.316  34.026  52.311  0.00  0.00    -0.044 SA
ATOM     14  O   UNL d   1      50.365  33.411  53.652  0.00  0.00    -0.278 OA
ATOM     15  C   UNL d   1      50.881  34.317  51.779  0.00  0.00     0.040 A 
ATOM     16  C   UNL d   1      51.624  34.221  52.120  0.00  0.00     0.030 A 
ENDBRANCH   2  11
TORSDOF 2
ENDMDL
