MODEL 1
REMARK VINA RESULT:      -2.9      0.000      0.000
REMARK  4 active torsions:
REMARK  status: ('A' for Active; 'I' for Inactive)
REMARK    1  A    between atoms: C_6  and  C_1 
REMARK    2  A    between atoms: C_7  and  C_4 
REMARK    3  A    between atoms: O_10  and  C_6 
REMARK    4  A    between atoms: O_12  and  C_11 
ROOT
ATOM      1  C   UNL d   1      30.370  16.422 -24.160  0.00  0.00     0.173 A 
ATOM      2  N   UNL d   1      30.989  15.873 -24.136  0.00  0.00    -0.121 NA
ATOM      3  C   UNL d   1      30.699  17.178 -24.105  0.00  0.00     0.054 A 
ATOM      4  C   UNL d   1      31.522  17.097 -24.047  0.00  0.00     0.127 A 
ATOM      5  O   UNL d   1      31.696  16.288 -24.067  0.00  0.00    -0.211 OA
ENDROOT
BRANCH   4   6
ATOM      6  C   UNL d   1      32.065  17.716 -23.982  0.00  0.00     0.027 A 
ATOM      7  C   UNL d   1      32.372  17.902 -23.240  0.00  0.00     0.026 A 
ATOM      8  C   UNL d   1      32.910  18.515 -23.169  0.00  0.00     0.094 A 
ATOM      9  C   UNL d   1      33.146  18.947 -23.837  0.00  0.00     0.024 A 
ATOM     10  C   UNL d   1      32.835  18.755 -24.573  0.00  0.00     0.002 A 
ATOM     11  C   UNL d   1      32.295  18.141 -24.648  0.00  0.00     0.002 A 
BRANCH   8  12
ATOM     12  O   UNL d   1      33.223  18.708 -22.424  0.00  0.00    -0.328 OA
ATOM     13  C   UNL d   1      33.191  19.489 -22.149  0.00  0.00     0.181 C 
ENDBRANCH   8  12
ENDBRANCH   4   6
BRANCH   1  14
ATOM     14  C   UNL d   1      29.562  16.256 -24.227  0.00  0.00     0.316 C 
ATOM     15  O   UNL d   1      29.207  16.205 -24.967  0.00  0.00    -0.257 OA
BRANCH  14  16
ATOM     16  O   UNL d   1      29.113  16.140 -23.539  0.00  0.00    -0.294 OA
ATOM     17  C   UNL d   1      28.303  15.978 -23.598  0.00  0.00     0.185 C 
ENDBRANCH  14  16
ENDBRANCH   1  14
TORSDOF 4
ENDMDL
MODEL 2
REMARK VINA RESULT:      -2.6      3.188      5.141
REMARK  4 active torsions:
REMARK  status: ('A' for Active; 'I' for Inactive)
REMARK    1  A    between atoms: C_6  and  C_1 
REMARK    2  A    between atoms: C_7  and  C_4 
REMARK    3  A    between atoms: O_10  and  C_6 
REMARK    4  A    between atoms: O_12  and  C_11 
ROOT
ATOM      1  C   UNL d   1      33.021  19.861 -21.968  0.00  0.00     0.173 A 
ATOM      2  N   UNL d   1      33.167  19.707 -21.167  0.00  0.00    -0.121 NA
ATOM      3  C   UNL d   1      32.825  20.660 -22.041  0.00  0.00     0.054 A 
ATOM      4  C   UNL d   1      32.850  21.002 -21.287  0.00  0.00     0.127 A 
ATOM      5  O   UNL d   1      33.062  20.410 -20.750  0.00  0.00    -0.211 OA
ENDROOT
BRANCH   4   6
ATOM      6  C   UNL d   1      32.692  21.793 -21.110  0.00  0.00     0.027 A 
ATOM      7  C   UNL d   1      32.709  22.038 -20.323  0.00  0.00     0.026 A 
ATOM      8  C   UNL d   1      32.552  22.822 -20.142  0.00  0.00     0.094 A 
ATOM      9  C   UNL d   1      32.377  23.365 -20.744  0.00  0.00     0.024 A 
ATOM     10  C   UNL d   1      32.362  23.112 -21.526  0.00  0.00     0.002 A 
ATOM     11  C   UNL d   1      32.519  22.329 -21.711  0.00  0.00     0.002 A 
BRANCH   8  12
ATOM     12  O   UNL d   1      32.568  23.075 -19.351  0.00  0.00    -0.328 OA
ATOM     13  C   UNL d   1      33.241  23.452 -19.050  0.00  0.00     0.181 C 
ENDBRANCH   8  12
ENDBRANCH   4   6
BRANCH   1  14
ATOM     14  C   UNL d   1      33.060  19.318 -22.591  0.00  0.00     0.316 C 
ATOM     15  O   UNL d   1      32.969  19.570 -23.369  0.00  0.00    -0.257 OA
BRANCH  14  16
ATOM     16  O   UNL d   1      33.193  18.516 -22.423  0.00  0.00    -0.294 OA
ATOM     17  C   UNL d   1      33.241  17.968 -23.043  0.00  0.00     0.185 C 
ENDBRANCH  14  16
ENDBRANCH   1  14
TORSDOF 4
ENDMDL
MODEL 3
REMARK VINA RESULT:      -2.5      1.034      3.957
REMARK  4 active torsions:
REMARK  status: ('A' for Active; 'I' for Inactive)
REMARK    1  A    between atoms: C_6  and  C_1 
REMARK    2  A    between atoms: C_7  and  C_4 
REMARK    3  A    between atoms: O_10  and  C_6 
REMARK    4  A    between atoms: O_12  and  C_11 
ROOT
ATOM      1  C   UNL d   1      32.425  17.607 -23.480  0.00  0.00     0.173 A 
ATOM      2  N   UNL d   1      32.682  16.894 -23.147  0.00  0.00    -0.121 NA
ATOM      3  C   UNL d   1      31.699  17.468 -23.849  0.00  0.00     0.054 A 
ATOM      4  C   UNL d   1      31.506  16.668 -23.745  0.00  0.00     0.127 A 
ATOM      5  O   UNL d   1      32.117  16.318 -23.311  0.00  0.00    -0.211 OA
ENDROOT
BRANCH   4   6
ATOM      6  C   UNL d   1      30.826  16.295 -24.027  0.00  0.00     0.027 A 
ATOM      7  C   UNL d   1      30.218  16.120 -23.499  0.00  0.00     0.026 A 
ATOM      8  C   UNL d   1      29.540  15.750 -23.773  0.00  0.00     0.094 A 
ATOM      9  C   UNL d   1      29.464  15.553 -24.575  0.00  0.00     0.024 A 
ATOM     10  C   UNL d   1      30.075  15.731 -25.095  0.00  0.00     0.002 A 
ATOM     11  C   UNL d   1      30.755  16.102 -24.824  0.00  0.00     0.002 A 
BRANCH   8  12
ATOM     12  O   UNL d   1      28.923  15.571 -23.246  0.00  0.00    -0.328 OA
ATOM     13  C   UNL d   1      28.155  15.453 -23.531  0.00  0.00     0.181 C 
ENDBRANCH   8  12
ENDBRANCH   4   6
BRANCH   1  14
ATOM     14  C   UNL d   1      32.817  18.336 -23.454  0.00  0.00     0.316 C 
ATOM     15  O   UNL d   1      33.225  18.565 -22.778  0.00  0.00    -0.257 OA
BRANCH  14  16
ATOM     16  O   UNL d   1      32.793  18.833 -24.118  0.00  0.00    -0.294 OA
ATOM     17  C   UNL d   1      33.239  19.531 -24.125  0.00  0.00     0.185 C 
ENDBRANCH  14  16
ENDBRANCH   1  14
TORSDOF 4
ENDMDL
MODEL 4
REMARK VINA RESULT:      -2.3      0.968      1.456
REMARK  4 active torsions:
REMARK  status: ('A' for Active; 'I' for Inactive)
REMARK    1  A    between atoms: C_6  and  C_1 
REMARK    2  A    between atoms: C_7  and  C_4 
REMARK    3  A    between atoms: O_10  and  C_6 
REMARK    4  A    between atoms: O_12  and  C_11 
ROOT
ATOM      1  C   UNL d   1      29.636  16.349 -24.131  0.00  0.00     0.173 A 
ATOM      2  N   UNL d   1      29.919  16.308 -24.908  0.00  0.00    -0.121 NA
ATOM      3  C   UNL d   1      30.277  16.506 -23.635  0.00  0.00     0.054 A 
ATOM      4  C   UNL d   1      30.958  16.563 -24.104  0.00  0.00     0.127 A 
ATOM      5  O   UNL d   1      30.732  16.439 -24.890  0.00  0.00    -0.211 OA
ENDROOT
BRANCH   4   6
ATOM      6  C   UNL d   1      31.722  16.715 -23.830  0.00  0.00     0.027 A 
ATOM      7  C   UNL d   1      31.973  17.497 -23.758  0.00  0.00     0.026 A 
ATOM      8  C   UNL d   1      32.729  17.655 -23.486  0.00  0.00     0.094 A 
ATOM      9  C   UNL d   1      33.241  17.034 -23.284  0.00  0.00     0.024 A 
ATOM     10  C   UNL d   1      32.983  16.256 -23.358  0.00  0.00     0.002 A 
ATOM     11  C   UNL d   1      32.226  16.095 -23.630  0.00  0.00     0.002 A 
BRANCH   8  12
ATOM     12  O   UNL d   1      32.988  18.441 -23.411  0.00  0.00    -0.328 OA
ATOM     13  C   UNL d   1      33.154  18.888 -24.088  0.00  0.00     0.181 C 
ENDBRANCH   8  12
ENDBRANCH   4   6
BRANCH   1  14
ATOM     14  C   UNL d   1      28.852  16.251 -23.884  0.00  0.00     0.316 C 
ATOM     15  O   UNL d   1      28.472  16.845 -23.460  0.00  0.00    -0.257 OA
BRANCH  14  16
ATOM     16  O   UNL d   1      28.453  15.548 -24.069  0.00  0.00    -0.294 OA
ATOM     17  C   UNL d   1      27.644  15.477 -23.905  0.00  0.00     0.185 C 
ENDBRANCH  14  16
ENDBRANCH   1  14
TORSDOF 4
ENDMDL
MODEL 5
REMARK VINA RESULT:      -1.3      5.308      6.603
REMARK  4 active torsions:
REMARK  status: ('A' for Active; 'I' for Inactive)
REMARK    1  A    between atoms: C_6  and  C_1 
REMARK    2  A    between atoms: C_7  and  C_4 
REMARK    3  A    between atoms: O_10  and  C_6 
REMARK    4  A    between atoms: O_12  and  C_11 
ROOT
ATOM      1  C   UNL d   1      32.585  22.550 -20.188  0.00  0.00     0.173 A 
ATOM      2  N   UNL d   1      32.180  21.874 -20.442  0.00  0.00    -0.121 NA
ATOM      3  C   UNL d   1      32.869  22.941 -20.857  0.00  0.00     0.054 A 
ATOM      4  C   UNL d   1      32.641  22.508 -21.526  0.00  0.00     0.127 A 
ATOM      5  O   UNL d   1      32.215  21.850 -21.264  0.00  0.00    -0.211 OA
ENDROOT
BRANCH   4   6
ATOM      6  C   UNL d   1      32.811  22.705 -22.310  0.00  0.00     0.027 A 
ATOM      7  C   UNL d   1      32.927  22.101 -22.858  0.00  0.00     0.026 A 
ATOM      8  C   UNL d   1      33.096  22.290 -23.637  0.00  0.00     0.094 A 
ATOM      9  C   UNL d   1      33.150  23.084 -23.874  0.00  0.00     0.024 A 
ATOM     10  C   UNL d   1      33.033  23.680 -23.321  0.00  0.00     0.002 A 
ATOM     11  C   UNL d   1      32.863  23.494 -22.540  0.00  0.00     0.002 A 
BRANCH   8  12
ATOM     12  O   UNL d   1      33.215  21.686 -24.194  0.00  0.00    -0.328 OA
ATOM     13  C   UNL d   1      33.184  21.857 -25.004  0.00  0.00     0.181 C 
ENDBRANCH   8  12
ENDBRANCH   4   6
BRANCH   1  14
ATOM     14  C   UNL d   1      32.692  22.798 -19.406  0.00  0.00     0.316 C 
ATOM     15  O   UNL d   1      32.689  23.600 -19.220  0.00  0.00    -0.257 OA
BRANCH  14  16
ATOM     16  O   UNL d   1      32.803  22.230 -18.811  0.00  0.00    -0.294 OA
ATOM     17  C   UNL d   1      33.167  22.446 -18.099  0.00  0.00     0.185 C 
ENDBRANCH  14  16
ENDBRANCH   1  14
TORSDOF 4
ENDMDL
