MODEL 1
REMARK VINA RESULT:      48.8      0.000      0.000
REMARK  3 active torsions:
REMARK  status: ('A' for Active; 'I' for Inactive)
REMARK    1  A    between atoms: C_9  and  C_4 
REMARK       I    between atoms: C_6  and  N_8 
REMARK    2  A    between atoms: C_13  and  C_6 
REMARK    3  A    between atoms: N_8  and  C_16 
ROOT
ATOM      1  C   UNL d   1     -54.758-101.745 -41.863  0.00  0.00     0.019 A 
ATOM      2  C   UNL d   1     -54.730-100.978 -42.148  0.00  0.00     0.003 A 
ATOM      3  C   UNL d   1     -54.771-102.382 -42.376  0.00  0.00     0.003 A 
ATOM      4  C   UNL d   1     -54.730-101.487 -43.482  0.00  0.00     0.085 A 
ATOM      5  C   UNL d   1     -54.757-102.251 -43.191  0.00  0.00     0.019 A 
ATOM      6  C   UNL d   1     -54.716-100.848 -42.959  0.00  0.00     0.019 A 
ENDROOT
BRANCH   1   7
ATOM      7  C   UNL d   1     -54.772-101.879 -41.043  0.00  0.00     0.101 A 
ATOM      8  N   UNL d   1     -54.713-101.284 -40.491  0.00  0.00    -0.221 NA
ATOM      9  C   UNL d   1     -54.748-101.622 -39.740  0.00  0.00     0.179 A 
ATOM     10  N   UNL d   1     -54.828-102.432 -39.822  0.00  0.00    -0.282 N 
ATOM     11  S   UNL d   1     -54.732-101.447 -38.930  0.00  0.00    -0.048 SA
ATOM     12  C   UNL d   1     -54.844-102.595 -40.637  0.00  0.00     0.101 A 
ATOM     13  C   UNL d   1     -54.863-102.771 -39.070  0.00  0.00     0.089 A 
ATOM     14  C   UNL d   1     -54.802-102.155 -38.521  0.00  0.00     0.057 A 
ENDBRANCH   1   7
BRANCH   4  15
ATOM     15  N   UNL d   1     -54.715-101.353 -44.302  0.00  0.00    -0.208 NA
ATOM     16  C   UNL d   1     -55.022-100.647 -44.620  0.00  0.00     0.279 C 
ATOM     17  O   UNL d   1     -55.011-100.512 -45.421  0.00  0.00    -0.265 OA
BRANCH  16  18
ATOM     18  C   UNL d   1     -55.340-100.085 -44.108  0.00  0.00     0.058 A 
ATOM     19  C   UNL d   1     -54.865 -99.483 -43.799  0.00  0.00     0.005 A 
ATOM     20  C   UNL d   1     -55.336 -99.014 -43.312  0.00  0.00     0.000 A 
ATOM     21  C   UNL d   1     -56.095 -99.313 -43.313  0.00  0.00     0.000 A 
ATOM     22  C   UNL d   1     -56.105 -99.981 -43.807  0.00  0.00     0.005 A 
ENDBRANCH  16  18
ENDBRANCH   4  15
TORSDOF 3
ENDMDL
