MODEL 1
REMARK VINA RESULT:      15.9      0.000      0.000
REMARK  3 active torsions:
REMARK  status: ('A' for Active; 'I' for Inactive)
REMARK    1  A    between atoms: C_2  and  N_1 
REMARK    2  A    between atoms: C_4  and  N_1 
REMARK    3  A    between atoms: C_3  and  C_2 
ROOT
ATOM      1  N   UNL d   1     -56.941 -98.819 -44.753  0.00  0.00    -0.182 N 
ATOM      2  O   UNL d   1     -56.869 -98.756 -45.575  0.00  0.00    -0.080 OA
ENDROOT
BRANCH   1   3
ATOM      3  C   UNL d   1     -56.265 -98.896 -44.287  0.00  0.00     0.133 C 
BRANCH   3   4
ATOM      4  C   UNL d   1     -55.830 -99.594 -44.304  0.00  0.00     0.120 A 
ATOM      5  O   UNL d   1     -56.061-100.392 -44.313  0.00  0.00    -0.304 OA
ATOM      6  C   UNL d   1     -55.374-100.857 -44.330  0.00  0.00     0.123 A 
ATOM      7  C   UNL d   1     -54.718-100.349 -44.331  0.00  0.00     0.029 A 
ATOM      8  C   UNL d   1     -55.001 -99.574 -44.315  0.00  0.00     0.028 A 
ENDBRANCH   3   4
ENDBRANCH   1   3
BRANCH   1   9
ATOM      9  C   UNL d   1     -57.700 -98.803 -44.395  0.00  0.00     0.090 A 
ATOM     10  C   UNL d   1     -57.753 -98.804 -43.578  0.00  0.00     0.021 A 
ATOM     11  C   UNL d   1     -58.506 -98.788 -43.223  0.00  0.00     0.013 A 
ATOM     12  C   UNL d   1     -59.182 -98.772 -43.696  0.00  0.00     0.058 A 
ATOM     13  C   UNL d   1     -59.116 -98.771 -44.516  0.00  0.00     0.013 A 
ATOM     14 CL   UNL d   1     -59.922 -98.757 -43.346  0.00  0.00    -0.082 Cl
ATOM     15  C   UNL d   1     -58.363 -98.787 -44.872  0.00  0.00     0.021 A 
ENDBRANCH   1   9
TORSDOF 3
ENDMDL
