MODEL 1
REMARK VINA RESULT:      -4.3      0.000      0.000
REMARK  4 active torsions:
REMARK  status: ('A' for Active; 'I' for Inactive)
REMARK    1  A    between atoms: C_2  and  C_1 
REMARK    2  A    between atoms: C_4  and  C_2 
REMARK       I    between atoms: C_3  and  N_6 
REMARK    3  A    between atoms: C_7  and  C_3 
REMARK    4  A    between atoms: N_6  and  C_5 
ROOT
ATOM      1  C   UNL d   1      58.686  -0.933  29.503  0.00  0.00     0.058 A 
ATOM      2  C   UNL d   1      58.293  -0.443  30.070  0.00  0.00     0.088 A 
ATOM      3  C   UNL d   1      59.211  -0.610  28.992  0.00  0.00     0.016 A 
ATOM      4  C   UNL d   1      58.476   0.362  30.064  0.00  0.00     0.020 A 
ATOM      5  C   UNL d   1      59.376   0.198  29.007  0.00  0.00     0.058 A 
ATOM      6  C   UNL d   1      59.016   0.682  29.534  0.00  0.00     0.013 A 
ATOM      7 CL   UNL d   1      59.934   0.514  28.456  0.00  0.00    -0.082 Cl
ENDROOT
BRANCH   1   8
ATOM      8  C   UNL d   1      58.539  -1.745  29.467  0.00  0.00     0.198 C 
ATOM      9  O   UNL d   1      57.754  -1.999  29.518  0.00  0.00    -0.286 OA
BRANCH   8  10
ATOM     10  C   UNL d   1      59.144  -2.294  29.383  0.00  0.00     0.050 A 
ATOM     11  C   UNL d   1      59.045  -2.946  28.888  0.00  0.00     0.061 A 
ATOM     12 CL   UNL d   1      58.336  -3.075  28.455  0.00  0.00    -0.082 Cl
ATOM     13  C   UNL d   1      59.659  -3.499  28.806  0.00  0.00     0.011 A 
ATOM     14  C   UNL d   1      60.368  -3.399  29.219  0.00  0.00     0.001 A 
ATOM     15  C   UNL d   1      60.441  -2.738  29.708  0.00  0.00     0.000 A 
ATOM     16  C   UNL d   1      59.826  -2.185  29.789  0.00  0.00     0.004 A 
ENDBRANCH   8  10
ENDBRANCH   1   8
BRANCH   2  17
ATOM     17  N   UNL d   1      57.730  -0.759  30.625  0.00  0.00    -0.206 NA
ATOM     18  C   UNL d   1      57.480  -0.312  31.241  0.00  0.00     0.302 C 
ATOM     19  O   UNL d   1      57.759   0.456  31.350  0.00  0.00    -0.263 OA
BRANCH  18  20
ATOM     20  C   UNL d   1      56.934  -0.631  31.773  0.00  0.00     0.158 A 
ATOM     21  O   UNL d   1      56.797  -1.388  32.029  0.00  0.00    -0.300 OA
ATOM     22  C   UNL d   1      56.187  -1.361  32.554  0.00  0.00     0.123 A 
ATOM     23  C   UNL d   1      55.925  -0.631  32.651  0.00  0.00     0.029 A 
ATOM     24  C   UNL d   1      56.394  -0.137  32.154  0.00  0.00     0.032 A 
ENDBRANCH  18  20
ENDBRANCH   2  17
TORSDOF 4
ENDMDL
MODEL 2
REMARK VINA RESULT:      -3.1      2.644      4.494
REMARK  4 active torsions:
REMARK  status: ('A' for Active; 'I' for Inactive)
REMARK    1  A    between atoms: C_2  and  C_1 
REMARK    2  A    between atoms: C_4  and  C_2 
REMARK       I    between atoms: C_3  and  N_6 
REMARK    3  A    between atoms: C_7  and  C_3 
REMARK    4  A    between atoms: N_6  and  C_5 
ROOT
ATOM      1  C   UNL d   1      57.393   0.375  32.497  0.00  0.00     0.058 A 
ATOM      2  C   UNL d   1      58.016   0.452  31.929  0.00  0.00     0.088 A 
ATOM      3  C   UNL d   1      57.553   0.452  33.278  0.00  0.00     0.016 A 
ATOM      4  C   UNL d   1      58.774   0.605  32.219  0.00  0.00     0.020 A 
ATOM      5  C   UNL d   1      58.319   0.605  33.541  0.00  0.00     0.058 A 
ATOM      6  C   UNL d   1      58.925   0.682  33.023  0.00  0.00     0.013 A 
ATOM      7 CL   UNL d   1      58.462   0.682  34.372  0.00  0.00    -0.082 Cl
ENDROOT
BRANCH   1   8
ATOM      8  C   UNL d   1      56.617   0.222  32.260  0.00  0.00     0.198 C 
ATOM      9  O   UNL d   1      56.300   0.682  31.652  0.00  0.00    -0.286 OA
BRANCH   8  10
ATOM     10  C   UNL d   1      56.163  -0.367  32.609  0.00  0.00     0.050 A 
ATOM     11  C   UNL d   1      55.523  -0.166  33.090  0.00  0.00     0.061 A 
ATOM     12 CL   UNL d   1      55.311   0.632  33.240  0.00  0.00    -0.082 Cl
ATOM     13  C   UNL d   1      55.068  -0.765  33.441  0.00  0.00     0.011 A 
ATOM     14  C   UNL d   1      55.252  -1.560  33.311  0.00  0.00     0.001 A 
ATOM     15  C   UNL d   1      55.897  -1.734  32.827  0.00  0.00     0.000 A 
ATOM     16  C   UNL d   1      56.353  -1.134  32.475  0.00  0.00     0.004 A 
ENDBRANCH   8  10
ENDBRANCH   1   8
BRANCH   2  17
ATOM     17  N   UNL d   1      57.875   0.375  31.093  0.00  0.00    -0.206 NA
ATOM     18  C   UNL d   1      58.486   0.419  30.577  0.00  0.00     0.302 C 
ATOM     19  O   UNL d   1      59.258   0.538  30.843  0.00  0.00    -0.263 OA
BRANCH  18  20
ATOM     20  C   UNL d   1      58.336   0.343  29.769  0.00  0.00     0.158 A 
ATOM     21  O   UNL d   1      57.667   0.453  29.324  0.00  0.00    -0.300 OA
ATOM     22  C   UNL d   1      57.856   0.295  28.557  0.00  0.00     0.123 A 
ATOM     23  C   UNL d   1      58.607   0.091  28.484  0.00  0.00     0.029 A 
ATOM     24  C   UNL d   1      58.941   0.114  29.257  0.00  0.00     0.032 A 
ENDBRANCH  18  20
ENDBRANCH   2  17
TORSDOF 4
ENDMDL
