MODEL 1
REMARK VINA RESULT:      49.5      0.000      0.000
REMARK  7 active torsions:
REMARK  status: ('A' for Active; 'I' for Inactive)
REMARK    1  A    between atoms: C_7  and  S_1 
REMARK    2  A    between atoms: N_11  and  S_1 
REMARK    3  A    between atoms: C_5  and  C_2 
REMARK    4  A    between atoms: C_6  and  C_15 
REMARK    5  A    between atoms: C_18  and  N_11 
REMARK    6  A    between atoms: C_15  and  C_18 
REMARK    7  A    between atoms: O_21  and  C_17 
ROOT
ATOM      1  C   UNL d   1     -49.268  28.289  33.940  0.00  0.00     0.114 C 
ENDROOT
BRANCH   1   2
ATOM      2  C   UNL d   1     -49.325  27.624  33.458  0.00  0.00     0.041 C 
BRANCH   2   3
ATOM      3  C   UNL d   1     -50.032  27.192  33.414  0.00  0.00     0.090 A 
ATOM      4  N   UNL d   1     -50.089  26.363  33.413  0.00  0.00    -0.238 NA
ATOM      5  C   UNL d   1     -50.895  26.169  33.362  0.00  0.00     0.112 A 
ATOM      6  S   UNL d   1     -51.333  26.871  33.333  0.00  0.00    -0.066 SA
ATOM      7  C   UNL d   1     -50.796  27.507  33.366  0.00  0.00     0.056 A 
BRANCH   5   8
ATOM      8  C   UNL d   1     -51.217  25.398  33.344  0.00  0.00     0.043 A 
ATOM      9  C   UNL d   1     -52.035  25.293  33.328  0.00  0.00     0.101 A 
ATOM     10  N   UNL d   1     -52.349  24.540  33.310  0.00  0.00    -0.242 NA
ATOM     11  C   UNL d   1     -51.848  23.888  33.307  0.00  0.00     0.099 A 
ATOM     12  C   UNL d   1     -51.015  23.998  33.324  0.00  0.00     0.021 A 
ATOM     13  C   UNL d   1     -50.701  24.755  33.342  0.00  0.00     0.005 A 
ENDBRANCH   5   8
ENDBRANCH   2   3
ENDBRANCH   1   2
BRANCH   1  14
ATOM     14  N   UNL d   1     -48.694  28.309  34.556  0.00  0.00    -0.157 NA
BRANCH  14  15
ATOM     15  S   UNL d   1     -48.373  29.039  34.786  0.00  0.00     0.285 S 
ATOM     16  O   UNL d   1     -48.036  29.124  34.027  0.00  0.00    -0.198 OA
ATOM     17  O   UNL d   1     -48.707  28.957  35.544  0.00  0.00    -0.198 OA
BRANCH  15  18
ATOM     18  C   UNL d   1     -48.050  29.766  35.007  0.00  0.00     0.105 A 
ATOM     19  C   UNL d   1     -48.204  30.430  34.545  0.00  0.00     0.015 A 
ATOM     20  C   UNL d   1     -47.879  31.166  34.766  0.00  0.00     0.025 A 
ATOM     21  C   UNL d   1     -47.412  31.225  35.436  0.00  0.00     0.094 A 
ATOM     22  C   UNL d   1     -47.264  30.558  35.892  0.00  0.00     0.025 A 
ATOM     23  C   UNL d   1     -47.576  29.825  35.689  0.00  0.00     0.015 A 
BRANCH  21  24
ATOM     24  O   UNL d   1     -47.089  31.953  35.657  0.00  0.00    -0.328 OA
ATOM     25  C   UNL d   1     -47.227  32.621  35.193  0.00  0.00     0.181 C 
ENDBRANCH  21  24
ENDBRANCH  15  18
ENDBRANCH  14  15
ENDBRANCH   1  14
TORSDOF 7
ENDMDL
MODEL 2
REMARK VINA RESULT:      49.6      1.846      6.144
REMARK  7 active torsions:
REMARK  status: ('A' for Active; 'I' for Inactive)
REMARK    1  A    between atoms: C_7  and  S_1 
REMARK    2  A    between atoms: N_11  and  S_1 
REMARK    3  A    between atoms: C_5  and  C_2 
REMARK    4  A    between atoms: C_6  and  C_15 
REMARK    5  A    between atoms: C_18  and  N_11 
REMARK    6  A    between atoms: C_15  and  C_18 
REMARK    7  A    between atoms: O_21  and  C_17 
ROOT
ATOM      1  C   UNL d   1     -49.077  28.073  34.420  0.00  0.00     0.114 C 
ENDROOT
BRANCH   1   2
ATOM      2  C   UNL d   1     -48.349  28.135  34.798  0.00  0.00     0.041 C 
BRANCH   2   3
ATOM      3  C   UNL d   1     -48.068  28.870  35.059  0.00  0.00     0.090 A 
ATOM      4  N   UNL d   1     -48.129  29.584  34.639  0.00  0.00    -0.238 NA
ATOM      5  C   UNL d   1     -47.777  30.178  35.103  0.00  0.00     0.112 A 
ATOM      6  S   UNL d   1     -47.501  29.833  35.803  0.00  0.00    -0.066 SA
ATOM      7  C   UNL d   1     -47.681  29.020  35.776  0.00  0.00     0.056 A 
BRANCH   5   8
ATOM      8  C   UNL d   1     -47.710  30.986  34.903  0.00  0.00     0.043 A 
ATOM      9  C   UNL d   1     -47.725  31.560  35.495  0.00  0.00     0.101 A 
ATOM     10  N   UNL d   1     -47.659  32.349  35.299  0.00  0.00    -0.242 NA
ATOM     11  C   UNL d   1     -47.579  32.570  34.512  0.00  0.00     0.099 A 
ATOM     12  C   UNL d   1     -47.564  31.983  33.910  0.00  0.00     0.021 A 
ATOM     13  C   UNL d   1     -47.630  31.190  34.108  0.00  0.00     0.005 A 
ENDBRANCH   5   8
ENDBRANCH   2   3
ENDBRANCH   1   2
BRANCH   1  14
ATOM     14  N   UNL d   1     -49.137  27.642  33.699  0.00  0.00    -0.157 NA
BRANCH  14  15
ATOM     15  S   UNL d   1     -49.734  27.072  33.617  0.00  0.00     0.285 S 
ATOM     16  O   UNL d   1     -50.298  27.634  33.868  0.00  0.00    -0.198 OA
ATOM     17  O   UNL d   1     -49.175  26.509  33.367  0.00  0.00    -0.198 OA
BRANCH  15  18
ATOM     18  C   UNL d   1     -50.335  26.510  33.538  0.00  0.00     0.105 A 
ATOM     19  C   UNL d   1     -51.119  26.748  33.619  0.00  0.00     0.015 A 
ATOM     20  C   UNL d   1     -51.728  26.183  33.540  0.00  0.00     0.025 A 
ATOM     21  C   UNL d   1     -51.545  25.400  33.384  0.00  0.00     0.094 A 
ATOM     22  C   UNL d   1     -50.760  25.171  33.306  0.00  0.00     0.025 A 
ATOM     23  C   UNL d   1     -50.148  25.715  33.380  0.00  0.00     0.015 A 
BRANCH  21  24
ATOM     24  O   UNL d   1     -52.146  24.838  33.306  0.00  0.00    -0.328 OA
ATOM     25  C   UNL d   1     -52.048  24.086  33.629  0.00  0.00     0.181 C 
ENDBRANCH  21  24
ENDBRANCH  15  18
ENDBRANCH  14  15
ENDBRANCH   1  14
TORSDOF 7
ENDMDL
