MODEL 1
REMARK VINA RESULT:      -8.7      0.000      0.000
REMARK  7 active torsions:
REMARK  status: ('A' for Active; 'I' for Inactive)
REMARK    1  A    between atoms: S_10  and  C_3 
REMARK    2  A    between atoms: C_12  and  C_7 
REMARK    3  A    between atoms: C_19  and  S_10 
REMARK    4  A    between atoms: C_11  and  C_19 
REMARK       I    between atoms: N_14  and  C_11 
REMARK    5  A    between atoms: C_13  and  C_15 
REMARK    6  A    between atoms: C_15  and  N_14 
REMARK    7  A    between atoms: O_21  and  C_17 
ROOT
ATOM      1  N   UNL d   1      52.094  33.772  53.259  0.00  0.00    -0.186 N 
ATOM      2  N   UNL d   1      52.243  32.978  53.141  0.00  0.00    -0.162 NA
ATOM      3  C   UNL d   1      51.507  34.273  52.960  0.00  0.00     0.217 A 
ATOM      4  C   UNL d   1      52.572  34.222  53.755  0.00  0.00     0.187 A 
ATOM      5  N   UNL d   1      51.634  35.017  53.273  0.00  0.00    -0.120 NA
ATOM      6  N   UNL d   1      52.294  34.987  53.766  0.00  0.00    -0.127 NA
ATOM      7  C   UNL d   1      52.883  32.624  53.525  0.00  0.00     0.103 A 
ATOM      8  C   UNL d   1      53.215  33.864  54.139  0.00  0.00     0.042 A 
ATOM      9  C   UNL d   1      53.368  33.072  54.024  0.00  0.00     0.024 A 
ENDROOT
BRANCH   3  10
ATOM     10  S   UNL d   1      50.898  34.078  52.439  0.00  0.00    -0.041 SA
BRANCH  10  11
ATOM     11  C   UNL d   1      50.229  34.536  52.397  0.00  0.00     0.101 C 
BRANCH  11  12
ATOM     12  C   UNL d   1      49.737  34.485  51.750  0.00  0.00     0.286 C 
ATOM     13  N   UNL d   1      49.002  34.857  51.756  0.00  0.00    -0.206 NA
ATOM     14  O   UNL d   1      49.960  34.062  51.075  0.00  0.00    -0.265 OA
BRANCH  13  15
ATOM     15  C   UNL d   1      48.771  35.282  52.425  0.00  0.00     0.104 C 
BRANCH  15  16
ATOM     16  C   UNL d   1      48.049  35.683  52.427  0.00  0.00     0.042 A 
ATOM     17  C   UNL d   1      47.851  36.177  53.063  0.00  0.00     0.096 A 
ATOM     18  C   UNL d   1      47.129  36.581  53.069  0.00  0.00     0.024 A 
ATOM     19  C   UNL d   1      46.605  36.485  52.429  0.00  0.00     0.002 A 
ATOM     20  C   UNL d   1      46.808  35.992  51.799  0.00  0.00     0.000 A 
ATOM     21  C   UNL d   1      47.525  35.593  51.797  0.00  0.00     0.004 A 
BRANCH  17  22
ATOM     22  O   UNL d   1      48.370  36.273  53.697  0.00  0.00    -0.328 OA
ATOM     23  C   UNL d   1      48.147  36.710  54.349  0.00  0.00     0.181 C 
ENDBRANCH  17  22
ENDBRANCH  15  16
ENDBRANCH  13  15
ENDBRANCH  11  12
ENDBRANCH  10  11
ENDBRANCH   3  10
BRANCH   7  24
ATOM     24  C   UNL d   1      53.029  31.820  53.402  0.00  0.00     0.039 A 
ATOM     25  C   UNL d   1      52.554  31.380  52.918  0.00  0.00     0.101 A 
ATOM     26  N   UNL d   1      52.702  30.592  52.801  0.00  0.00    -0.242 NA
ATOM     27  C   UNL d   1      53.342  30.228  53.175  0.00  0.00     0.099 A 
ATOM     28  C   UNL d   1      53.826  30.675  53.666  0.00  0.00     0.021 A 
ATOM     29  C   UNL d   1      53.673  31.477  53.784  0.00  0.00     0.005 A 
ENDBRANCH   7  24
TORSDOF 7
ENDMDL
MODEL 2
REMARK VINA RESULT:      -8.0      1.689      6.129
REMARK  7 active torsions:
REMARK  status: ('A' for Active; 'I' for Inactive)
REMARK    1  A    between atoms: S_10  and  C_3 
REMARK    2  A    between atoms: C_12  and  C_7 
REMARK    3  A    between atoms: C_19  and  S_10 
REMARK    4  A    between atoms: C_11  and  C_19 
REMARK       I    between atoms: N_14  and  C_11 
REMARK    5  A    between atoms: C_13  and  C_15 
REMARK    6  A    between atoms: C_15  and  N_14 
REMARK    7  A    between atoms: O_21  and  C_17 
ROOT
ATOM      1  N   UNL d   1      47.851  35.826  53.021  0.00  0.00    -0.186 N 
ATOM      2  N   UNL d   1      47.235  35.619  52.528  0.00  0.00    -0.162 NA
ATOM      3  C   UNL d   1      48.642  35.585  53.044  0.00  0.00     0.217 A 
ATOM      4  C   UNL d   1      47.742  36.369  53.630  0.00  0.00     0.187 A 
ATOM      5  N   UNL d   1      49.003  35.980  53.662  0.00  0.00    -0.120 NA
ATOM      6  N   UNL d   1      48.446  36.466  54.026  0.00  0.00    -0.127 NA
ATOM      7  C   UNL d   1      46.491  35.959  52.643  0.00  0.00     0.103 A 
ATOM      8  C   UNL d   1      46.993  36.709  53.743  0.00  0.00     0.042 A 
ATOM      9  C   UNL d   1      46.374  36.506  53.254  0.00  0.00     0.024 A 
ENDROOT
BRANCH   3  10
ATOM     10  S   UNL d   1      49.018  35.046  52.546  0.00  0.00    -0.041 SA
BRANCH  10  11
ATOM     11  C   UNL d   1      49.787  34.822  52.684  0.00  0.00     0.101 C 
BRANCH  11  12
ATOM     12  C   UNL d   1      50.182  34.359  52.144  0.00  0.00     0.286 C 
ATOM     13  N   UNL d   1      50.941  34.084  52.310  0.00  0.00    -0.206 NA
ATOM     14  O   UNL d   1      49.837  34.154  51.421  0.00  0.00    -0.265 OA
BRANCH  13  15
ATOM     15  C   UNL d   1      51.295  34.283  53.028  0.00  0.00     0.104 C 
BRANCH  15  16
ATOM     16  C   UNL d   1      51.999  33.916  53.255  0.00  0.00     0.042 A 
ATOM     17  C   UNL d   1      52.566  34.338  53.689  0.00  0.00     0.096 A 
ATOM     18  C   UNL d   1      53.272  33.974  53.919  0.00  0.00     0.024 A 
ATOM     19  C   UNL d   1      53.406  33.179  53.707  0.00  0.00     0.002 A 
ATOM     20  C   UNL d   1      52.838  32.766  53.275  0.00  0.00     0.000 A 
ATOM     21  C   UNL d   1      52.139  33.130  53.050  0.00  0.00     0.004 A 
BRANCH  17  22
ATOM     22  O   UNL d   1      52.433  35.124  53.898  0.00  0.00    -0.328 OA
ATOM     23  C   UNL d   1      52.933  35.502  54.422  0.00  0.00     0.181 C 
ENDBRANCH  17  22
ENDBRANCH  15  16
ENDBRANCH  13  15
ENDBRANCH  11  12
ENDBRANCH  10  11
ENDBRANCH   3  10
BRANCH   7  24
ATOM     24  C   UNL d   1      45.870  35.746  52.142  0.00  0.00     0.039 A 
ATOM     25  C   UNL d   1      45.313  35.210  52.375  0.00  0.00     0.101 A 
ATOM     26  N   UNL d   1      44.705  35.004  51.879  0.00  0.00    -0.242 NA
ATOM     27  C   UNL d   1      44.649  35.341  51.127  0.00  0.00     0.099 A 
ATOM     28  C   UNL d   1      45.215  35.887  50.890  0.00  0.00     0.021 A 
ATOM     29  C   UNL d   1      45.832  36.095  51.396  0.00  0.00     0.005 A 
ENDBRANCH   7  24
TORSDOF 7
ENDMDL
MODEL 3
REMARK VINA RESULT:      -7.7      1.339      6.184
REMARK  7 active torsions:
REMARK  status: ('A' for Active; 'I' for Inactive)
REMARK    1  A    between atoms: S_10  and  C_3 
REMARK    2  A    between atoms: C_12  and  C_7 
REMARK    3  A    between atoms: C_19  and  S_10 
REMARK    4  A    between atoms: C_11  and  C_19 
REMARK       I    between atoms: N_14  and  C_11 
REMARK    5  A    between atoms: C_13  and  C_15 
REMARK    6  A    between atoms: C_15  and  N_14 
REMARK    7  A    between atoms: O_21  and  C_17 
ROOT
ATOM      1  N   UNL d   1      49.169  34.761  51.829  0.00  0.00    -0.186 N 
ATOM      2  N   UNL d   1      48.633  35.191  52.270  0.00  0.00    -0.162 NA
ATOM      3  C   UNL d   1      49.916  34.457  52.013  0.00  0.00     0.217 A 
ATOM      4  C   UNL d   1      49.005  34.554  51.049  0.00  0.00     0.187 A 
ATOM      5  N   UNL d   1      50.197  34.072  51.349  0.00  0.00    -0.120 NA
ATOM      6  N   UNL d   1      49.633  34.131  50.751  0.00  0.00    -0.127 NA
ATOM      7  C   UNL d   1      47.917  35.420  51.927  0.00  0.00     0.103 A 
ATOM      8  C   UNL d   1      48.285  34.787  50.708  0.00  0.00     0.042 A 
ATOM      9  C   UNL d   1      47.747  35.216  51.144  0.00  0.00     0.024 A 
ENDROOT
BRANCH   3  10
ATOM     10  S   UNL d   1      50.321  34.520  52.729  0.00  0.00    -0.041 SA
BRANCH  10  11
ATOM     11  C   UNL d   1      51.082  34.245  52.798  0.00  0.00     0.101 C 
BRANCH  11  12
ATOM     12  C   UNL d   1      51.577  34.548  53.369  0.00  0.00     0.286 C 
ATOM     13  N   UNL d   1      52.237  34.120  53.616  0.00  0.00    -0.206 NA
ATOM     14  O   UNL d   1      51.433  35.286  53.713  0.00  0.00    -0.265 OA
BRANCH  13  15
ATOM     15  C   UNL d   1      52.389  33.382  53.279  0.00  0.00     0.104 C 
BRANCH  15  16
ATOM     16  C   UNL d   1      53.085  32.980  53.469  0.00  0.00     0.042 A 
ATOM     17  C   UNL d   1      53.160  32.174  53.289  0.00  0.00     0.096 A 
ATOM     18  C   UNL d   1      53.854  31.766  53.477  0.00  0.00     0.024 A 
ATOM     19  C   UNL d   1      54.477  32.177  53.849  0.00  0.00     0.002 A 
ATOM     20  C   UNL d   1      54.396  32.979  54.025  0.00  0.00     0.000 A 
ATOM     21  C   UNL d   1      53.705  33.379  53.836  0.00  0.00     0.004 A 
BRANCH  17  22
ATOM     22  O   UNL d   1      52.543  31.768  52.921  0.00  0.00    -0.328 OA
ATOM     23  C   UNL d   1      52.574  30.955  52.842  0.00  0.00     0.181 C 
ENDBRANCH  17  22
ENDBRANCH  15  16
ENDBRANCH  13  15
ENDBRANCH  11  12
ENDBRANCH  10  11
ENDBRANCH   3  10
BRANCH   7  24
ATOM     24  C   UNL d   1      47.378  35.855  52.378  0.00  0.00     0.039 A 
ATOM     25  C   UNL d   1      47.621  36.277  53.023  0.00  0.00     0.101 A 
ATOM     26  N   UNL d   1      47.088  36.702  53.463  0.00  0.00    -0.242 NA
ATOM     27  C   UNL d   1      46.289  36.709  53.255  0.00  0.00     0.099 A 
ATOM     28  C   UNL d   1      46.042  36.280  52.599  0.00  0.00     0.021 A 
ATOM     29  C   UNL d   1      46.586  35.849  52.154  0.00  0.00     0.005 A 
ENDBRANCH   7  24
TORSDOF 7
ENDMDL
MODEL 4
REMARK VINA RESULT:      -7.5      1.457      2.466
REMARK  7 active torsions:
REMARK  status: ('A' for Active; 'I' for Inactive)
REMARK    1  A    between atoms: S_10  and  C_3 
REMARK    2  A    between atoms: C_12  and  C_7 
REMARK    3  A    between atoms: C_19  and  S_10 
REMARK    4  A    between atoms: C_11  and  C_19 
REMARK       I    between atoms: N_14  and  C_11 
REMARK    5  A    between atoms: C_13  and  C_15 
REMARK    6  A    between atoms: C_15  and  N_14 
REMARK    7  A    between atoms: O_21  and  C_17 
ROOT
ATOM      1  N   UNL d   1      52.664  32.865  53.158  0.00  0.00    -0.186 N 
ATOM      2  N   UNL d   1      53.240  33.215  53.617  0.00  0.00    -0.162 NA
ATOM      3  C   UNL d   1      52.001  33.175  52.773  0.00  0.00     0.217 A 
ATOM      4  C   UNL d   1      52.679  32.056  53.006  0.00  0.00     0.187 A 
ATOM      5  N   UNL d   1      51.623  32.558  52.394  0.00  0.00    -0.120 NA
ATOM      6  N   UNL d   1      52.042  31.863  52.537  0.00  0.00    -0.127 NA
ATOM      7  C   UNL d   1      53.846  32.751  53.932  0.00  0.00     0.103 A 
ATOM      8  C   UNL d   1      53.289  31.592  53.324  0.00  0.00     0.042 A 
ATOM      9  C   UNL d   1      53.867  31.938  53.783  0.00  0.00     0.024 A 
ENDROOT
BRANCH   3  10
ATOM     10  S   UNL d   1      51.749  33.961  52.761  0.00  0.00    -0.041 SA
BRANCH  10  11
ATOM     11  C   UNL d   1      50.988  34.154  52.967  0.00  0.00     0.101 C 
BRANCH  11  12
ATOM     12  C   UNL d   1      50.831  34.858  53.345  0.00  0.00     0.286 C 
ATOM     13  N   UNL d   1      50.101  35.227  53.248  0.00  0.00    -0.206 NA
ATOM     14  O   UNL d   1      51.395  35.218  53.831  0.00  0.00    -0.265 OA
BRANCH  13  15
ATOM     15  C   UNL d   1      49.531  34.876  52.765  0.00  0.00     0.104 C 
BRANCH  15  16
ATOM     16  C   UNL d   1      48.809  35.256  52.640  0.00  0.00     0.042 A 
ATOM     17  C   UNL d   1      48.416  35.170  51.915  0.00  0.00     0.096 A 
ATOM     18  C   UNL d   1      47.692  35.549  51.784  0.00  0.00     0.024 A 
ATOM     19  C   UNL d   1      47.365  36.017  52.391  0.00  0.00     0.002 A 
ATOM     20  C   UNL d   1      47.761  36.098  53.110  0.00  0.00     0.000 A 
ATOM     21  C   UNL d   1      48.478  35.721  53.235  0.00  0.00     0.004 A 
BRANCH  17  22
ATOM     22  O   UNL d   1      48.740  34.707  51.315  0.00  0.00    -0.328 OA
ATOM     23  C   UNL d   1      48.287  34.489  50.672  0.00  0.00     0.181 C 
ENDBRANCH  17  22
ENDBRANCH  15  16
ENDBRANCH  13  15
ENDBRANCH  11  12
ENDBRANCH  10  11
ENDBRANCH   3  10
BRANCH   7  24
ATOM     24  C   UNL d   1      54.427  33.112  54.396  0.00  0.00     0.039 A 
ATOM     25  C   UNL d   1      55.138  33.327  54.079  0.00  0.00     0.101 A 
ATOM     26  N   UNL d   1      55.705  33.681  54.539  0.00  0.00    -0.242 NA
ATOM     27  C   UNL d   1      55.561  33.825  55.339  0.00  0.00     0.099 A 
ATOM     28  C   UNL d   1      54.838  33.606  55.662  0.00  0.00     0.021 A 
ATOM     29  C   UNL d   1      54.263  33.246  55.193  0.00  0.00     0.005 A 
ENDBRANCH   7  24
TORSDOF 7
ENDMDL
