MODEL 1
REMARK VINA RESULT:      77.6      0.000      0.000
REMARK  5 active torsions:
REMARK  status: ('A' for Active; 'I' for Inactive)
REMARK    1  A    between atoms: N_5  and  C_1 
REMARK    2  A    between atoms: N_8  and  C_2 
REMARK    3  A    between atoms: C_26  and  N_4 
REMARK    4  A    between atoms: C_22  and  N_9 
REMARK    5  A    between atoms: C_21  and  C_22 
ROOT
ATOM      1  C   UNL d   1      14.254  14.840  -3.192  0.00  0.00     0.199 A 
ATOM      2  C   UNL d   1      13.829  14.610  -3.870  0.00  0.00     0.092 A 
ATOM      3  C   UNL d   1      14.364  14.315  -2.567  0.00  0.00     0.288 A 
ATOM      4  N   UNL d   1      14.047  13.549  -2.616  0.00  0.00    -0.272 N 
ATOM      5  C   UNL d   1      13.514  13.842  -3.911  0.00  0.00     0.034 A 
ATOM      6  C   UNL d   1      13.624  13.314  -3.284  0.00  0.00     0.068 A 
ATOM      7  O   UNL d   1      14.787  14.550  -1.900  0.00  0.00    -0.265 OA
ATOM      8  C   UNL d   1      13.092  13.607  -4.579  0.00  0.00     0.003 A 
ATOM      9  C   UNL d   1      13.311  12.553  -3.328  0.00  0.00     0.018 A 
ATOM     10  C   UNL d   1      12.779  12.843  -4.621  0.00  0.00     0.000 A 
ATOM     11  C   UNL d   1      12.888  12.318  -3.997  0.00  0.00     0.002 A 
ENDROOT
BRANCH   2  12
ATOM     12  N   UNL d   1      13.717  15.127  -4.492  0.00  0.00    -0.300 N 
ATOM     13  C   UNL d   1      14.341  15.283  -5.007  0.00  0.00     0.100 A 
ATOM     14  C   UNL d   1      14.235  15.808  -5.641  0.00  0.00     0.100 A 
ATOM     15  N   UNL d   1      13.506  16.175  -5.758  0.00  0.00    -0.300 N 
ATOM     16  C   UNL d   1      12.878  16.019  -5.240  0.00  0.00     0.100 A 
ATOM     17  C   UNL d   1      12.989  15.496  -4.611  0.00  0.00     0.100 A 
BRANCH  15  18
ATOM     18  C   UNL d   1      13.398  16.696  -6.386  0.00  0.00     0.080 C 
BRANCH  18  19
ATOM     19  C   UNL d   1      13.441  17.508  -6.258  0.00  0.00     0.020 A 
ATOM     20  C   UNL d   1      14.146  17.847  -6.004  0.00  0.00     0.028 A 
ATOM     21  C   UNL d   1      14.189  18.660  -5.876  0.00  0.00     0.119 A 
ATOM     22  O   UNL d   1      14.805  19.146  -5.627  0.00  0.00    -0.300 OA
ATOM     23  C   UNL d   1      13.525  19.133  -6.002  0.00  0.00     0.119 A 
ATOM     24  C   UNL d   1      14.524  19.923  -5.599  0.00  0.00     0.304 A 
ATOM     25  O   UNL d   1      13.731  19.917  -5.831  0.00  0.00    -0.300 OA
ATOM     26  C   UNL d   1      12.817  18.791  -6.258  0.00  0.00     0.026 A 
ATOM     27  C   UNL d   1      12.775  17.978  -6.386  0.00  0.00     0.004 A 
ENDBRANCH  18  19
ENDBRANCH  15  18
ENDBRANCH   2  12
BRANCH   1  28
ATOM     28  N   UNL d   1      14.568  15.607  -3.151  0.00  0.00    -0.107 N 
ATOM     29  O   UNL d   1      14.144  16.205  -2.774  0.00  0.00    -0.531 OA
ATOM     30  O   UNL d   1      15.306  15.774  -3.487  0.00  0.00    -0.531 OA
ENDBRANCH   1  28
BRANCH   4  31
ATOM     31  C   UNL d   1      14.156  13.023  -1.992  0.00  0.00     0.083 C 
ATOM     32  C   UNL d   1      14.839  12.552  -1.957  0.00  0.00     0.021 C 
ENDBRANCH   4  31
TORSDOF 5
ENDMDL
