MODEL 1
REMARK VINA RESULT:      62.2      0.000      0.000
REMARK  4 active torsions:
REMARK  status: ('A' for Active; 'I' for Inactive)
REMARK    1  A    between atoms: C_7  and  C_1 
REMARK       I    between atoms: C_6  and  N_8 
REMARK    2  A    between atoms: C_14  and  C_6 
REMARK    3  A    between atoms: N_8  and  C_15 
REMARK    4  A    between atoms: C_20  and  C_14 
ROOT
ATOM      1  C   UNL d   1     -55.220-101.981 -42.377  0.00  0.00     0.024 A 
ATOM      2  C   UNL d   1     -55.566-102.462 -42.939  0.00  0.00     0.004 A 
ATOM      3  C   UNL d   1     -54.786-101.304 -42.596  0.00  0.00     0.004 A 
ATOM      4  C   UNL d   1     -55.059-101.609 -43.975  0.00  0.00     0.085 A 
ATOM      5  C   UNL d   1     -55.488-102.277 -43.752  0.00  0.00     0.019 A 
ATOM      6  C   UNL d   1     -54.712-101.128 -43.408  0.00  0.00     0.019 A 
ENDROOT
BRANCH   1   7
ATOM      7  C   UNL d   1     -55.304-102.173 -41.587  0.00  0.00     0.111 A 
ATOM      8  N   UNL d   1     -56.004-102.384 -41.240  0.00  0.00    -0.239 NA
ATOM      9  C   UNL d   1     -55.883-102.538 -40.443  0.00  0.00     0.088 A 
ATOM     10  C   UNL d   1     -56.378-102.768 -39.835  0.00  0.00     0.020 A 
ATOM     11  C   UNL d   1     -55.070-102.416 -40.296  0.00  0.00     0.049 A 
ATOM     12  C   UNL d   1     -56.071-102.875 -39.095  0.00  0.00     0.002 A 
ATOM     13  C   UNL d   1     -55.258-102.753 -38.948  0.00  0.00     0.001 A 
ATOM     14  C   UNL d   1     -54.759-102.526 -39.541  0.00  0.00     0.008 A 
ATOM     15  C   UNL d   1     -54.967-102.868 -38.184  0.00  0.00     0.000 C 
ATOM     16  S   UNL d   1     -54.717-102.192 -41.000  0.00  0.00    -0.066 SA
ENDBRANCH   1   7
BRANCH   4  17
ATOM     17  N   UNL d   1     -54.976-101.420 -44.754  0.00  0.00    -0.208 NA
ATOM     18  C   UNL d   1     -55.134-100.714 -45.002  0.00  0.00     0.279 C 
ATOM     19  O   UNL d   1     -55.047-100.503 -45.842  0.00  0.00    -0.265 OA
BRANCH  18  20
ATOM     20  C   UNL d   1     -55.380-100.213 -44.403  0.00  0.00     0.062 C 
BRANCH  20  21
ATOM     21  C   UNL d   1     -56.038 -99.751 -44.509  0.00  0.00     0.005 A 
ATOM     22  C   UNL d   1     -56.264 -99.241 -43.910  0.00  0.00     0.000 A 
ATOM     23  C   UNL d   1     -56.939 -98.755 -44.000  0.00  0.00     0.000 A 
ATOM     24  C   UNL d   1     -57.374 -98.797 -44.701  0.00  0.00     0.000 A 
ATOM     25  C   UNL d   1     -57.136 -99.317 -45.301  0.00  0.00     0.000 A 
ATOM     26  C   UNL d   1     -56.477 -99.792 -45.215  0.00  0.00     0.000 A 
ENDBRANCH  20  21
ENDBRANCH  18  20
ENDBRANCH   4  17
TORSDOF 4
ENDMDL
