MODEL 1
REMARK VINA RESULT:      -0.8      0.000      0.000
REMARK  3 active torsions:
REMARK  status: ('A' for Active; 'I' for Inactive)
REMARK    1  A    between atoms: C_4  and  C_1 
REMARK       I    between atoms: N_7  and  C_4 
REMARK    2  A    between atoms: C_9  and  N_7 
REMARK    3  A    between atoms: N_8  and  C_11 
ROOT
ATOM      1  C   UNL d   1      58.136  -1.515  29.808  0.00  0.00     0.263 C 
ATOM      2  N   UNL d   1      58.948  -1.393  29.784  0.00  0.00    -0.210 NA
ATOM      3  O   UNL d   1      57.793  -2.143  29.393  0.00  0.00    -0.270 OA
ENDROOT
BRANCH   1   4
ATOM      4  C   UNL d   1      57.850  -0.908  30.296  0.00  0.00     0.113 A 
ATOM      5  C   UNL d   1      57.406  -0.091  31.355  0.00  0.00     0.025 A 
ATOM      6  C   UNL d   1      57.609  -0.387  30.680  0.00  0.00     0.074 A 
ATOM      7  C   UNL d   1      57.330  -0.215  32.173  0.00  0.00     0.002 C 
ATOM      8  C   UNL d   1      57.118   0.680  31.454  0.00  0.00     0.002 C 
ATOM      9  C   UNL d   1      57.339   0.394  30.641  0.00  0.00     0.012 C 
ATOM     10  C   UNL d   1      57.845  -1.069  30.716  0.00  0.00    -0.023 A 
ATOM     11  C   UNL d   1      57.608  -0.061  29.897  0.00  0.00     0.172 A 
ATOM     12  C   UNL d   1      58.092  -1.658  30.450  0.00  0.00    -0.018 A 
ATOM     13  C   UNL d   1      57.833  -0.584  29.619  0.00  0.00     0.024 A 
ATOM     14  O   UNL d   1      57.389   0.682  29.601  0.00  0.00    -0.291 OA
ENDBRANCH   1   4
BRANCH   2  15
ATOM     15  C   UNL d   1      59.426  -1.908  29.338  0.00  0.00     0.100 A 
ATOM     16  C   UNL d   1      60.218  -1.715  29.216  0.00  0.00     0.082 A 
ATOM     17  C   UNL d   1      60.690  -2.225  28.774  0.00  0.00     0.019 A 
ATOM     18  C   UNL d   1      60.374  -2.924  28.455  0.00  0.00     0.002 A 
ATOM     19  C   UNL d   1      59.580  -3.105  28.585  0.00  0.00     0.002 A 
ATOM     20  C   UNL d   1      59.106  -2.599  29.025  0.00  0.00     0.021 A 
BRANCH  16  21
ATOM     21  N   UNL d   1      60.530  -1.020  29.533  0.00  0.00    -0.302 N 
ATOM     22  C   UNL d   1      60.835  -0.936  30.295  0.00  0.00     0.080 A 
ATOM     23  C   UNL d   1      61.089  -0.149  30.384  0.00  0.00     0.021 A 
ATOM     24  C   UNL d   1      60.937   0.245  29.673  0.00  0.00     0.021 A 
ATOM     25  C   UNL d   1      60.591  -0.292  29.145  0.00  0.00     0.080 A 
ENDBRANCH  16  21
ENDBRANCH   2  15
TORSDOF 3
ENDMDL
MODEL 2
REMARK VINA RESULT:       0.6      1.208      2.146
REMARK  3 active torsions:
REMARK  status: ('A' for Active; 'I' for Inactive)
REMARK    1  A    between atoms: C_4  and  C_1 
REMARK       I    between atoms: N_7  and  C_4 
REMARK    2  A    between atoms: C_9  and  N_7 
REMARK    3  A    between atoms: N_8  and  C_11 
ROOT
ATOM      1  C   UNL d   1      58.970   0.208  30.646  0.00  0.00     0.263 C 
ATOM      2  N   UNL d   1      58.994  -0.285  29.989  0.00  0.00    -0.210 NA
ATOM      3  O   UNL d   1      59.620   0.682  30.839  0.00  0.00    -0.270 OA
ENDROOT
BRANCH   1   4
ATOM      4  C   UNL d   1      58.218   0.083  30.971  0.00  0.00     0.113 A 
ATOM      5  C   UNL d   1      57.103  -0.275  31.756  0.00  0.00     0.025 A 
ATOM      6  C   UNL d   1      57.581  -0.008  31.222  0.00  0.00     0.074 A 
ATOM      7  C   UNL d   1      57.023  -0.681  32.477  0.00  0.00     0.002 C 
ATOM      8  C   UNL d   1      56.279  -0.190  31.723  0.00  0.00     0.002 C 
ATOM      9  C   UNL d   1      56.781   0.144  31.069  0.00  0.00     0.012 C 
ATOM     10  C   UNL d   1      58.277  -0.142  31.356  0.00  0.00    -0.023 A 
ATOM     11  C   UNL d   1      57.441   0.416  30.500  0.00  0.00     0.172 A 
ATOM     12  C   UNL d   1      58.955  -0.118  31.218  0.00  0.00    -0.018 A 
ATOM     13  C   UNL d   1      58.053   0.457  30.342  0.00  0.00     0.024 A 
ATOM     14  O   UNL d   1      56.747   0.682  30.133  0.00  0.00    -0.291 OA
ENDBRANCH   1   4
BRANCH   2  15
ATOM     15  C   UNL d   1      59.679  -0.306  29.518  0.00  0.00     0.100 A 
ATOM     16  C   UNL d   1      59.796  -0.943  29.007  0.00  0.00     0.082 A 
ATOM     17  C   UNL d   1      60.474  -0.962  28.541  0.00  0.00     0.019 A 
ATOM     18  C   UNL d   1      61.034  -0.350  28.582  0.00  0.00     0.002 A 
ATOM     19  C   UNL d   1      60.904   0.282  29.098  0.00  0.00     0.002 A 
ATOM     20  C   UNL d   1      60.229   0.305  29.564  0.00  0.00     0.021 A 
BRANCH  16  21
ATOM     21  N   UNL d   1      59.239  -1.551  28.967  0.00  0.00    -0.302 N 
ATOM     22  C   UNL d   1      58.591  -1.573  28.457  0.00  0.00     0.080 A 
ATOM     23  C   UNL d   1      58.177  -2.280  28.600  0.00  0.00     0.021 A 
ATOM     24  C   UNL d   1      58.576  -2.688  29.199  0.00  0.00     0.021 A 
ATOM     25  C   UNL d   1      59.234  -2.238  29.427  0.00  0.00     0.080 A 
ENDBRANCH  16  21
ENDBRANCH   2  15
TORSDOF 3
ENDMDL
