MODEL 1
REMARK VINA RESULT:      55.3      0.000      0.000
REMARK  3 active torsions:
REMARK  status: ('A' for Active; 'I' for Inactive)
REMARK    1  A    between atoms: C_10  and  C_4 
REMARK    2  A    between atoms: C_11  and  C_7 
REMARK    3  A    between atoms: C_12  and  C_10 
ROOT
ATOM      1  N   UNL d   1      59.473  49.467  51.055  0.00  0.00    -0.186 N 
ATOM      2  N   UNL d   1      58.857  49.414  50.491  0.00  0.00    -0.162 NA
ATOM      3  C   UNL d   1      59.283  49.616  51.852  0.00  0.00     0.217 A 
ATOM      4  C   UNL d   1      60.284  49.400  50.996  0.00  0.00     0.187 A 
ATOM      5  N   UNL d   1      60.609  49.505  51.744  0.00  0.00    -0.127 NA
ATOM      6  N   UNL d   1      59.994  49.637  52.263  0.00  0.00    -0.120 NA
ATOM      7  C   UNL d   1      58.075  49.508  50.722  0.00  0.00     0.108 A 
ATOM      8  S   UNL d   1      58.494  49.708  52.063  0.00  0.00    -0.045 SA
ATOM      9  C   UNL d   1      57.883  49.658  51.519  0.00  0.00     0.059 A 
ENDROOT
BRANCH   4  10
ATOM     10  C   UNL d   1      60.721  49.254  50.323  0.00  0.00     0.041 C 
BRANCH  10  11
ATOM     11  C   UNL d   1      61.106  48.545  50.240  0.00  0.00     0.003 A 
ATOM     12  C   UNL d   1      61.426  48.324  49.516  0.00  0.00     0.000 A 
ATOM     13  C   UNL d   1      61.819  47.605  49.421  0.00  0.00     0.000 A 
ATOM     14  C   UNL d   1      61.889  47.106  50.062  0.00  0.00     0.000 A 
ATOM     15  C   UNL d   1      61.571  47.323  50.787  0.00  0.00     0.000 A 
ATOM     16  C   UNL d   1      61.183  48.032  50.882  0.00  0.00     0.000 A 
ENDBRANCH  10  11
ENDBRANCH   4  10
BRANCH   7  17
ATOM     17  C   UNL d   1      57.470  49.454  50.156  0.00  0.00     0.020 A 
ATOM     18  C   UNL d   1      56.702  49.708  50.343  0.00  0.00     0.002 A 
ATOM     19  C   UNL d   1      56.088  49.658  49.784  0.00  0.00     0.000 A 
ATOM     20  C   UNL d   1      56.252  49.347  49.025  0.00  0.00     0.000 A 
ATOM     21  C   UNL d   1      57.007  49.096  48.836  0.00  0.00     0.000 A 
ATOM     22  C   UNL d   1      57.624  49.146  49.400  0.00  0.00     0.002 A 
ENDBRANCH   7  17
TORSDOF 3
ENDMDL
