MODEL 1
REMARK VINA RESULT:      -4.9      0.000      0.000
REMARK  4 active torsions:
REMARK  status: ('A' for Active; 'I' for Inactive)
REMARK    1  A    between atoms: N_2  and  S_1 
REMARK    2  A    between atoms: C_4  and  C_3 
REMARK       I    between atoms: N_9  and  C_4 
REMARK    3  A    between atoms: C_15  and  N_9 
REMARK    4  A    between atoms: C_10  and  C_15 
ROOT
ATOM      1  N   UNL d   1      55.630  -0.159  33.390  0.00  0.00    -0.233 N 
ATOM      2  C   UNL d   1      56.643  -0.187  32.392  0.00  0.00     0.076 A 
ATOM      3  C   UNL d   1      56.198   0.230  32.938  0.00  0.00     0.096 A 
ATOM      4  C   UNL d   1      55.510  -0.968  33.293  0.00  0.00     0.091 A 
ATOM      5  C   UNL d   1      56.525  -0.999  32.292  0.00  0.00     0.008 A 
ATOM      6  C   UNL d   1      55.958  -1.385  32.744  0.00  0.00     0.020 A 
ENDROOT
BRANCH   2   7
ATOM      7  C   UNL d   1      57.214   0.206  31.939  0.00  0.00     0.281 C 
ATOM      8  O   UNL d   1      57.803   0.646  32.308  0.00  0.00    -0.265 OA
ATOM      9  N   UNL d   1      57.194   0.157  31.115  0.00  0.00    -0.206 NA
BRANCH   9  10
ATOM     10  C   UNL d   1      57.759   0.547  30.673  0.00  0.00     0.102 C 
BRANCH  10  11
ATOM     11  C   UNL d   1      57.624   0.682  29.871  0.00  0.00     0.021 C 
ATOM     12  C   UNL d   1      58.247   0.615  29.330  0.00  0.00     0.002 C 
ENDBRANCH  10  11
ENDBRANCH   9  10
ENDBRANCH   2   7
BRANCH   1  13
ATOM     13  S   UNL d   1      55.182   0.261  33.940  0.00  0.00     0.252 S 
ATOM     14  O   UNL d   1      54.614   0.414  33.360  0.00  0.00    -0.204 OA
ATOM     15  O   UNL d   1      55.747   0.109  34.517  0.00  0.00    -0.204 OA
ATOM     16  C   UNL d   1      54.733   0.682  34.490  0.00  0.00     0.164 C 
ENDBRANCH   1  13
TORSDOF 4
ENDMDL
MODEL 2
REMARK VINA RESULT:      -4.3      1.408      2.001
REMARK  4 active torsions:
REMARK  status: ('A' for Active; 'I' for Inactive)
REMARK    1  A    between atoms: N_2  and  S_1 
REMARK    2  A    between atoms: C_4  and  C_3 
REMARK       I    between atoms: N_9  and  C_4 
REMARK    3  A    between atoms: C_15  and  N_9 
REMARK    4  A    between atoms: C_10  and  C_15 
ROOT
ATOM      1  N   UNL d   1      56.704  -0.317  32.476  0.00  0.00    -0.233 N 
ATOM      2  C   UNL d   1      57.495   0.176  31.400  0.00  0.00     0.076 A 
ATOM      3  C   UNL d   1      56.904  -0.320  31.676  0.00  0.00     0.096 A 
ATOM      4  C   UNL d   1      57.098   0.185  32.997  0.00  0.00     0.091 A 
ATOM      5  C   UNL d   1      57.891   0.681  31.921  0.00  0.00     0.008 A 
ATOM      6  C   UNL d   1      57.690   0.682  32.717  0.00  0.00     0.020 A 
ENDROOT
BRANCH   2   7
ATOM      7  C   UNL d   1      57.695   0.172  30.597  0.00  0.00     0.281 C 
ATOM      8  O   UNL d   1      57.283   0.648  30.067  0.00  0.00    -0.265 OA
ATOM      9  N   UNL d   1      58.307  -0.310  30.325  0.00  0.00    -0.206 NA
BRANCH   9  10
ATOM     10  C   UNL d   1      58.499  -0.310  29.531  0.00  0.00     0.102 C 
BRANCH  10  11
ATOM     11  C   UNL d   1      59.018  -0.881  29.240  0.00  0.00     0.021 C 
ATOM     12  C   UNL d   1      59.364  -0.785  28.496  0.00  0.00     0.002 C 
ENDBRANCH  10  11
ENDBRANCH   9  10
ENDBRANCH   2   7
BRANCH   1  13
ATOM     13  S   UNL d   1      56.110  -0.816  32.753  0.00  0.00     0.252 S 
ATOM     14  O   UNL d   1      56.620  -1.461  32.684  0.00  0.00    -0.204 OA
ATOM     15  O   UNL d   1      55.602  -0.174  32.822  0.00  0.00    -0.204 OA
ATOM     16  C   UNL d   1      55.515  -1.316  33.031  0.00  0.00     0.164 C 
ENDBRANCH   1  13
TORSDOF 4
ENDMDL
MODEL 3
REMARK VINA RESULT:      -4.1      1.255      3.664
REMARK  4 active torsions:
REMARK  status: ('A' for Active; 'I' for Inactive)
REMARK    1  A    between atoms: N_2  and  S_1 
REMARK    2  A    between atoms: C_4  and  C_3 
REMARK       I    between atoms: N_9  and  C_4 
REMARK    3  A    between atoms: C_15  and  N_9 
REMARK    4  A    between atoms: C_10  and  C_15 
ROOT
ATOM      1  N   UNL d   1      56.786  -0.247  31.894  0.00  0.00    -0.233 N 
ATOM      2  C   UNL d   1      55.867  -0.203  32.979  0.00  0.00     0.076 A 
ATOM      3  C   UNL d   1      56.368   0.183  32.460  0.00  0.00     0.096 A 
ATOM      4  C   UNL d   1      56.698  -1.065  31.851  0.00  0.00     0.091 A 
ATOM      5  C   UNL d   1      55.777  -1.023  32.939  0.00  0.00     0.008 A 
ATOM      6  C   UNL d   1      56.193  -1.450  32.375  0.00  0.00     0.020 A 
ENDROOT
BRANCH   2   7
ATOM      7  C   UNL d   1      55.448   0.231  33.547  0.00  0.00     0.281 C 
ATOM      8  O   UNL d   1      54.771   0.646  33.333  0.00  0.00    -0.265 OA
ATOM      9  N   UNL d   1      55.709   0.248  34.330  0.00  0.00    -0.206 NA
BRANCH   9  10
ATOM     10  C   UNL d   1      55.292   0.678  34.885  0.00  0.00     0.102 C 
BRANCH  10  11
ATOM     11  C   UNL d   1      55.547   0.682  35.670  0.00  0.00     0.021 C 
ATOM     12  C   UNL d   1      54.999   0.597  36.283  0.00  0.00     0.002 C 
ENDBRANCH  10  11
ENDBRANCH   9  10
ENDBRANCH   2   7
BRANCH   1  13
ATOM     13  S   UNL d   1      57.290   0.141  31.371  0.00  0.00     0.252 S 
ATOM     14  O   UNL d   1      56.797  -0.063  30.742  0.00  0.00    -0.204 OA
ATOM     15  O   UNL d   1      57.782   0.345  31.997  0.00  0.00    -0.204 OA
ATOM     16  C   UNL d   1      57.796   0.530  30.848  0.00  0.00     0.164 C 
ENDBRANCH   1  13
TORSDOF 4
ENDMDL
MODEL 4
REMARK VINA RESULT:      -4.0      2.463      4.671
REMARK  4 active torsions:
REMARK  status: ('A' for Active; 'I' for Inactive)
REMARK    1  A    between atoms: N_2  and  S_1 
REMARK    2  A    between atoms: C_4  and  C_3 
REMARK       I    between atoms: N_9  and  C_4 
REMARK    3  A    between atoms: C_15  and  N_9 
REMARK    4  A    between atoms: C_10  and  C_15 
ROOT
ATOM      1  N   UNL d   1      58.751  -0.531  29.229  0.00  0.00    -0.233 N 
ATOM      2  C   UNL d   1      57.979   0.068  30.263  0.00  0.00     0.076 A 
ATOM      3  C   UNL d   1      58.469  -0.534  30.004  0.00  0.00     0.096 A 
ATOM      4  C   UNL d   1      58.539   0.078  28.716  0.00  0.00     0.091 A 
ATOM      5  C   UNL d   1      57.765   0.680  29.751  0.00  0.00     0.008 A 
ATOM      6  C   UNL d   1      58.046   0.682  28.980  0.00  0.00     0.020 A 
ENDROOT
BRANCH   2   7
ATOM      7  C   UNL d   1      57.697   0.063  31.041  0.00  0.00     0.281 C 
ATOM      8  O   UNL d   1      58.032   0.560  31.605  0.00  0.00    -0.265 OA
ATOM      9  N   UNL d   1      57.079  -0.440  31.255  0.00  0.00    -0.206 NA
BRANCH   9  10
ATOM     10  C   UNL d   1      56.805  -0.440  32.025  0.00  0.00     0.102 C 
BRANCH  10  11
ATOM     11  C   UNL d   1      56.310  -1.049  32.278  0.00  0.00     0.021 C 
ATOM     12  C   UNL d   1      55.867  -0.961  32.970  0.00  0.00     0.002 C 
ENDBRANCH  10  11
ENDBRANCH   9  10
ENDBRANCH   2   7
BRANCH   1  13
ATOM     13  S   UNL d   1      59.244  -1.137  28.968  0.00  0.00     0.252 S 
ATOM     14  O   UNL d   1      59.895  -0.746  29.289  0.00  0.00    -0.204 OA
ATOM     15  O   UNL d   1      58.596  -1.527  28.647  0.00  0.00    -0.204 OA
ATOM     16  C   UNL d   1      59.738  -1.744  28.706  0.00  0.00     0.164 C 
ENDBRANCH   1  13
TORSDOF 4
ENDMDL
MODEL 5
REMARK VINA RESULT:      -3.2      2.781      4.866
REMARK  4 active torsions:
REMARK  status: ('A' for Active; 'I' for Inactive)
REMARK    1  A    between atoms: N_2  and  S_1 
REMARK    2  A    between atoms: C_4  and  C_3 
REMARK       I    between atoms: N_9  and  C_4 
REMARK    3  A    between atoms: C_15  and  N_9 
REMARK    4  A    between atoms: C_10  and  C_15 
ROOT
ATOM      1  N   UNL d   1      59.163  -1.048  29.208  0.00  0.00    -0.233 N 
ATOM      2  C   UNL d   1      58.424  -0.057  29.913  0.00  0.00     0.076 A 
ATOM      3  C   UNL d   1      58.493  -0.824  29.632  0.00  0.00     0.096 A 
ATOM      4  C   UNL d   1      59.763  -0.502  29.067  0.00  0.00     0.091 A 
ATOM      5  C   UNL d   1      59.024   0.493  29.773  0.00  0.00     0.008 A 
ATOM      6  C   UNL d   1      59.691   0.268  29.350  0.00  0.00     0.020 A 
ENDROOT
BRANCH   2   7
ATOM      7  C   UNL d   1      57.750   0.166  30.338  0.00  0.00     0.281 C 
ATOM      8  O   UNL d   1      57.202   0.680  30.003  0.00  0.00    -0.265 OA
ATOM      9  N   UNL d   1      57.625  -0.126  31.100  0.00  0.00    -0.206 NA
BRANCH   9  10
ATOM     10  C   UNL d   1      56.957   0.099  31.515  0.00  0.00     0.102 C 
BRANCH  10  11
ATOM     11  C   UNL d   1      56.900  -0.082  32.317  0.00  0.00     0.021 C 
ATOM     12  C   UNL d   1      56.175  -0.318  32.637  0.00  0.00     0.002 C 
ENDBRANCH  10  11
ENDBRANCH   9  10
ENDBRANCH   2   7
BRANCH   1  13
ATOM     13  S   UNL d   1      59.233  -1.819  28.926  0.00  0.00     0.252 S 
ATOM     14  O   UNL d   1      59.900  -1.932  29.399  0.00  0.00    -0.204 OA
ATOM     15  O   UNL d   1      58.569  -1.707  28.455  0.00  0.00    -0.204 OA
ATOM     16  C   UNL d   1      59.303  -2.591  28.643  0.00  0.00     0.164 C 
ENDBRANCH   1  13
TORSDOF 4
ENDMDL
MODEL 6
REMARK VINA RESULT:      -2.9      2.790      4.263
REMARK  4 active torsions:
REMARK  status: ('A' for Active; 'I' for Inactive)
REMARK    1  A    between atoms: N_2  and  S_1 
REMARK    2  A    between atoms: C_4  and  C_3 
REMARK       I    between atoms: N_9  and  C_4 
REMARK    3  A    between atoms: C_15  and  N_9 
REMARK    4  A    between atoms: C_10  and  C_15 
ROOT
ATOM      1  N   UNL d   1      58.128   0.104  30.123  0.00  0.00    -0.233 N 
ATOM      2  C   UNL d   1      58.862  -0.752  29.255  0.00  0.00     0.076 A 
ATOM      3  C   UNL d   1      58.537  -0.599  29.991  0.00  0.00     0.096 A 
ATOM      4  C   UNL d   1      58.046   0.653  29.514  0.00  0.00     0.091 A 
ATOM      5  C   UNL d   1      58.781  -0.203  28.643  0.00  0.00     0.008 A 
ATOM      6  C   UNL d   1      58.374   0.497  28.776  0.00  0.00     0.020 A 
ENDROOT
BRANCH   2   7
ATOM      7  C   UNL d   1      59.272  -1.459  29.125  0.00  0.00     0.281 C 
ATOM      8  O   UNL d   1      60.090  -1.483  29.208  0.00  0.00    -0.265 OA
ATOM      9  N   UNL d   1      58.862  -2.143  28.912  0.00  0.00    -0.206 NA
BRANCH   9  10
ATOM     10  C   UNL d   1      59.272  -2.838  28.784  0.00  0.00     0.102 C 
BRANCH  10  11
ATOM     11  C   UNL d   1      58.878  -3.489  28.467  0.00  0.00     0.021 C 
ATOM     12  C   UNL d   1      59.245  -4.229  28.455  0.00  0.00     0.002 C 
ENDBRANCH  10  11
ENDBRANCH   9  10
ENDBRANCH   2   7
BRANCH   1  13
ATOM     13  S   UNL d   1      57.801   0.258  30.863  0.00  0.00     0.252 S 
ATOM     14  O   UNL d   1      57.091  -0.086  30.622  0.00  0.00    -0.204 OA
ATOM     15  O   UNL d   1      58.508   0.601  31.104  0.00  0.00    -0.204 OA
ATOM     16  C   UNL d   1      57.474   0.413  31.605  0.00  0.00     0.164 C 
ENDBRANCH   1  13
TORSDOF 4
ENDMDL
MODEL 7
REMARK VINA RESULT:      -2.3      9.290     10.186
REMARK  4 active torsions:
REMARK  status: ('A' for Active; 'I' for Inactive)
REMARK    1  A    between atoms: N_2  and  S_1 
REMARK    2  A    between atoms: C_4  and  C_3 
REMARK       I    between atoms: N_9  and  C_4 
REMARK    3  A    between atoms: C_15  and  N_9 
REMARK    4  A    between atoms: C_10  and  C_15 
ROOT
ATOM      1  N   UNL d   1      59.661  -9.503  33.318  0.00  0.00    -0.233 N 
ATOM      2  C   UNL d   1      60.404  -9.016  34.430  0.00  0.00     0.076 A 
ATOM      3  C   UNL d   1      59.684  -9.172  34.073  0.00  0.00     0.096 A 
ATOM      4  C   UNL d   1      60.362  -9.676  32.923  0.00  0.00     0.091 A 
ATOM      5  C   UNL d   1      61.110  -9.189  34.036  0.00  0.00     0.008 A 
ATOM      6  C   UNL d   1      61.085  -9.518  33.284  0.00  0.00     0.020 A 
ENDROOT
BRANCH   2   7
ATOM      7  C   UNL d   1      60.425  -8.685  35.188  0.00  0.00     0.281 C 
ATOM      8  O   UNL d   1      60.718  -9.121  35.821  0.00  0.00    -0.265 OA
ATOM      9  N   UNL d   1      60.153  -7.916  35.311  0.00  0.00    -0.206 NA
BRANCH   9  10
ATOM     10  C   UNL d   1      60.177  -7.594  36.062  0.00  0.00     0.102 C 
BRANCH  10  11
ATOM     11  C   UNL d   1      60.112  -6.776  36.154  0.00  0.00     0.021 C 
ATOM     12  C   UNL d   1      59.395  -6.398  35.995  0.00  0.00     0.002 C 
ENDBRANCH  10  11
ENDBRANCH   9  10
ENDBRANCH   2   7
BRANCH   1  13
ATOM     13  S   UNL d   1      58.936  -9.660  32.960  0.00  0.00     0.252 S 
ATOM     14  O   UNL d   1      58.604  -9.818  33.698  0.00  0.00    -0.204 OA
ATOM     15  O   UNL d   1      59.266  -9.502  32.224  0.00  0.00    -0.204 OA
ATOM     16  C   UNL d   1      58.210  -9.817  32.600  0.00  0.00     0.164 C 
ENDBRANCH   1  13
TORSDOF 4
ENDMDL
