MODEL 1
REMARK VINA RESULT:      69.8      0.000      0.000
REMARK  3 active torsions:
REMARK  status: ('A' for Active; 'I' for Inactive)
REMARK    1  A    between atoms: N_3  and  S_1 
REMARK    2  A    between atoms: C_9  and  S_1 
REMARK    3  A    between atoms: C_2  and  N_3 
ROOT
ATOM      1  C   UNL d   1      58.232  49.673  51.545  0.00  0.00     0.157 A 
ATOM      2  C   UNL d   1      58.207  49.679  52.366  0.00  0.00     0.102 A 
ATOM      3  C   UNL d   1      57.477  49.679  52.749  0.00  0.00     0.110 A 
ATOM      4  C   UNL d   1      56.771  49.674  52.312  0.00  0.00     0.207 A 
ATOM      5  C   UNL d   1      57.549  49.668  51.112  0.00  0.00     0.035 A 
ATOM      6  C   UNL d   1      56.819  49.668  51.495  0.00  0.00     0.042 A 
ATOM      7 CL   UNL d   1      58.896  49.684  52.812  0.00  0.00    -0.079 Cl
ATOM      8 CL   UNL d   1      57.435  49.685  53.578  0.00  0.00    -0.078 Cl
ATOM      9  O   UNL d   1      56.040  49.674  52.695  0.00  0.00    -0.286 OA
ATOM     10  C   UNL d   1      57.574  49.662  50.292  0.00  0.00     0.003 A 
ATOM     11  C   UNL d   1      56.113  49.663  51.058  0.00  0.00     0.003 A 
ATOM     12  C   UNL d   1      56.154  49.657  50.229  0.00  0.00     0.000 A 
ATOM     13  C   UNL d   1      56.885  49.656  49.846  0.00  0.00     0.000 A 
ENDROOT
BRANCH   1  14
ATOM     14  N   UNL d   1      58.962  49.672  51.162  0.00  0.00    -0.316 NA
BRANCH  14  15
ATOM     15  S   UNL d   1      59.693  49.672  50.779  0.00  0.00     0.327 S 
ATOM     16  O   UNL d   1      60.070  49.675  51.497  0.00  0.00    -0.186 OA
ATOM     17  O   UNL d   1      59.305  49.669  50.051  0.00  0.00    -0.186 OA
BRANCH  15  18
ATOM     18  C   UNL d   1      60.419  49.672  50.398  0.00  0.00     0.116 A 
ATOM     19  C   UNL d   1      60.459  49.701  49.586  0.00  0.00     0.014 A 
ATOM     20  C   UNL d   1      61.190  49.701  49.202  0.00  0.00     0.001 A 
ATOM     21  C   UNL d   1      61.887  49.670  49.644  0.00  0.00     0.000 A 
ATOM     22  C   UNL d   1      61.854  49.639  50.468  0.00  0.00     0.001 A 
ATOM     23  C   UNL d   1      62.613  49.670  49.241  0.00  0.00     0.000 C 
ATOM     24  C   UNL d   1      61.115  49.640  50.855  0.00  0.00     0.014 A 
ENDBRANCH  15  18
ENDBRANCH  14  15
ENDBRANCH   1  14
TORSDOF 3
ENDMDL
MODEL 2
REMARK VINA RESULT:      72.5      1.364      4.089
REMARK  3 active torsions:
REMARK  status: ('A' for Active; 'I' for Inactive)
REMARK    1  A    between atoms: N_3  and  S_1 
REMARK    2  A    between atoms: C_9  and  S_1 
REMARK    3  A    between atoms: C_2  and  N_3 
ROOT
ATOM      1  C   UNL d   1      60.378  49.496  51.272  0.00  0.00     0.157 A 
ATOM      2  C   UNL d   1      60.386  49.565  52.089  0.00  0.00     0.102 A 
ATOM      3  C   UNL d   1      61.107  49.631  52.483  0.00  0.00     0.110 A 
ATOM      4  C   UNL d   1      61.821  49.629  52.060  0.00  0.00     0.207 A 
ATOM      5  C   UNL d   1      61.068  49.493  50.851  0.00  0.00     0.035 A 
ATOM      6  C   UNL d   1      61.790  49.559  51.245  0.00  0.00     0.042 A 
ATOM      7 CL   UNL d   1      59.688  49.568  52.522  0.00  0.00    -0.079 Cl
ATOM      8 CL   UNL d   1      61.132  49.701  53.310  0.00  0.00    -0.078 Cl
ATOM      9  O   UNL d   1      62.543  49.695  52.454  0.00  0.00    -0.286 OA
ATOM     10  C   UNL d   1      61.060  49.425  50.033  0.00  0.00     0.003 A 
ATOM     11  C   UNL d   1      62.504  49.557  50.821  0.00  0.00     0.003 A 
ATOM     12  C   UNL d   1      62.479  49.487  49.994  0.00  0.00     0.000 A 
ATOM     13  C   UNL d   1      61.758  49.421  49.600  0.00  0.00     0.000 A 
ENDROOT
BRANCH   1  14
ATOM     14  N   UNL d   1      59.656  49.430  50.877  0.00  0.00    -0.316 NA
BRANCH  14  15
ATOM     15  S   UNL d   1      58.934  49.363  50.483  0.00  0.00     0.327 S 
ATOM     16  O   UNL d   1      58.604  49.028  51.144  0.00  0.00    -0.186 OA
ATOM     17  O   UNL d   1      59.274  49.705  49.814  0.00  0.00    -0.186 OA
BRANCH  15  18
ATOM     18  C   UNL d   1      58.217  49.298  50.092  0.00  0.00     0.116 A 
ATOM     19  C   UNL d   1      57.561  49.697  50.361  0.00  0.00     0.014 A 
ATOM     20  C   UNL d   1      56.839  49.630  49.967  0.00  0.00     0.001 A 
ATOM     21  C   UNL d   1      56.779  49.156  49.294  0.00  0.00     0.000 A 
ATOM     22  C   UNL d   1      57.440  48.748  49.015  0.00  0.00     0.001 A 
ATOM     23  C   UNL d   1      56.045  49.101  48.911  0.00  0.00     0.000 C 
ATOM     24  C   UNL d   1      58.170  48.815  49.414  0.00  0.00     0.014 A 
ENDBRANCH  15  18
ENDBRANCH  14  15
ENDBRANCH   1  14
TORSDOF 3
ENDMDL
