MODEL 1
REMARK VINA RESULT:      -0.5      0.000      0.000
REMARK  7 active torsions:
REMARK  status: ('A' for Active; 'I' for Inactive)
REMARK    1  A    between atoms: C_13  and  C_4 
REMARK    2  A    between atoms: N_16  and  C_6 
REMARK    3  A    between atoms: C_17  and  C_9 
REMARK    4  A    between atoms: N_11  and  C_19 
REMARK    5  A    between atoms: C_21  and  N_16 
REMARK    6  A    between atoms: C_19  and  C_20 
REMARK    7  A    between atoms: C_20  and  C_21 
ROOT
ATOM      1  C   UNL d   1      58.868  -9.451  30.460  0.00  0.00     0.168 A 
ATOM      2  N   UNL d   1      59.586  -9.540  30.864  0.00  0.00    -0.184 N 
ATOM      3  N   UNL d   1      60.294  -9.300  29.657  0.00  0.00    -0.162 NA
ATOM      4  C   UNL d   1      58.868  -9.290  29.671  0.00  0.00     0.055 A 
ATOM      5  N   UNL d   1      58.165  -9.528  30.871  0.00  0.00    -0.227 NA
ATOM      6  C   UNL d   1      59.576  -9.703  31.663  0.00  0.00     0.218 A 
ATOM      7  C   UNL d   1      59.575  -9.211  29.253  0.00  0.00     0.104 A 
ATOM      8  C   UNL d   1      58.846  -9.781  32.077  0.00  0.00     0.071 A 
ATOM      9  C   UNL d   1      58.162  -9.691  31.664  0.00  0.00     0.087 A 
ATOM     10  C   UNL d   1      59.574  -9.050  28.467  0.00  0.00     0.023 C 
ENDROOT
BRANCH   6  11
ATOM     11  N   UNL d   1      60.311  -9.795  32.080  0.00  0.00    -0.380 NA
BRANCH  11  12
ATOM     12  C   UNL d   1      61.058  -9.816  32.481  0.00  0.00     0.164 C 
BRANCH  12  13
ATOM     13  C   UNL d   1      61.079  -9.728  33.316  0.00  0.00     0.054 C 
BRANCH  13  14
ATOM     14  C   UNL d   1      60.990  -8.960  33.657  0.00  0.00     0.084 C 
BRANCH  14  15
ATOM     15  N   UNL d   1      60.958  -8.872  34.504  0.00  0.00    -0.285 N 
ATOM     16  C   UNL d   1      61.126  -9.468  35.075  0.00  0.00     0.183 A 
ATOM     17  N   UNL d   1      61.024  -9.132  35.850  0.00  0.00    -0.222 NA
ATOM     18  C   UNL d   1      60.791  -8.323  35.751  0.00  0.00     0.120 A 
ATOM     19  C   UNL d   1      60.751  -8.162  34.924  0.00  0.00     0.102 A 
ENDBRANCH  14  15
ENDBRANCH  13  14
ENDBRANCH  12  13
ENDBRANCH  11  12
ENDBRANCH   6  11
BRANCH   9  20
ATOM     20  C   UNL d   1      57.420  -9.771  32.091  0.00  0.00     0.018 C 
ATOM     21  C   UNL d   1      57.431  -9.804  32.953  0.00  0.00     0.002 C 
ATOM     22  C   UNL d   1      56.678  -9.818  31.664  0.00  0.00     0.002 C 
ENDBRANCH   9  20
BRANCH   4  23
ATOM     23  C   UNL d   1      58.143  -9.200  29.263  0.00  0.00     0.004 A 
ATOM     24  C   UNL d   1      57.966  -8.490  28.901  0.00  0.00     0.000 A 
ATOM     25  C   UNL d   1      57.250  -8.402  28.500  0.00  0.00     0.000 A 
ATOM     26  C   UNL d   1      56.728  -9.025  28.469  0.00  0.00     0.000 A 
ATOM     27  C   UNL d   1      56.911  -9.739  28.836  0.00  0.00     0.000 A 
ATOM     28  C   UNL d   1      57.618  -9.818  29.229  0.00  0.00     0.000 A 
ENDBRANCH   4  23
TORSDOF 7
ENDMDL
