MODEL 1
REMARK VINA RESULT:      25.0      0.000      0.000
REMARK  6 active torsions:
REMARK  status: ('A' for Active; 'I' for Inactive)
REMARK    1  A    between atoms: C_8  and  C_1 
REMARK    2  A    between atoms: C_7  and  C_2 
REMARK    3  A    between atoms: O_11  and  C_7 
REMARK    4  A    between atoms: O_12  and  C_8 
REMARK    5  A    between atoms: C_16  and  O_11 
REMARK    6  A    between atoms: C_15  and  O_12 
ROOT
ATOM      1  C   UNL d   1      58.792  49.675  50.956  0.00  0.00     0.081 A 
ATOM      2  C   UNL d   1      60.156  49.666  51.395  0.00  0.00     0.081 A 
ATOM      3  N   UNL d   1      59.852  49.683  49.999  0.00  0.00    -0.245 NA
ATOM      4  C   UNL d   1      60.408  49.674  50.610  0.00  0.00     0.086 A 
ATOM      5  C   UNL d   1      59.044  49.683  50.171  0.00  0.00     0.086 A 
ATOM      6  C   UNL d   1      59.348  49.667  51.564  0.00  0.00     0.014 A 
ATOM      7  C   UNL d   1      58.497  49.691  49.547  0.00  0.00     0.021 C 
ATOM      8  C   UNL d   1      61.236  49.674  50.429  0.00  0.00     0.021 C 
ENDROOT
BRANCH   1   9
ATOM      9  C   UNL d   1      57.982  49.675  51.146  0.00  0.00     0.302 C 
ATOM     10  O   UNL d   1      57.730  49.655  51.931  0.00  0.00    -0.259 OA
BRANCH   9  11
ATOM     11  O   UNL d   1      57.425  49.695  50.538  0.00  0.00    -0.271 OA
BRANCH  11  12
ATOM     12  C   UNL d   1      56.653  49.445  50.670  0.00  0.00     0.126 C 
ATOM     13  C   UNL d   1      56.112  49.682  50.175  0.00  0.00     0.029 C 
ENDBRANCH  11  12
ENDBRANCH   9  11
ENDBRANCH   1   9
BRANCH   2  14
ATOM     14  C   UNL d   1      60.727  49.658  52.008  0.00  0.00     0.302 C 
ATOM     15  O   UNL d   1      60.499  49.623  52.783  0.00  0.00    -0.259 OA
BRANCH  14  16
ATOM     16  O   UNL d   1      61.548  49.686  51.805  0.00  0.00    -0.271 OA
BRANCH  16  17
ATOM     17  C   UNL d   1      62.112  49.463  52.344  0.00  0.00     0.126 C 
ATOM     18  C   UNL d   1      62.044  49.639  53.221  0.00  0.00     0.029 C 
ENDBRANCH  16  17
ENDBRANCH  14  16
ENDBRANCH   2  14
TORSDOF 6
ENDMDL
