MODEL 1
REMARK VINA RESULT:      -4.5      0.000      0.000
REMARK  7 active torsions:
REMARK  status: ('A' for Active; 'I' for Inactive)
REMARK    1  A    between atoms: N_4  and  C_2 
REMARK    2  A    between atoms: C_8  and  C_3 
REMARK       I    between atoms: C_7  and  N_4 
REMARK    3  A    between atoms: C_13  and  C_7 
REMARK    4  A    between atoms: S_11  and  C_16 
REMARK    5  A    between atoms: C_12  and  S_11 
REMARK    6  A    between atoms: C_19  and  C_13 
REMARK    7  A    between atoms: C_16  and  C_19 
ROOT
ATOM      1  N   UNL d   1      57.853  -0.214  29.976  0.00  0.00    -0.183 NA
ATOM      2  C   UNL d   1      58.097   0.317  30.567  0.00  0.00     0.281 C 
ATOM      3  O   UNL d   1      58.886   0.492  30.676  0.00  0.00    -0.265 OA
ENDROOT
BRANCH   1   4
ATOM      4  C   UNL d   1      58.426  -0.567  29.494  0.00  0.00     0.197 A 
ATOM      5  N   UNL d   1      58.676  -1.355  29.537  0.00  0.00    -0.219 NA
ATOM      6  C   UNL d   1      59.252  -1.464  28.955  0.00  0.00     0.108 A 
ATOM      7  C   UNL d   1      59.354  -0.748  28.557  0.00  0.00     0.059 A 
ATOM      8  S   UNL d   1      58.845  -0.191  28.888  0.00  0.00    -0.046 SA
BRANCH   6   9
ATOM      9  C   UNL d   1      59.648  -2.158  28.801  0.00  0.00     0.100 A 
ATOM     10  N   UNL d   1      59.234  -2.881  28.800  0.00  0.00    -0.242 NA
ATOM     11  C   UNL d   1      59.643  -3.582  28.643  0.00  0.00     0.099 A 
ATOM     12  C   UNL d   1      60.454  -3.564  28.490  0.00  0.00     0.021 A 
ATOM     13  C   UNL d   1      60.859  -2.845  28.493  0.00  0.00     0.003 A 
ATOM     14  C   UNL d   1      60.454  -2.140  28.649  0.00  0.00     0.021 A 
ENDBRANCH   6   9
ENDBRANCH   1   4
BRANCH   2  15
ATOM     15  C   UNL d   1      57.520   0.669  31.048  0.00  0.00     0.063 C 
BRANCH  15  16
ATOM     16  C   UNL d   1      57.473   0.457  31.849  0.00  0.00     0.012 C 
BRANCH  16  17
ATOM     17  C   UNL d   1      56.806   0.650  32.290  0.00  0.00     0.036 C 
BRANCH  17  18
ATOM     18  S   UNL d   1      56.407   0.074  32.713  0.00  0.00    -0.086 SA
BRANCH  18  19
ATOM     19  C   UNL d   1      55.980   0.277  33.388  0.00  0.00     0.029 A 
ATOM     20  C   UNL d   1      55.154   0.296  33.360  0.00  0.00     0.005 A 
ATOM     21  C   UNL d   1      54.723   0.498  34.032  0.00  0.00    -0.012 A 
ATOM     22  C   UNL d   1      55.116   0.682  34.734  0.00  0.00     0.026 A 
ATOM     23  C   UNL d   1      55.939   0.663  34.763  0.00  0.00    -0.012 A 
ATOM     24  C   UNL d   1      56.372   0.461  34.090  0.00  0.00     0.005 A 
ENDBRANCH  18  19
ENDBRANCH  17  18
ENDBRANCH  16  17
ENDBRANCH  15  16
ENDBRANCH   2  15
TORSDOF 7
ENDMDL
MODEL 2
REMARK VINA RESULT:      -3.1      1.262      6.073
REMARK  7 active torsions:
REMARK  status: ('A' for Active; 'I' for Inactive)
REMARK    1  A    between atoms: N_4  and  C_2 
REMARK    2  A    between atoms: C_8  and  C_3 
REMARK       I    between atoms: C_7  and  N_4 
REMARK    3  A    between atoms: C_13  and  C_7 
REMARK    4  A    between atoms: S_11  and  C_16 
REMARK    5  A    between atoms: C_12  and  S_11 
REMARK    6  A    between atoms: C_19  and  C_13 
REMARK    7  A    between atoms: C_16  and  C_19 
ROOT
ATOM      1  N   UNL d   1      57.707  -0.831  30.451  0.00  0.00    -0.183 NA
ATOM      2  C   UNL d   1      58.244  -0.517  29.900  0.00  0.00     0.281 C 
ATOM      3  O   UNL d   1      58.520   0.248  29.971  0.00  0.00    -0.265 OA
ENDROOT
BRANCH   1   4
ATOM      4  C   UNL d   1      57.452  -0.355  31.077  0.00  0.00     0.197 A 
ATOM      5  N   UNL d   1      56.915  -0.578  31.667  0.00  0.00    -0.219 NA
ATOM      6  C   UNL d   1      56.824   0.068  32.175  0.00  0.00     0.108 A 
ATOM      7  C   UNL d   1      57.301   0.682  31.899  0.00  0.00     0.059 A 
ATOM      8  S   UNL d   1      57.691   0.425  31.220  0.00  0.00    -0.046 SA
BRANCH   6   9
ATOM      9  C   UNL d   1      56.346   0.092  32.833  0.00  0.00     0.100 A 
ATOM     10  N   UNL d   1      56.506   0.634  33.445  0.00  0.00    -0.242 NA
ATOM     11  C   UNL d   1      56.015   0.652  34.109  0.00  0.00     0.099 A 
ATOM     12  C   UNL d   1      55.374   0.137  34.166  0.00  0.00     0.021 A 
ATOM     13  C   UNL d   1      55.219  -0.399  33.557  0.00  0.00     0.003 A 
ATOM     14  C   UNL d   1      55.707  -0.421  32.889  0.00  0.00     0.021 A 
ENDBRANCH   6   9
ENDBRANCH   1   4
BRANCH   2  15
ATOM     15  C   UNL d   1      58.497  -0.996  29.273  0.00  0.00     0.063 C 
BRANCH  15  16
ATOM     16  C   UNL d   1      59.304  -1.180  29.200  0.00  0.00     0.012 C 
BRANCH  16  17
ATOM     17  C   UNL d   1      59.539  -1.861  28.804  0.00  0.00     0.036 C 
BRANCH  17  18
ATOM     18  S   UNL d   1      60.210  -2.267  29.040  0.00  0.00    -0.086 SA
BRANCH  18  19
ATOM     19  C   UNL d   1      60.300  -3.064  28.849  0.00  0.00     0.029 A 
ATOM     20  C   UNL d   1      59.638  -3.515  28.647  0.00  0.00     0.005 A 
ATOM     21  C   UNL d   1      59.725  -4.312  28.455  0.00  0.00    -0.012 A 
ATOM     22  C   UNL d   1      60.473  -4.659  28.464  0.00  0.00     0.026 A 
ATOM     23  C   UNL d   1      61.133  -4.211  28.665  0.00  0.00    -0.012 A 
ATOM     24  C   UNL d   1      61.048  -3.412  28.858  0.00  0.00     0.005 A 
ENDBRANCH  18  19
ENDBRANCH  17  18
ENDBRANCH  16  17
ENDBRANCH  15  16
ENDBRANCH   2  15
TORSDOF 7
ENDMDL
MODEL 3
REMARK VINA RESULT:      -2.8      8.200     10.080
REMARK  7 active torsions:
REMARK  status: ('A' for Active; 'I' for Inactive)
REMARK    1  A    between atoms: N_4  and  C_2 
REMARK    2  A    between atoms: C_8  and  C_3 
REMARK       I    between atoms: C_7  and  N_4 
REMARK    3  A    between atoms: C_13  and  C_7 
REMARK    4  A    between atoms: S_11  and  C_16 
REMARK    5  A    between atoms: C_12  and  S_11 
REMARK    6  A    between atoms: C_19  and  C_13 
REMARK    7  A    between atoms: C_16  and  C_19 
ROOT
ATOM      1  N   UNL d   1      59.082  -9.424  33.902  0.00  0.00    -0.183 NA
ATOM      2  C   UNL d   1      59.547  -9.427  33.214  0.00  0.00     0.281 C 
ATOM      3  O   UNL d   1      60.273  -9.054  33.195  0.00  0.00    -0.265 OA
ENDROOT
BRANCH   1   4
ATOM      4  C   UNL d   1      59.366  -9.036  34.575  0.00  0.00     0.197 A 
ATOM      5  N   UNL d   1      59.563  -8.234  34.624  0.00  0.00    -0.219 NA
ATOM      6  C   UNL d   1      59.820  -8.089  35.396  0.00  0.00     0.108 A 
ATOM      7  C   UNL d   1      59.780  -8.797  35.818  0.00  0.00     0.059 A 
ATOM      8  S   UNL d   1      59.500  -9.385  35.314  0.00  0.00    -0.046 SA
BRANCH   6   9
ATOM      9  C   UNL d   1      60.068  -7.371  35.688  0.00  0.00     0.100 A 
ATOM     10  N   UNL d   1      60.877  -7.170  35.666  0.00  0.00    -0.242 NA
ATOM     11  C   UNL d   1      61.121  -6.439  35.964  0.00  0.00     0.099 A 
ATOM     12  C   UNL d   1      60.570  -5.914  36.280  0.00  0.00     0.021 A 
ATOM     13  C   UNL d   1      59.769  -6.117  36.299  0.00  0.00     0.003 A 
ATOM     14  C   UNL d   1      59.519  -6.848  36.002  0.00  0.00     0.021 A 
ENDBRANCH   6   9
ENDBRANCH   1   4
BRANCH   2  15
ATOM     15  C   UNL d   1      59.260  -9.817  32.541  0.00  0.00     0.063 C 
BRANCH  15  16
ATOM     16  C   UNL d   1      59.393  -9.488  31.790  0.00  0.00     0.012 C 
BRANCH  16  17
ATOM     17  C   UNL d   1      59.027  -9.808  31.127  0.00  0.00     0.036 C 
BRANCH  17  18
ATOM     18  S   UNL d   1      59.327  -9.664  30.379  0.00  0.00    -0.086 SA
BRANCH  18  19
ATOM     19  C   UNL d   1      58.820  -9.457  29.763  0.00  0.00     0.029 A 
ATOM     20  C   UNL d   1      58.007  -9.585  29.839  0.00  0.00     0.005 A 
ATOM     21  C   UNL d   1      57.498  -9.379  29.226  0.00  0.00    -0.012 A 
ATOM     22  C   UNL d   1      57.798  -9.044  28.534  0.00  0.00     0.026 A 
ATOM     23  C   UNL d   1      58.608  -8.916  28.457  0.00  0.00    -0.012 A 
ATOM     24  C   UNL d   1      59.120  -9.122  29.071  0.00  0.00     0.005 A 
ENDBRANCH  18  19
ENDBRANCH  17  18
ENDBRANCH  16  17
ENDBRANCH  15  16
ENDBRANCH   2  15
TORSDOF 7
ENDMDL
MODEL 4
REMARK VINA RESULT:      -2.4      1.387      6.071
REMARK  7 active torsions:
REMARK  status: ('A' for Active; 'I' for Inactive)
REMARK    1  A    between atoms: N_4  and  C_2 
REMARK    2  A    between atoms: C_8  and  C_3 
REMARK       I    between atoms: C_7  and  N_4 
REMARK    3  A    between atoms: C_13  and  C_7 
REMARK    4  A    between atoms: S_11  and  C_16 
REMARK    5  A    between atoms: C_12  and  S_11 
REMARK    6  A    between atoms: C_19  and  C_13 
REMARK    7  A    between atoms: C_16  and  C_19 
ROOT
ATOM      1  N   UNL d   1      57.753   0.679  31.298  0.00  0.00    -0.183 NA
ATOM      2  C   UNL d   1      57.605   0.016  30.819  0.00  0.00     0.281 C 
ATOM      3  O   UNL d   1      57.201  -0.631  31.109  0.00  0.00    -0.265 OA
ENDROOT
BRANCH   1   4
ATOM      4  C   UNL d   1      57.482   0.676  32.079  0.00  0.00     0.197 A 
ATOM      5  N   UNL d   1      56.689   0.679  32.317  0.00  0.00    -0.219 NA
ATOM      6  C   UNL d   1      56.679   0.674  33.144  0.00  0.00     0.108 A 
ATOM      7  C   UNL d   1      57.459   0.669  33.411  0.00  0.00     0.059 A 
ATOM      8  S   UNL d   1      57.959   0.670  32.756  0.00  0.00    -0.046 SA
BRANCH   6   9
ATOM      9  C   UNL d   1      56.012   0.675  33.611  0.00  0.00     0.100 A 
ATOM     10  N   UNL d   1      55.257   0.681  33.258  0.00  0.00    -0.242 NA
ATOM     11  C   UNL d   1      54.585   0.682  33.740  0.00  0.00     0.099 A 
ATOM     12  C   UNL d   1      54.662   0.677  34.561  0.00  0.00     0.021 A 
ATOM     13  C   UNL d   1      55.413   0.671  34.905  0.00  0.00     0.003 A 
ATOM     14  C   UNL d   1      56.089   0.670  34.428  0.00  0.00     0.021 A 
ENDBRANCH   6   9
ENDBRANCH   1   4
BRANCH   2  15
ATOM     15  C   UNL d   1      57.878   0.022  30.036  0.00  0.00     0.063 C 
BRANCH  15  16
ATOM     16  C   UNL d   1      58.643  -0.254  29.869  0.00  0.00     0.012 C 
BRANCH  16  17
ATOM     17  C   UNL d   1      58.799  -0.636  29.157  0.00  0.00     0.036 C 
BRANCH  17  18
ATOM     18  S   UNL d   1      59.554  -0.901  28.986  0.00  0.00    -0.086 SA
BRANCH  18  19
ATOM     19  C   UNL d   1      59.717  -1.709  28.975  0.00  0.00     0.029 A 
ATOM     20  C   UNL d   1      60.422  -1.990  29.301  0.00  0.00     0.005 A 
ATOM     21  C   UNL d   1      60.588  -2.797  29.293  0.00  0.00    -0.012 A 
ATOM     22  C   UNL d   1      60.050  -3.325  28.958  0.00  0.00     0.026 A 
ATOM     23  C   UNL d   1      59.347  -3.047  28.633  0.00  0.00    -0.012 A 
ATOM     24  C   UNL d   1      59.179  -2.238  28.641  0.00  0.00     0.005 A 
ENDBRANCH  18  19
ENDBRANCH  17  18
ENDBRANCH  16  17
ENDBRANCH  15  16
ENDBRANCH   2  15
TORSDOF 7
ENDMDL
