MODEL 1
REMARK VINA RESULT:      45.7      0.000      0.000
REMARK  3 active torsions:
REMARK  status: ('A' for Active; 'I' for Inactive)
REMARK    1  A    between atoms: N_4  and  C_1 
REMARK    2  A    between atoms: C_9  and  C_3 
REMARK    3  A    between atoms: C_7  and  N_4 
ROOT
ATOM      1  C   UNL d   1     -51.568  24.286  33.416  0.00  0.00     0.196 A 
ATOM      2  N   UNL d   1     -51.766  25.109  33.475  0.00  0.00    -0.221 NA
ATOM      3  C   UNL d   1     -51.075  25.503  33.416  0.00  0.00     0.090 A 
ATOM      4  S   UNL d   1     -50.777  24.194  33.324  0.00  0.00    -0.046 SA
ATOM      5  C   UNL d   1     -50.447  24.962  33.321  0.00  0.00     0.058 A 
ENDROOT
BRANCH   1   6
ATOM      6  N   UNL d   1     -52.103  23.606  33.446  0.00  0.00    -0.202 NA
BRANCH   6   7
ATOM      7  C   UNL d   1     -52.861  23.692  33.788  0.00  0.00     0.165 A 
ATOM      8  N   UNL d   1     -53.425  23.264  33.346  0.00  0.00    -0.225 NA
ATOM      9  C   UNL d   1     -54.252  23.207  33.505  0.00  0.00     0.101 A 
ATOM     10  C   UNL d   1     -54.689  23.537  34.101  0.00  0.00     0.021 A 
ATOM     11  C   UNL d   1     -54.419  24.029  34.722  0.00  0.00     0.002 A 
ATOM     12  C   UNL d   1     -53.666  24.299  34.885  0.00  0.00     0.003 A 
ATOM     13  C   UNL d   1     -52.956  24.144  34.458  0.00  0.00     0.039 A 
ENDBRANCH   6   7
ENDBRANCH   1   6
BRANCH   3  14
ATOM     14  C   UNL d   1     -50.959  26.315  33.439  0.00  0.00     0.018 A 
ATOM     15  C   UNL d   1     -51.607  26.815  33.415  0.00  0.00     0.002 A 
ATOM     16  C   UNL d   1     -51.499  27.625  33.438  0.00  0.00     0.007 A 
ATOM     17  C   UNL d   1     -50.727  27.955  33.487  0.00  0.00     0.035 A 
ATOM     18  C   UNL d   1     -50.071  27.444  33.511  0.00  0.00     0.007 A 
ATOM     19 BR   UNL d   1     -50.569  28.764  33.512  0.00  0.00    -0.049 Br
ATOM     20  C   UNL d   1     -50.187  26.633  33.487  0.00  0.00     0.002 A 
ENDBRANCH   3  14
TORSDOF 3
ENDMDL
