MODEL 1
REMARK VINA RESULT:      39.3      0.000      0.000
REMARK  6 active torsions:
REMARK  status: ('A' for Active; 'I' for Inactive)
REMARK    1  A    between atoms: S_9  and  C_3 
REMARK    2  A    between atoms: C_4  and  C_17 
REMARK       I    between atoms: N_8  and  C_4 
REMARK    3  A    between atoms: C_5  and  C_16 
REMARK    4  A    between atoms: C_14  and  C_6 
REMARK    5  A    between atoms: C_16  and  N_8 
REMARK    6  A    between atoms: C_17  and  S_9 
ROOT
ATOM      1  N   UNL d   1     -51.485  26.172  33.327  0.00  0.00    -0.148 NA
ATOM      2  N   UNL d   1     -50.942  26.792  33.346  0.00  0.00    -0.141 NA
ATOM      3  C   UNL d   1     -50.136  26.639  33.399  0.00  0.00     0.133 A 
ATOM      4  C   UNL d   1     -51.208  25.391  33.363  0.00  0.00     0.103 A 
ATOM      5  C   UNL d   1     -50.410  25.234  33.415  0.00  0.00     0.023 A 
ATOM      6  C   UNL d   1     -49.866  25.848  33.434  0.00  0.00     0.029 A 
ENDROOT
BRANCH   3   7
ATOM      7  S   UNL d   1     -49.601  27.261  33.418  0.00  0.00    -0.061 SA
BRANCH   7   8
ATOM      8  C   UNL d   1     -49.469  27.669  34.120  0.00  0.00     0.099 C 
BRANCH   8   9
ATOM      9  C   UNL d   1     -48.701  27.870  34.349  0.00  0.00     0.286 C 
ATOM     10  N   UNL d   1     -48.578  28.463  34.899  0.00  0.00    -0.204 NA
ATOM     11  O   UNL d   1     -48.062  27.473  34.021  0.00  0.00    -0.265 OA
BRANCH  10  12
ATOM     12  C   UNL d   1     -47.821  28.664  35.126  0.00  0.00     0.127 C 
BRANCH  12  13
ATOM     13  C   UNL d   1     -47.665  29.414  35.423  0.00  0.00     0.119 A 
ATOM     14  O   UNL d   1     -47.663  30.115  34.997  0.00  0.00    -0.304 OA
ATOM     15  C   UNL d   1     -47.480  30.728  35.509  0.00  0.00     0.123 A 
ATOM     16  C   UNL d   1     -47.368  30.406  36.254  0.00  0.00     0.029 A 
ATOM     17  C   UNL d   1     -47.480  29.595  36.212  0.00  0.00     0.028 A 
ENDBRANCH  12  13
ENDBRANCH  10  12
ENDBRANCH   8   9
ENDBRANCH   7   8
ENDBRANCH   3   7
BRANCH   4  18
ATOM     18  C   UNL d   1     -51.751  24.765  33.344  0.00  0.00     0.019 A 
ATOM     19  C   UNL d   1     -51.487  23.971  33.338  0.00  0.00     0.002 A 
ATOM     20  C   UNL d   1     -52.034  23.354  33.319  0.00  0.00     0.000 A 
ATOM     21  C   UNL d   1     -52.836  23.512  33.306  0.00  0.00     0.000 A 
ATOM     22  C   UNL d   1     -53.109  24.296  33.312  0.00  0.00     0.000 A 
ATOM     23  C   UNL d   1     -52.566  24.916  33.331  0.00  0.00     0.002 A 
ENDBRANCH   4  18
TORSDOF 6
ENDMDL
