MODEL 1
REMARK VINA RESULT:      -3.9      0.000      0.000
REMARK  5 active torsions:
REMARK  status: ('A' for Active; 'I' for Inactive)
REMARK    1  A    between atoms: N_5  and  C_1 
REMARK    2  A    between atoms: C_9  and  C_2 
REMARK       I    between atoms: C_6  and  N_5 
REMARK    3  A    between atoms: C_8  and  C_6 
REMARK    4  A    between atoms: O_14  and  C_9 
REMARK    5  A    between atoms: C_16  and  O_14 
ROOT
ATOM      1  C   UNL d   1      57.881   0.173  30.690  0.00  0.00     0.114 A 
ATOM      2  C   UNL d   1      58.946   0.127  29.882  0.00  0.00     0.094 A 
ATOM      3  S   UNL d   1      58.684  -0.023  30.636  0.00  0.00    -0.062 SA
ATOM      4  C   UNL d   1      58.273   0.426  29.462  0.00  0.00     0.013 A 
ATOM      5  C   UNL d   1      57.652   0.448  29.949  0.00  0.00     0.027 A 
ATOM      6  C   UNL d   1      58.262   0.660  28.663  0.00  0.00     0.001 C 
ENDROOT
BRANCH   1   7
ATOM      7  N   UNL d   1      57.370   0.106  31.385  0.00  0.00    -0.201 NA
ATOM      8  C   UNL d   1      57.018  -0.618  31.563  0.00  0.00     0.280 C 
ATOM      9  O   UNL d   1      57.146  -1.280  31.087  0.00  0.00    -0.265 OA
BRANCH   8  10
ATOM     10  C   UNL d   1      56.532  -0.682  32.223  0.00  0.00     0.058 A 
ATOM     11  C   UNL d   1      56.098  -1.119  32.772  0.00  0.00     0.005 A 
ATOM     12  C   UNL d   1      56.065  -0.356  32.900  0.00  0.00     0.005 A 
ENDBRANCH   8  10
ENDBRANCH   1   7
BRANCH   2  13
ATOM     13  C   UNL d   1      59.720   0.012  29.577  0.00  0.00     0.306 C 
ATOM     14  O   UNL d   1      60.199   0.672  29.471  0.00  0.00    -0.258 OA
BRANCH  13  15
ATOM     15  O   UNL d   1      60.003  -0.738  29.386  0.00  0.00    -0.271 OA
BRANCH  15  16
ATOM     16  C   UNL d   1      60.805  -0.854  29.217  0.00  0.00     0.126 C 
ATOM     17  C   UNL d   1      61.073  -1.625  29.048  0.00  0.00     0.029 C 
ENDBRANCH  15  16
ENDBRANCH  13  15
ENDBRANCH   2  13
TORSDOF 5
ENDMDL
MODEL 2
REMARK VINA RESULT:      -3.8      1.852      4.875
REMARK  5 active torsions:
REMARK  status: ('A' for Active; 'I' for Inactive)
REMARK    1  A    between atoms: N_5  and  C_1 
REMARK    2  A    between atoms: C_9  and  C_2 
REMARK       I    between atoms: C_6  and  N_5 
REMARK    3  A    between atoms: C_8  and  C_6 
REMARK    4  A    between atoms: O_14  and  C_9 
REMARK    5  A    between atoms: C_16  and  O_14 
ROOT
ATOM      1  C   UNL d   1      56.852   0.106  32.001  0.00  0.00     0.114 A 
ATOM      2  C   UNL d   1      55.950   0.041  32.987  0.00  0.00     0.094 A 
ATOM      3  S   UNL d   1      56.400   0.546  32.539  0.00  0.00    -0.062 SA
ATOM      4  C   UNL d   1      56.137  -0.739  32.709  0.00  0.00     0.013 A 
ATOM      5  C   UNL d   1      56.669  -0.686  32.129  0.00  0.00     0.027 A 
ATOM      6  C   UNL d   1      55.813  -1.450  32.999  0.00  0.00     0.001 C 
ENDROOT
BRANCH   1   7
ATOM      7  N   UNL d   1      57.410   0.408  31.414  0.00  0.00    -0.201 NA
ATOM      8  C   UNL d   1      57.654  -0.079  30.795  0.00  0.00     0.280 C 
ATOM      9  O   UNL d   1      57.372  -0.852  30.728  0.00  0.00    -0.265 OA
BRANCH   8  10
ATOM     10  C   UNL d   1      58.185   0.208  30.237  0.00  0.00     0.058 A 
ATOM     11  C   UNL d   1      58.367   0.599  29.533  0.00  0.00     0.005 A 
ATOM     12  C   UNL d   1      58.995   0.348  29.910  0.00  0.00     0.005 A 
ENDBRANCH   8  10
ENDBRANCH   1   7
BRANCH   2  13
ATOM     13  C   UNL d   1      55.411   0.242  33.599  0.00  0.00     0.306 C 
ATOM     14  O   UNL d   1      54.641   0.441  33.390  0.00  0.00    -0.258 OA
BRANCH  13  15
ATOM     15  O   UNL d   1      55.636   0.243  34.392  0.00  0.00    -0.271 OA
BRANCH  15  16
ATOM     16  C   UNL d   1      55.153   0.592  34.965  0.00  0.00     0.126 C 
ATOM     17  C   UNL d   1      55.449   0.682  35.739  0.00  0.00     0.029 C 
ENDBRANCH  15  16
ENDBRANCH  13  15
ENDBRANCH   2  13
TORSDOF 5
ENDMDL
MODEL 3
REMARK VINA RESULT:      -2.6      1.660      3.906
REMARK  5 active torsions:
REMARK  status: ('A' for Active; 'I' for Inactive)
REMARK    1  A    between atoms: N_5  and  C_1 
REMARK    2  A    between atoms: C_9  and  C_2 
REMARK       I    between atoms: C_6  and  N_5 
REMARK    3  A    between atoms: C_8  and  C_6 
REMARK    4  A    between atoms: O_14  and  C_9 
REMARK    5  A    between atoms: C_16  and  O_14 
ROOT
ATOM      1  C   UNL d   1      58.860  -1.395  29.132  0.00  0.00     0.114 A 
ATOM      2  C   UNL d   1      58.370  -0.396  29.877  0.00  0.00     0.094 A 
ATOM      3  S   UNL d   1      58.597  -1.176  29.888  0.00  0.00    -0.062 SA
ATOM      4  C   UNL d   1      58.501  -0.131  29.082  0.00  0.00     0.013 A 
ATOM      5  C   UNL d   1      58.790  -0.729  28.654  0.00  0.00     0.027 A 
ATOM      6  C   UNL d   1      58.352   0.636  28.793  0.00  0.00     0.001 C 
ENDROOT
BRANCH   1   7
ATOM      7  N   UNL d   1      59.153  -2.169  28.883  0.00  0.00    -0.201 NA
ATOM      8  C   UNL d   1      59.959  -2.336  28.938  0.00  0.00     0.280 C 
ATOM      9  O   UNL d   1      60.489  -1.775  29.229  0.00  0.00    -0.265 OA
BRANCH   8  10
ATOM     10  C   UNL d   1      60.238  -3.072  28.701  0.00  0.00     0.058 A 
ATOM     11  C   UNL d   1      60.127  -3.858  28.475  0.00  0.00     0.005 A 
ATOM     12  C   UNL d   1      60.873  -3.649  28.486  0.00  0.00     0.005 A 
ENDBRANCH   8  10
ENDBRANCH   1   7
BRANCH   2  13
ATOM     13  C   UNL d   1      58.069   0.057  30.516  0.00  0.00     0.306 C 
ATOM     14  O   UNL d   1      58.523   0.682  30.798  0.00  0.00    -0.258 OA
BRANCH  13  15
ATOM     15  O   UNL d   1      57.338  -0.109  30.859  0.00  0.00    -0.271 OA
BRANCH  15  16
ATOM     16  C   UNL d   1      57.088   0.299  31.534  0.00  0.00     0.126 C 
ATOM     17  C   UNL d   1      56.490  -0.037  32.008  0.00  0.00     0.029 C 
ENDBRANCH  15  16
ENDBRANCH  13  15
ENDBRANCH   2  13
TORSDOF 5
ENDMDL
MODEL 4
REMARK VINA RESULT:      -1.1      1.410      3.908
REMARK  5 active torsions:
REMARK  status: ('A' for Active; 'I' for Inactive)
REMARK    1  A    between atoms: N_5  and  C_1 
REMARK    2  A    between atoms: C_9  and  C_2 
REMARK       I    between atoms: C_6  and  N_5 
REMARK    3  A    between atoms: C_8  and  C_6 
REMARK    4  A    between atoms: O_14  and  C_9 
REMARK    5  A    between atoms: C_16  and  O_14 
ROOT
ATOM      1  C   UNL d   1      58.775  -0.563  29.893  0.00  0.00     0.114 A 
ATOM      2  C   UNL d   1      57.778  -0.300  30.746  0.00  0.00     0.094 A 
ATOM      3  S   UNL d   1      58.457  -0.732  30.640  0.00  0.00    -0.062 SA
ATOM      4  C   UNL d   1      57.680   0.150  30.033  0.00  0.00     0.013 A 
ATOM      5  C   UNL d   1      58.274  -0.014  29.540  0.00  0.00     0.027 A 
ATOM      6  C   UNL d   1      57.059   0.682  29.874  0.00  0.00     0.001 C 
ENDROOT
BRANCH   1   7
ATOM      7  N   UNL d   1      59.494  -0.892  29.542  0.00  0.00    -0.201 NA
ATOM      8  C   UNL d   1      59.487  -1.662  29.246  0.00  0.00     0.280 C 
ATOM      9  O   UNL d   1      58.803  -2.122  29.282  0.00  0.00    -0.265 OA
BRANCH   8  10
ATOM     10  C   UNL d   1      60.169  -1.975  28.912  0.00  0.00     0.058 A 
ATOM     11  C   UNL d   1      60.682  -2.599  28.747  0.00  0.00     0.005 A 
ATOM     12  C   UNL d   1      60.926  -1.924  28.456  0.00  0.00     0.005 A 
ENDBRANCH   8  10
ENDBRANCH   1   7
BRANCH   2  13
ATOM     13  C   UNL d   1      57.274  -0.296  31.417  0.00  0.00     0.306 C 
ATOM     14  O   UNL d   1      56.722  -0.900  31.493  0.00  0.00    -0.258 OA
BRANCH  13  15
ATOM     15  O   UNL d   1      57.323   0.293  31.992  0.00  0.00    -0.271 OA
BRANCH  15  16
ATOM     16  C   UNL d   1      56.890   0.233  32.694  0.00  0.00     0.126 C 
ATOM     17  C   UNL d   1      57.131   0.679  33.355  0.00  0.00     0.029 C 
ENDBRANCH  15  16
ENDBRANCH  13  15
ENDBRANCH   2  13
TORSDOF 5
ENDMDL
