MODEL 1
REMARK VINA RESULT:      15.8      0.000      0.000
REMARK  7 active torsions:
REMARK  status: ('A' for Active; 'I' for Inactive)
REMARK    1  A    between atoms: N_2  and  S_1 
REMARK    2  A    between atoms: C_5  and  S_1 
REMARK    3  A    between atoms: C_3  and  N_2 
REMARK    4  A    between atoms: C_4  and  C_3 
REMARK    5  A    between atoms: C_13  and  C_3 
REMARK    6  A    between atoms: C_9  and  C_8 
REMARK    7  A    between atoms: O_22  and  C_19 
ROOT
ATOM      1  C   UNL d   1      46.234 -17.655  44.027  0.00  0.00     0.105 A 
ATOM      2  C   UNL d   1      45.828 -16.085  44.313  0.00  0.00     0.000 A 
ATOM      3  C   UNL d   1      46.135 -17.392  44.800  0.00  0.00     0.013 A 
ATOM      4  C   UNL d   1      46.131 -17.133  43.396  0.00  0.00     0.013 A 
ATOM      5  C   UNL d   1      45.928 -16.349  43.539  0.00  0.00     0.001 A 
ATOM      6  C   UNL d   1      45.931 -16.607  44.944  0.00  0.00     0.001 A 
ENDROOT
BRANCH   1   7
ATOM      7  S   UNL d   1      46.441 -18.451  43.879  0.00  0.00     0.285 S 
ATOM      8  O   UNL d   1      46.510 -18.279  43.065  0.00  0.00    -0.198 OA
ATOM      9  O   UNL d   1      46.370 -18.616  44.694  0.00  0.00    -0.198 OA
BRANCH   7  10
ATOM     10  N   UNL d   1      46.645 -19.240  43.733  0.00  0.00    -0.152 NA
BRANCH  10  11
ATOM     11  C   UNL d   1      46.053 -19.812  43.622  0.00  0.00     0.158 C 
BRANCH  11  12
ATOM     12  C   UNL d   1      45.681 -20.150  44.277  0.00  0.00     0.230 C 
ATOM     13  O   UNL d   1      46.117 -20.330  44.951  0.00  0.00    -0.643 OA
ATOM     14  O   UNL d   1      44.873 -20.306  44.256  0.00  0.00    -0.643 OA
ENDBRANCH  11  12
BRANCH  11  15
ATOM     15  C   UNL d   1      45.839 -20.042  42.861  0.00  0.00     0.025 C 
ATOM     16  C   UNL d   1      46.425 -20.182  42.286  0.00  0.00     0.002 C 
ATOM     17  C   UNL d   1      45.042 -20.132  42.670  0.00  0.00     0.002 C 
ENDBRANCH  11  15
ENDBRANCH  10  11
ENDBRANCH   7  10
ENDBRANCH   1   7
BRANCH   2  18
ATOM     18  C   UNL d   1      45.624 -15.301  44.456  0.00  0.00     0.000 A 
ATOM     19  C   UNL d   1      44.838 -15.099  44.598  0.00  0.00     0.002 A 
ATOM     20  C   UNL d   1      44.629 -14.309  44.743  0.00  0.00     0.024 A 
ATOM     21  C   UNL d   1      45.217 -13.719  44.745  0.00  0.00     0.094 A 
ATOM     22  C   UNL d   1      46.009 -13.926  44.602  0.00  0.00     0.024 A 
ATOM     23  C   UNL d   1      46.213 -14.711  44.458  0.00  0.00     0.002 A 
BRANCH  21  24
ATOM     24  O   UNL d   1      45.015 -12.929  44.889  0.00  0.00    -0.328 OA
ATOM     25  C   UNL d   1      45.522 -12.315  44.641  0.00  0.00     0.181 C 
ENDBRANCH  21  24
ENDBRANCH   2  18
TORSDOF 7
ENDMDL
