MODEL 1
REMARK VINA RESULT:      43.4      0.000      0.000
REMARK  4 active torsions:
REMARK  status: ('A' for Active; 'I' for Inactive)
REMARK    1  A    between atoms: C_14  and  C_4 
REMARK       I    between atoms: C_6  and  N_8 
REMARK    2  A    between atoms: C_9  and  C_6 
REMARK    3  A    between atoms: N_8  and  C_14 
REMARK    4  A    between atoms: O_16  and  C_15 
ROOT
ATOM      1  C   UNL d   1      58.741  49.704  51.184  0.00  0.00     0.279 C 
ATOM      2  N   UNL d   1      59.283  49.707  50.565  0.00  0.00    -0.205 NA
ATOM      3  O   UNL d   1      59.009  49.701  51.965  0.00  0.00    -0.265 OA
ENDROOT
BRANCH   1   4
ATOM      4  C   UNL d   1      57.936  49.703  51.021  0.00  0.00     0.060 A 
ATOM      5  C   UNL d   1      57.674  49.699  50.239  0.00  0.00     0.029 A 
ATOM      6  C   UNL d   1      56.860  49.699  50.085  0.00  0.00     0.094 A 
ATOM      7  C   UNL d   1      56.309  49.702  50.707  0.00  0.00     0.024 A 
ATOM      8  C   UNL d   1      56.577  49.705  51.483  0.00  0.00     0.002 A 
ATOM      9  C   UNL d   1      57.388  49.706  51.652  0.00  0.00     0.005 A 
BRANCH   6  10
ATOM     10  O   UNL d   1      56.601  49.695  49.306  0.00  0.00    -0.328 OA
ATOM     11  C   UNL d   1      56.718  49.019  48.836  0.00  0.00     0.181 C 
ENDBRANCH   6  10
ENDBRANCH   1   4
BRANCH   2  12
ATOM     12  C   UNL d   1      60.091  49.708  50.726  0.00  0.00     0.123 C 
BRANCH  12  13
ATOM     13  C   UNL d   1      60.543  49.036  50.580  0.00  0.00     0.120 A 
ATOM     14  N   UNL d   1      61.162  48.974  50.040  0.00  0.00    -0.219 NA
ATOM     15  C   UNL d   1      61.460  48.205  50.074  0.00  0.00     0.180 A 
ATOM     16  N   UNL d   1      61.019  47.784  50.645  0.00  0.00    -0.282 N 
ATOM     17  S   UNL d   1      62.024  47.690  49.765  0.00  0.00    -0.048 SA
ATOM     18  C   UNL d   1      60.453  48.303  50.955  0.00  0.00     0.103 A 
ATOM     19  C   UNL d   1      61.317  47.021  50.677  0.00  0.00     0.089 A 
ATOM     20  C   UNL d   1      61.933  46.957  50.140  0.00  0.00     0.057 A 
ENDBRANCH  12  13
ENDBRANCH   2  12
TORSDOF 4
ENDMDL
MODEL 2
REMARK VINA RESULT:      43.8      2.039      4.525
REMARK  4 active torsions:
REMARK  status: ('A' for Active; 'I' for Inactive)
REMARK    1  A    between atoms: C_14  and  C_4 
REMARK       I    between atoms: C_6  and  N_8 
REMARK    2  A    between atoms: C_9  and  C_6 
REMARK    3  A    between atoms: N_8  and  C_14 
REMARK    4  A    between atoms: O_16  and  C_15 
ROOT
ATOM      1  C   UNL d   1      60.522  48.702  50.607  0.00  0.00     0.279 C 
ATOM      2  N   UNL d   1      59.714  48.752  50.457  0.00  0.00    -0.205 NA
ATOM      3  O   UNL d   1      60.963  49.392  50.715  0.00  0.00    -0.265 OA
ENDROOT
BRANCH   1   4
ATOM      4  C   UNL d   1      60.885  47.967  50.647  0.00  0.00     0.060 A 
ATOM      5  C   UNL d   1      61.347  47.701  50.018  0.00  0.00     0.029 A 
ATOM      6  C   UNL d   1      61.710  46.958  50.068  0.00  0.00     0.094 A 
ATOM      7  C   UNL d   1      61.613  46.482  50.742  0.00  0.00     0.024 A 
ATOM      8  C   UNL d   1      61.152  46.753  51.365  0.00  0.00     0.002 A 
ATOM      9  C   UNL d   1      60.783  47.494  51.328  0.00  0.00     0.005 A 
BRANCH   6  10
ATOM     10  O   UNL d   1      62.169  46.694  49.441  0.00  0.00    -0.328 OA
ATOM     11  C   UNL d   1      62.242  45.878  49.298  0.00  0.00     0.181 C 
ENDBRANCH   6  10
ENDBRANCH   1   4
BRANCH   2  12
ATOM     12  C   UNL d   1      59.348  49.488  50.415  0.00  0.00     0.123 C 
BRANCH  12  13
ATOM     13  C   UNL d   1      58.537  49.541  50.283  0.00  0.00     0.120 A 
ATOM     14  N   UNL d   1      57.953  49.592  50.862  0.00  0.00    -0.219 NA
ATOM     15  C   UNL d   1      57.219  49.635  50.485  0.00  0.00     0.180 A 
ATOM     16  N   UNL d   1      57.352  49.612  49.661  0.00  0.00    -0.282 N 
ATOM     17  S   UNL d   1      56.406  49.693  50.605  0.00  0.00    -0.048 SA
ATOM     18  C   UNL d   1      58.170  49.554  49.542  0.00  0.00     0.103 A 
ATOM     19  C   UNL d   1      56.622  49.655  49.290  0.00  0.00     0.089 A 
ATOM     20  C   UNL d   1      56.039  49.706  49.863  0.00  0.00     0.057 A 
ENDBRANCH  12  13
ENDBRANCH   2  12
TORSDOF 4
ENDMDL
