MODEL 1
REMARK VINA RESULT:      -5.1      0.000      0.000
REMARK  2 active torsions:
REMARK  status: ('A' for Active; 'I' for Inactive)
REMARK    1  A    between atoms: C_2  and  N_1 
REMARK    2  A    between atoms: C_4  and  C_7 
ROOT
ATOM      1  C   UNL d   1      56.101  -0.813  32.676  0.00  0.00     0.146 A 
ATOM      2  C   UNL d   1      56.689  -0.746  32.101  0.00  0.00     0.027 A 
ATOM      3  C   UNL d   1      56.913   0.012  31.816  0.00  0.00     0.021 A 
ATOM      4  C   UNL d   1      55.734  -0.136  32.970  0.00  0.00     0.125 A 
ATOM      5  C   UNL d   1      56.543   0.682  32.113  0.00  0.00     0.003 A 
ATOM      6  C   UNL d   1      55.958   0.622  32.685  0.00  0.00     0.023 A 
ATOM      7  N   UNL d   1      55.143  -0.202  33.547  0.00  0.00    -0.146 N 
ENDROOT
BRANCH   3   8
ATOM      8  C   UNL d   1      57.498   0.072  31.244  0.00  0.00     0.103 A 
ATOM      9  N   UNL d   1      57.372  -0.198  30.472  0.00  0.00    -0.145 NA
ATOM     10  N   UNL d   1      57.958  -0.138  29.900  0.00  0.00    -0.106 NA
ATOM     11  C   UNL d   1      58.686   0.198  30.096  0.00  0.00     0.297 A 
ATOM     12  C   UNL d   1      58.820   0.472  30.870  0.00  0.00     0.066 A 
ATOM     13  O   UNL d   1      59.280   0.262  29.526  0.00  0.00    -0.264 OA
ATOM     14  C   UNL d   1      58.227   0.408  31.440  0.00  0.00     0.024 A 
ATOM     15  C   UNL d   1      58.362   0.682  32.211  0.00  0.00     0.002 C 
ENDBRANCH   3   8
BRANCH   1  16
ATOM     16  N   UNL d   1      55.880  -1.559  32.957  0.00  0.00    -0.112 N 
ATOM     17  O   UNL d   1      55.260  -1.968  32.600  0.00  0.00    -0.532 OA
ATOM     18  O   UNL d   1      56.281  -1.895  33.595  0.00  0.00    -0.532 OA
ENDBRANCH   1  16
TORSDOF 2
ENDMDL
MODEL 2
REMARK VINA RESULT:      -4.3      1.145      3.645
REMARK  2 active torsions:
REMARK  status: ('A' for Active; 'I' for Inactive)
REMARK    1  A    between atoms: C_2  and  N_1 
REMARK    2  A    between atoms: C_4  and  C_7 
ROOT
ATOM      1  C   UNL d   1      58.505  -0.574  29.723  0.00  0.00     0.146 A 
ATOM      2  C   UNL d   1      58.101  -0.785  30.410  0.00  0.00     0.027 A 
ATOM      3  C   UNL d   1      57.539  -0.258  30.746  0.00  0.00     0.021 A 
ATOM      4  C   UNL d   1      58.358   0.155  29.366  0.00  0.00     0.125 A 
ATOM      5  C   UNL d   1      57.397   0.466  30.386  0.00  0.00     0.003 A 
ATOM      6  C   UNL d   1      57.797   0.682  29.702  0.00  0.00     0.023 A 
ATOM      7  N   UNL d   1      58.764   0.369  28.676  0.00  0.00    -0.146 N 
ENDROOT
BRANCH   3   8
ATOM      8  C   UNL d   1      57.140  -0.474  31.430  0.00  0.00     0.103 A 
ATOM      9  N   UNL d   1      56.672  -1.157  31.455  0.00  0.00    -0.145 NA
ATOM     10  N   UNL d   1      56.273  -1.373  32.139  0.00  0.00    -0.106 NA
ATOM     11  C   UNL d   1      56.337  -0.902  32.814  0.00  0.00     0.297 A 
ATOM     12  C   UNL d   1      56.806  -0.214  32.796  0.00  0.00     0.066 A 
ATOM     13  O   UNL d   1      55.938  -1.113  33.505  0.00  0.00    -0.264 OA
ATOM     14  C   UNL d   1      57.204  -0.003  32.105  0.00  0.00     0.024 A 
ATOM     15  C   UNL d   1      57.670   0.682  32.089  0.00  0.00     0.002 C 
ENDBRANCH   3   8
BRANCH   1  16
ATOM     16  N   UNL d   1      59.058  -1.092  29.392  0.00  0.00    -0.112 N 
ATOM     17  O   UNL d   1      58.804  -1.727  28.931  0.00  0.00    -0.532 OA
ATOM     18  O   UNL d   1      59.864  -0.975  29.523  0.00  0.00    -0.532 OA
ENDBRANCH   1  16
TORSDOF 2
ENDMDL
MODEL 3
REMARK VINA RESULT:      -3.7      1.122      3.651
REMARK  2 active torsions:
REMARK  status: ('A' for Active; 'I' for Inactive)
REMARK    1  A    between atoms: C_2  and  N_1 
REMARK    2  A    between atoms: C_4  and  C_7 
ROOT
ATOM      1  C   UNL d   1      57.788   0.260  30.890  0.00  0.00     0.146 A 
ATOM      2  C   UNL d   1      57.105   0.108  31.325  0.00  0.00     0.027 A 
ATOM      3  C   UNL d   1      57.106   0.210  32.159  0.00  0.00     0.021 A 
ATOM      4  C   UNL d   1      58.473   0.513  31.274  0.00  0.00     0.125 A 
ATOM      5  C   UNL d   1      57.791   0.461  32.535  0.00  0.00     0.003 A 
ATOM      6  C   UNL d   1      58.474   0.615  32.108  0.00  0.00     0.023 A 
ATOM      7  N   UNL d   1      59.161   0.666  30.838  0.00  0.00    -0.146 N 
ENDROOT
BRANCH   3   8
ATOM      8  C   UNL d   1      56.422   0.056  32.587  0.00  0.00     0.103 A 
ATOM      9  N   UNL d   1      55.969   0.672  32.904  0.00  0.00    -0.145 NA
ATOM     10  N   UNL d   1      55.285   0.518  33.332  0.00  0.00    -0.106 NA
ATOM     11  C   UNL d   1      55.044  -0.263  33.448  0.00  0.00     0.297 A 
ATOM     12  C   UNL d   1      55.495  -0.887  33.132  0.00  0.00     0.066 A 
ATOM     13  O   UNL d   1      54.358  -0.425  33.877  0.00  0.00    -0.264 OA
ATOM     14  C   UNL d   1      56.181  -0.725  32.703  0.00  0.00     0.024 A 
ATOM     15  C   UNL d   1      56.629  -1.348  32.389  0.00  0.00     0.002 C 
ENDBRANCH   3   8
BRANCH   1  16
ATOM     16  N   UNL d   1      57.787   0.160  30.069  0.00  0.00    -0.112 N 
ATOM     17  O   UNL d   1      57.307   0.635  29.595  0.00  0.00    -0.532 OA
ATOM     18  O   UNL d   1      58.266  -0.415  29.722  0.00  0.00    -0.532 OA
ENDBRANCH   1  16
TORSDOF 2
ENDMDL
MODEL 4
REMARK VINA RESULT:      -3.3      9.215      9.797
REMARK  2 active torsions:
REMARK  status: ('A' for Active; 'I' for Inactive)
REMARK    1  A    between atoms: C_2  and  N_1 
REMARK    2  A    between atoms: C_4  and  C_7 
ROOT
ATOM      1  C   UNL d   1      60.036  -8.378  35.337  0.00  0.00     0.146 A 
ATOM      2  C   UNL d   1      59.627  -8.527  34.637  0.00  0.00     0.027 A 
ATOM      3  C   UNL d   1      59.756  -9.244  34.218  0.00  0.00     0.021 A 
ATOM      4  C   UNL d   1      60.574  -8.933  35.625  0.00  0.00     0.125 A 
ATOM      5  C   UNL d   1      60.292  -9.792  34.511  0.00  0.00     0.003 A 
ATOM      6  C   UNL d   1      60.703  -9.650  35.207  0.00  0.00     0.023 A 
ATOM      7  N   UNL d   1      60.986  -8.785  36.328  0.00  0.00    -0.146 N 
ENDROOT
BRANCH   3   8
ATOM      8  C   UNL d   1      59.345  -9.386  33.522  0.00  0.00     0.103 A 
ATOM      9  N   UNL d   1      58.518  -9.424  33.514  0.00  0.00    -0.145 NA
ATOM     10  N   UNL d   1      58.107  -9.566  32.818  0.00  0.00    -0.106 NA
ATOM     11  C   UNL d   1      58.524  -9.674  32.113  0.00  0.00     0.297 A 
ATOM     12  C   UNL d   1      59.355  -9.638  32.114  0.00  0.00     0.066 A 
ATOM     13  O   UNL d   1      58.117  -9.818  31.409  0.00  0.00    -0.264 OA
ATOM     14  C   UNL d   1      59.762  -9.494  32.818  0.00  0.00     0.024 A 
ATOM     15  C   UNL d   1      60.590  -9.458  32.817  0.00  0.00     0.002 C 
ENDBRANCH   3   8
BRANCH   1  16
ATOM     16  N   UNL d   1      59.909  -7.672  35.749  0.00  0.00    -0.112 N 
ATOM     17  O   UNL d   1      60.442  -7.047  35.672  0.00  0.00    -0.532 OA
ATOM     18  O   UNL d   1      59.249  -7.592  36.237  0.00  0.00    -0.532 OA
ENDBRANCH   1  16
TORSDOF 2
ENDMDL
MODEL 5
REMARK VINA RESULT:      -2.3      2.725      3.976
REMARK  2 active torsions:
REMARK  status: ('A' for Active; 'I' for Inactive)
REMARK    1  A    between atoms: C_2  and  N_1 
REMARK    2  A    between atoms: C_4  and  C_7 
ROOT
ATOM      1  C   UNL d   1      58.166  -0.607  30.157  0.00  0.00     0.146 A 
ATOM      2  C   UNL d   1      58.587  -1.302  30.018  0.00  0.00     0.027 A 
ATOM      3  C   UNL d   1      58.989  -1.412  29.288  0.00  0.00     0.021 A 
ATOM      4  C   UNL d   1      58.139  -0.020  29.578  0.00  0.00     0.125 A 
ATOM      5  C   UNL d   1      58.959  -0.824  28.717  0.00  0.00     0.003 A 
ATOM      6  C   UNL d   1      58.541  -0.130  28.848  0.00  0.00     0.023 A 
ATOM      7  N   UNL d   1      57.716   0.679  29.715  0.00  0.00    -0.146 N 
ENDROOT
BRANCH   3   8
ATOM      8  C   UNL d   1      59.407  -2.106  29.157  0.00  0.00     0.103 A 
ATOM      9  N   UNL d   1      60.181  -2.200  29.436  0.00  0.00    -0.145 NA
ATOM     10  N   UNL d   1      60.599  -2.894  29.304  0.00  0.00    -0.106 NA
ATOM     11  C   UNL d   1      60.243  -3.511  28.886  0.00  0.00     0.297 A 
ATOM     12  C   UNL d   1      59.465  -3.424  28.602  0.00  0.00     0.066 A 
ATOM     13  O   UNL d   1      60.657  -4.212  28.750  0.00  0.00    -0.264 OA
ATOM     14  C   UNL d   1      59.051  -2.723  28.738  0.00  0.00     0.024 A 
ATOM     15  C   UNL d   1      58.277  -2.638  28.455  0.00  0.00     0.002 C 
ENDBRANCH   3   8
BRANCH   1  16
ATOM     16  N   UNL d   1      57.770  -0.499  30.875  0.00  0.00    -0.112 N 
ATOM     17  O   UNL d   1      57.077  -0.918  31.032  0.00  0.00    -0.532 OA
ATOM     18  O   UNL d   1      58.068   0.028  31.435  0.00  0.00    -0.532 OA
ENDBRANCH   1  16
TORSDOF 2
ENDMDL
