MODEL 1
REMARK VINA RESULT:      46.1      0.000      0.000
REMARK  3 active torsions:
REMARK  status: ('A' for Active; 'I' for Inactive)
REMARK    1  A    between atoms: C_5  and  C_2 
REMARK    2  A    between atoms: C_10  and  C_4 
REMARK    3  A    between atoms: O_19  and  C_16 
ROOT
ATOM      1  N   UNL d   1     -49.625  26.263  33.338  0.00  0.00    -0.245 NA
ATOM      2  C   UNL d   1     -49.839  25.477  33.362  0.00  0.00     0.088 A 
ATOM      3  S   UNL d   1     -51.484  26.301  33.394  0.00  0.00    -0.085 SA
ATOM      4  C   UNL d   1     -51.346  25.509  33.407  0.00  0.00     0.031 A 
ATOM      5  C   UNL d   1     -50.596  25.131  33.392  0.00  0.00     0.026 A 
ATOM      6  C   UNL d   1     -50.133  26.905  33.340  0.00  0.00     0.087 A 
ATOM      7  C   UNL d   1     -50.956  26.921  33.364  0.00  0.00     0.047 A 
ATOM      8  C   UNL d   1     -49.724  27.615  33.311  0.00  0.00     0.020 A 
ATOM      9  C   UNL d   1     -51.375  27.649  33.361  0.00  0.00     0.008 A 
ATOM     10  C   UNL d   1     -50.105  28.331  33.307  0.00  0.00     0.002 A 
ATOM     11  C   UNL d   1     -50.927  28.348  33.332  0.00  0.00     0.001 A 
ENDROOT
BRANCH   4  12
ATOM     12  C   UNL d   1     -51.949  24.966  33.438  0.00  0.00     0.006 A 
ATOM     13  C   UNL d   1     -52.727  25.225  33.601  0.00  0.00     0.003 A 
ATOM     14  C   UNL d   1     -53.329  24.683  33.632  0.00  0.00     0.024 A 
ATOM     15  C   UNL d   1     -53.171  23.883  33.501  0.00  0.00     0.094 A 
ATOM     16  C   UNL d   1     -52.415  23.625  33.341  0.00  0.00     0.024 A 
ATOM     17  C   UNL d   1     -51.790  24.166  33.307  0.00  0.00     0.003 A 
BRANCH  15  18
ATOM     18  O   UNL d   1     -53.782  23.308  33.529  0.00  0.00    -0.328 OA
ATOM     19  C   UNL d   1     -54.227  23.191  34.224  0.00  0.00     0.181 C 
ENDBRANCH  15  18
ENDBRANCH   4  12
BRANCH   2  20
ATOM     20  C   UNL d   1     -49.619  24.655  33.373  0.00  0.00     0.047 A 
ATOM     21  S   UNL d   1     -48.833  24.436  33.415  0.00  0.00    -0.085 SA
ATOM     22  C   UNL d   1     -48.817  23.613  33.416  0.00  0.00     0.035 A 
ATOM     23  C   UNL d   1     -49.569  23.315  33.374  0.00  0.00     0.007 A 
ATOM     24  C   UNL d   1     -50.065  23.956  33.348  0.00  0.00     0.009 A 
ENDBRANCH   2  20
TORSDOF 3
ENDMDL
