MODEL 1
REMARK VINA RESULT:      13.5      0.000      0.000
REMARK  2 active torsions:
REMARK  status: ('A' for Active; 'I' for Inactive)
REMARK    1  A    between atoms: C_6  and  C_4 
REMARK    2  A    between atoms: C_7  and  C_6 
ROOT
ATOM      1  N   UNL d   1     -54.717-101.717 -44.162  0.00  0.00    -0.163 NA
ATOM      2  C   UNL d   1     -54.766-101.073 -44.671  0.00  0.00     0.288 A 
ATOM      3  C   UNL d   1     -54.765-101.434 -43.389  0.00  0.00     0.313 A 
ATOM      4  C   UNL d   1     -54.845-100.390 -44.213  0.00  0.00     0.098 A 
ATOM      5  S   UNL d   1     -54.845-100.615 -43.418  0.00  0.00    -0.020 SA
ATOM      6  O   UNL d   1     -54.742-101.097 -45.490  0.00  0.00    -0.265 OA
ATOM      7  O   UNL d   1     -54.739-101.894 -42.704  0.00  0.00    -0.258 OA
ENDROOT
BRANCH   4   8
ATOM      8  C   UNL d   1     -54.928 -99.572 -44.116  0.00  0.00     0.075 C 
ATOM      9  C   UNL d   1     -54.718 -99.212 -43.406  0.00  0.00     0.007 C 
BRANCH   8  10
ATOM     10  C   UNL d   1     -55.223 -99.110 -44.734  0.00  0.00     0.211 C 
ATOM     11  O   UNL d   1     -56.033 -98.964 -44.785  0.00  0.00    -0.644 OA
ATOM     12  O   UNL d   1     -54.716 -98.793 -45.298  0.00  0.00    -0.644 OA
ENDBRANCH   8  10
ENDBRANCH   4   8
TORSDOF 2
ENDMDL
