MODEL 1
REMARK VINA RESULT:      64.7      0.000      0.000
REMARK  3 active torsions:
REMARK  status: ('A' for Active; 'I' for Inactive)
REMARK    1  A    between atoms: C_6  and  C_1 
REMARK    2  A    between atoms: C_4  and  C_8 
REMARK       I    between atoms: N_11  and  C_6 
REMARK       I    between atoms: C_8  and  N_12 
REMARK    3  A    between atoms: N_12  and  N_11 
ROOT
ATOM      1  C   UNL d   1      14.832  16.323  -2.028  0.00  0.00     0.302 C 
ATOM      2  N   UNL d   1      14.891  16.224  -2.844  0.00  0.00    -0.102 NA
ATOM      3  O   UNL d   1      14.644  17.061  -1.707  0.00  0.00    -0.263 OA
ENDROOT
BRANCH   1   4
ATOM      4  C   UNL d   1      14.960  15.682  -1.517  0.00  0.00     0.123 A 
ATOM      5  C   UNL d   1      15.294  15.805  -0.784  0.00  0.00     0.305 A 
ATOM      6  O   UNL d   1      15.418  15.154  -0.278  0.00  0.00    -0.273 OA
ATOM      7  O   UNL d   1      15.505  16.562  -0.544  0.00  0.00    -0.259 OA
ATOM      8  C   UNL d   1      15.206  14.397  -0.518  0.00  0.00     0.103 A 
ATOM      9  C   UNL d   1      14.868  14.277  -1.264  0.00  0.00     0.024 A 
ATOM     10  C   UNL d   1      15.332  13.760  -0.014  0.00  0.00     0.025 A 
ATOM     11  C   UNL d   1      14.745  14.924  -1.764  0.00  0.00     0.012 A 
ATOM     12  C   UNL d   1      14.657  13.520  -1.502  0.00  0.00     0.009 A 
ATOM     13  C   UNL d   1      14.778  12.876  -1.006  0.00  0.00     0.035 A 
ATOM     14  C   UNL d   1      15.118  12.997  -0.257  0.00  0.00     0.009 A 
ATOM     15 BR   UNL d   1      14.566  12.119  -1.246  0.00  0.00    -0.049 Br
ENDBRANCH   1   4
BRANCH   2  16
ATOM     16  N   UNL d   1      14.761  16.871  -3.339  0.00  0.00    -0.102 NA
ATOM     17  C   UNL d   1      15.008  16.834  -4.124  0.00  0.00     0.300 C 
ATOM     18  O   UNL d   1      15.382  16.158  -4.415  0.00  0.00    -0.264 OA
BRANCH  17  19
ATOM     19  C   UNL d   1      14.882  17.476  -4.627  0.00  0.00     0.098 A 
ATOM     20  C   UNL d   1      14.427  17.380  -5.308  0.00  0.00     0.203 A 
ATOM     21  C   UNL d   1      14.299  18.012  -5.809  0.00  0.00     0.084 A 
ATOM     22  O   UNL d   1      14.100  16.644  -5.484  0.00  0.00    -0.286 OA
ATOM     23  C   UNL d   1      14.624  18.749  -5.636  0.00  0.00     0.199 A 
ATOM     24  C   UNL d   1      15.080  18.850  -4.955  0.00  0.00     0.042 A 
ATOM     25  O   UNL d   1      14.496  19.388  -6.140  0.00  0.00    -0.286 OA
ATOM     26  C   UNL d   1      15.208  18.206  -4.448  0.00  0.00     0.011 A 
ENDBRANCH  17  19
ENDBRANCH   2  16
TORSDOF 3
ENDMDL
