MODEL 1
REMARK VINA RESULT:      -1.8      0.000      0.000
REMARK  5 active torsions:
REMARK  status: ('A' for Active; 'I' for Inactive)
REMARK    1  A    between atoms: C_9  and  C_1 
REMARK    2  A    between atoms: N_4  and  C_2 
REMARK    3  A    between atoms: C_8  and  C_3 
REMARK       I    between atoms: C_7  and  N_4 
REMARK    4  A    between atoms: C_10  and  C_7 
REMARK    5  A    between atoms: O_18  and  C_9 
ROOT
ATOM      1  C   UNL d   1      29.839  17.004 -24.441  0.00  0.00     0.088 A 
ATOM      2  C   UNL d   1      30.602  16.945 -24.732  0.00  0.00     0.119 A 
ATOM      3  C   UNL d   1      29.621  16.233 -24.203  0.00  0.00     0.020 A 
ATOM      4  S   UNL d   1      30.883  16.215 -24.700  0.00  0.00    -0.067 SA
ATOM      5  C   UNL d   1      30.269  15.731 -24.362  0.00  0.00     0.038 A 
ENDROOT
BRANCH   2   6
ATOM      6  N   UNL d   1      31.084  17.599 -25.051  0.00  0.00    -0.201 NA
ATOM      7  C   UNL d   1      31.886  17.692 -24.780  0.00  0.00     0.281 C 
ATOM      8  O   UNL d   1      32.330  18.323 -25.097  0.00  0.00    -0.265 OA
BRANCH   7   9
ATOM      9  C   UNL d   1      32.218  17.202 -24.242  0.00  0.00     0.077 A 
ATOM     10  C   UNL d   1      32.181  17.393 -23.457  0.00  0.00     0.104 A 
ATOM     11  N   UNL d   1      32.513  16.911 -22.880  0.00  0.00    -0.242 NA
ATOM     12  C   UNL d   1      32.901  16.203 -23.104  0.00  0.00     0.099 A 
ATOM     13  C   UNL d   1      32.937  16.009 -23.916  0.00  0.00     0.021 A 
ATOM     14  C   UNL d   1      32.602  16.499 -24.475  0.00  0.00     0.008 A 
ENDBRANCH   7   9
ENDBRANCH   2   6
BRANCH   1  15
ATOM     15  C   UNL d   1      29.363  17.690 -24.387  0.00  0.00     0.298 C 
ATOM     16  O   UNL d   1      29.270  18.079 -23.646  0.00  0.00    -0.259 OA
BRANCH  15  17
ATOM     17  O   UNL d   1      28.991  17.976 -25.066  0.00  0.00    -0.296 OA
ATOM     18  C   UNL d   1      28.734  18.776 -25.097  0.00  0.00     0.185 C 
ENDBRANCH  15  17
ENDBRANCH   1  15
BRANCH   3  19
ATOM     19  C   UNL d   1      28.875  16.083 -23.878  0.00  0.00     0.030 A 
ATOM     20  S   UNL d   1      28.071  16.170 -23.914  0.00  0.00    -0.086 SA
ATOM     21  C   UNL d   1      27.769  15.777 -23.268  0.00  0.00     0.035 A 
ATOM     22  C   UNL d   1      28.367  15.453 -22.838  0.00  0.00     0.007 A 
ATOM     23  C   UNL d   1      29.069  15.646 -23.224  0.00  0.00     0.007 A 
ENDBRANCH   3  19
TORSDOF 5
ENDMDL
MODEL 2
REMARK VINA RESULT:      -1.0      1.634      3.877
REMARK  5 active torsions:
REMARK  status: ('A' for Active; 'I' for Inactive)
REMARK    1  A    between atoms: C_9  and  C_1 
REMARK    2  A    between atoms: N_4  and  C_2 
REMARK    3  A    between atoms: C_8  and  C_3 
REMARK       I    between atoms: C_7  and  N_4 
REMARK    4  A    between atoms: C_10  and  C_7 
REMARK    5  A    between atoms: O_18  and  C_9 
ROOT
ATOM      1  C   UNL d   1      31.331  17.170 -24.373  0.00  0.00     0.088 A 
ATOM      2  C   UNL d   1      30.601  17.091 -24.734  0.00  0.00     0.119 A 
ATOM      3  C   UNL d   1      31.419  17.984 -24.204  0.00  0.00     0.020 A 
ATOM      4  S   UNL d   1      30.223  17.773 -24.808  0.00  0.00    -0.067 SA
ATOM      5  C   UNL d   1      30.730  18.371 -24.473  0.00  0.00     0.038 A 
ENDROOT
BRANCH   2   6
ATOM      6  N   UNL d   1      30.245  16.347 -25.019  0.00  0.00    -0.201 NA
ATOM      7  C   UNL d   1      29.438  16.170 -24.814  0.00  0.00     0.281 C 
ATOM      8  O   UNL d   1      29.116  15.453 -25.096  0.00  0.00    -0.265 OA
BRANCH   7   9
ATOM      9  C   UNL d   1      28.989  16.659 -24.368  0.00  0.00     0.077 A 
ATOM     10  C   UNL d   1      28.728  17.355 -24.686  0.00  0.00     0.104 A 
ATOM     11  N   UNL d   1      28.265  17.880 -24.255  0.00  0.00    -0.242 NA
ATOM     12  C   UNL d   1      28.055  17.695 -23.466  0.00  0.00     0.099 A 
ATOM     13  C   UNL d   1      28.325  16.974 -23.141  0.00  0.00     0.021 A 
ATOM     14  C   UNL d   1      28.784  16.465 -23.584  0.00  0.00     0.008 A 
ENDBRANCH   7   9
ENDBRANCH   2   6
BRANCH   1  15
ATOM     15  C   UNL d   1      31.885  16.567 -24.201  0.00  0.00     0.298 C 
ATOM     16  O   UNL d   1      31.869  16.184 -23.452  0.00  0.00    -0.259 OA
BRANCH  15  17
ATOM     17  O   UNL d   1      32.442  16.359 -24.774  0.00  0.00    -0.296 OA
ATOM     18  C   UNL d   1      32.795  15.596 -24.755  0.00  0.00     0.185 C 
ENDBRANCH  15  17
ENDBRANCH   1  15
BRANCH   3  19
ATOM     19  C   UNL d   1      32.101  18.270 -23.834  0.00  0.00     0.030 A 
ATOM     20  S   UNL d   1      32.898  18.209 -23.700  0.00  0.00    -0.086 SA
ATOM     21  C   UNL d   1      33.093  18.818 -23.196  0.00  0.00     0.035 A 
ATOM     22  C   UNL d   1      32.438  19.250 -23.018  0.00  0.00     0.007 A 
ATOM     23  C   UNL d   1      31.808  18.904 -23.421  0.00  0.00     0.007 A 
ENDBRANCH   3  19
TORSDOF 5
ENDMDL
