MODEL 1
REMARK VINA RESULT:      -7.7      0.000      0.000
REMARK  5 active torsions:
REMARK  status: ('A' for Active; 'I' for Inactive)
REMARK    1  A    between atoms: C_3  and  C_1 
REMARK    2  A    between atoms: N_8  and  C_3 
REMARK    3  A    between atoms: C_9  and  C_3 
REMARK    4  A    between atoms: C_17  and  C_7 
REMARK    5  A    between atoms: C_10  and  N_8 
ROOT
ATOM      1  C   UNL d   1     -48.628  13.149  22.954  0.00  0.00     0.109 C 
ENDROOT
BRANCH   1   2
ATOM      2  C   UNL d   1     -47.821  12.982  23.019  0.00  0.00     0.160 A 
ATOM      3  C   UNL d   1     -47.551  12.259  23.330  0.00  0.00     0.258 A 
ATOM      4  C   UNL d   1     -46.724  12.119  23.384  0.00  0.00     0.238 A 
ATOM      5  O   UNL d   1     -48.085  11.695  23.579  0.00  0.00    -0.281 OA
ATOM      6  O   UNL d   1     -46.453  11.396  23.695  0.00  0.00    -0.283 OA
ATOM      7  C   UNL d   1     -46.190  12.684  23.135  0.00  0.00     0.073 A 
ATOM      8  C   UNL d   1     -46.460  13.406  22.824  0.00  0.00     0.146 A 
ATOM      9  O   UNL d   1     -47.260  13.556  22.766  0.00  0.00    -0.299 OA
BRANCH   8  10
ATOM     10  C   UNL d   1     -45.906  13.978  22.572  0.00  0.00     0.259 C 
ATOM     11  O   UNL d   1     -45.187  13.753  22.198  0.00  0.00    -0.281 OA
ENDBRANCH   8  10
ENDBRANCH   1   2
BRANCH   1  12
ATOM     12  N   UNL d   1     -49.052  13.480  23.583  0.00  0.00    -0.225 NA
BRANCH  12  13
ATOM     13  C   UNL d   1     -49.342  14.239  23.533  0.00  0.00     0.163 A 
ATOM     14  N   UNL d   1     -48.845  14.865  23.327  0.00  0.00    -0.225 NA
ATOM     15  C   UNL d   1     -49.147  15.630  23.279  0.00  0.00     0.101 A 
ATOM     16  C   UNL d   1     -49.942  15.772  23.435  0.00  0.00     0.021 A 
ATOM     17  C   UNL d   1     -50.455  15.159  23.642  0.00  0.00     0.005 A 
ATOM     18  C   UNL d   1     -50.159  14.395  23.692  0.00  0.00     0.039 A 
ENDBRANCH  12  13
ENDBRANCH   1  12
BRANCH   1  19
ATOM     19  C   UNL d   1     -49.018  12.978  22.235  0.00  0.00     0.022 A 
ATOM     20  C   UNL d   1     -49.666  12.466  22.226  0.00  0.00     0.031 A 
ATOM     21  C   UNL d   1     -50.044  12.303  21.516  0.00  0.00     0.140 A 
ATOM     22  F   UNL d   1     -50.700  11.786  21.501  0.00  0.00    -0.204 F 
ATOM     23  C   UNL d   1     -49.779  12.647  20.816  0.00  0.00     0.030 A 
ATOM     24  C   UNL d   1     -49.134  13.158  20.818  0.00  0.00     0.002 A 
ATOM     25  C   UNL d   1     -48.754  13.322  21.535  0.00  0.00     0.002 A 
ENDBRANCH   1  19
TORSDOF 5
ENDMDL
MODEL 2
REMARK VINA RESULT:      -6.9      1.920      3.530
REMARK  5 active torsions:
REMARK  status: ('A' for Active; 'I' for Inactive)
REMARK    1  A    between atoms: C_3  and  C_1 
REMARK    2  A    between atoms: N_8  and  C_3 
REMARK    3  A    between atoms: C_9  and  C_3 
REMARK    4  A    between atoms: C_17  and  C_7 
REMARK    5  A    between atoms: C_10  and  N_8 
ROOT
ATOM      1  C   UNL d   1     -48.628  13.169  22.062  0.00  0.00     0.109 C 
ENDROOT
BRANCH   1   2
ATOM      2  C   UNL d   1     -49.300  13.650  22.058  0.00  0.00     0.160 A 
ATOM      3  C   UNL d   1     -49.845  13.629  21.429  0.00  0.00     0.258 A 
ATOM      4  C   UNL d   1     -50.519  14.131  21.454  0.00  0.00     0.238 A 
ATOM      5  O   UNL d   1     -49.723  13.127  20.798  0.00  0.00    -0.281 OA
ATOM      6  O   UNL d   1     -51.064  14.110  20.825  0.00  0.00    -0.283 OA
ATOM      7  C   UNL d   1     -50.640  14.633  22.086  0.00  0.00     0.073 A 
ATOM      8  C   UNL d   1     -50.095  14.654  22.714  0.00  0.00     0.146 A 
ATOM      9  O   UNL d   1     -49.436  14.173  22.703  0.00  0.00    -0.299 OA
BRANCH   8  10
ATOM     10  C   UNL d   1     -50.227  15.171  23.355  0.00  0.00     0.259 C 
ATOM     11  O   UNL d   1     -50.796  15.789  23.308  0.00  0.00    -0.281 OA
ENDBRANCH   8  10
ENDBRANCH   1   2
BRANCH   1  12
ATOM     12  N   UNL d   1     -47.938  13.388  21.659  0.00  0.00    -0.225 NA
BRANCH  12  13
ATOM     13  C   UNL d   1     -47.297  13.683  22.066  0.00  0.00     0.163 A 
ATOM     14  N   UNL d   1     -47.387  14.314  22.590  0.00  0.00    -0.225 NA
ATOM     15  C   UNL d   1     -46.734  14.606  22.996  0.00  0.00     0.101 A 
ATOM     16  C   UNL d   1     -45.991  14.271  22.882  0.00  0.00     0.021 A 
ATOM     17  C   UNL d   1     -45.881  13.640  22.362  0.00  0.00     0.005 A 
ATOM     18  C   UNL d   1     -46.529  13.344  21.954  0.00  0.00     0.039 A 
ENDBRANCH  12  13
ENDBRANCH   1  12
BRANCH   1  19
ATOM     19  C   UNL d   1     -48.650  12.448  22.483  0.00  0.00     0.022 A 
ATOM     20  C   UNL d   1     -48.411  11.747  22.119  0.00  0.00     0.031 A 
ATOM     21  C   UNL d   1     -48.436  11.042  22.540  0.00  0.00     0.140 A 
ATOM     22  F   UNL d   1     -48.195  10.330  22.176  0.00  0.00    -0.204 F 
ATOM     23  C   UNL d   1     -48.699  11.034  23.320  0.00  0.00     0.030 A 
ATOM     24  C   UNL d   1     -48.939  11.730  23.689  0.00  0.00     0.002 A 
ATOM     25  C   UNL d   1     -48.913  12.439  23.264  0.00  0.00     0.002 A 
ENDBRANCH   1  19
TORSDOF 5
ENDMDL
MODEL 3
REMARK VINA RESULT:      -6.6      1.633      2.870
REMARK  5 active torsions:
REMARK  status: ('A' for Active; 'I' for Inactive)
REMARK    1  A    between atoms: C_3  and  C_1 
REMARK    2  A    between atoms: N_8  and  C_3 
REMARK    3  A    between atoms: C_9  and  C_3 
REMARK    4  A    between atoms: C_17  and  C_7 
REMARK    5  A    between atoms: C_10  and  N_8 
ROOT
ATOM      1  C   UNL d   1     -48.225  13.424  22.941  0.00  0.00     0.109 C 
ENDROOT
BRANCH   1   2
ATOM      2  C   UNL d   1     -48.782  12.930  22.583  0.00  0.00     0.160 A 
ATOM      3  C   UNL d   1     -49.057  12.241  22.959  0.00  0.00     0.258 A 
ATOM      4  C   UNL d   1     -49.624  11.759  22.568  0.00  0.00     0.238 A 
ATOM      5  O   UNL d   1     -48.777  12.037  23.698  0.00  0.00    -0.281 OA
ATOM      6  O   UNL d   1     -49.900  11.069  22.945  0.00  0.00    -0.283 OA
ATOM      7  C   UNL d   1     -49.904  11.962  21.830  0.00  0.00     0.073 A 
ATOM      8  C   UNL d   1     -49.629  12.651  21.454  0.00  0.00     0.146 A 
ATOM      9  O   UNL d   1     -49.079  13.128  21.821  0.00  0.00    -0.299 OA
BRANCH   8  10
ATOM     10  C   UNL d   1     -49.921  12.851  20.698  0.00  0.00     0.259 C 
ATOM     11  O   UNL d   1     -50.695  13.166  20.598  0.00  0.00    -0.281 OA
ENDBRANCH   8  10
ENDBRANCH   1   2
BRANCH   1  12
ATOM     12  N   UNL d   1     -48.441  13.960  23.534  0.00  0.00    -0.225 NA
BRANCH  12  13
ATOM     13  C   UNL d   1     -48.897  14.611  23.357  0.00  0.00     0.163 A 
ATOM     14  N   UNL d   1     -48.617  15.194  22.845  0.00  0.00    -0.225 NA
ATOM     15  C   UNL d   1     -49.086  15.848  22.672  0.00  0.00     0.101 A 
ATOM     16  C   UNL d   1     -49.833  15.922  23.007  0.00  0.00     0.021 A 
ATOM     17  C   UNL d   1     -50.132  15.350  23.521  0.00  0.00     0.005 A 
ATOM     18  C   UNL d   1     -49.668  14.695  23.697  0.00  0.00     0.039 A 
ENDBRANCH  12  13
ENDBRANCH   1  12
BRANCH   1  19
ATOM     19  C   UNL d   1     -47.427  13.376  22.697  0.00  0.00     0.022 A 
ATOM     20  C   UNL d   1     -46.866  13.010  23.179  0.00  0.00     0.031 A 
ATOM     21  C   UNL d   1     -46.084  12.968  22.932  0.00  0.00     0.140 A 
ATOM     22  F   UNL d   1     -45.512  12.599  23.417  0.00  0.00    -0.204 F 
ATOM     23  C   UNL d   1     -45.860  13.287  22.206  0.00  0.00     0.030 A 
ATOM     24  C   UNL d   1     -46.415  13.652  21.720  0.00  0.00     0.002 A 
ATOM     25  C   UNL d   1     -47.203  13.695  21.971  0.00  0.00     0.002 A 
ENDBRANCH   1  19
TORSDOF 5
ENDMDL
MODEL 4
REMARK VINA RESULT:      -6.5      1.462      3.049
REMARK  5 active torsions:
REMARK  status: ('A' for Active; 'I' for Inactive)
REMARK    1  A    between atoms: C_3  and  C_1 
REMARK    2  A    between atoms: N_8  and  C_3 
REMARK    3  A    between atoms: C_9  and  C_3 
REMARK    4  A    between atoms: C_17  and  C_7 
REMARK    5  A    between atoms: C_10  and  N_8 
ROOT
ATOM      1  C   UNL d   1     -48.825  13.249  23.010  0.00  0.00     0.109 C 
ENDROOT
BRANCH   1   2
ATOM      2  C   UNL d   1     -48.867  14.073  22.963  0.00  0.00     0.160 A 
ATOM      3  C   UNL d   1     -49.496  14.496  23.305  0.00  0.00     0.258 A 
ATOM      4  C   UNL d   1     -49.510  15.334  23.239  0.00  0.00     0.238 A 
ATOM      5  O   UNL d   1     -50.091  14.100  23.698  0.00  0.00    -0.281 OA
ATOM      6  O   UNL d   1     -50.141  15.758  23.582  0.00  0.00    -0.283 OA
ATOM      7  C   UNL d   1     -48.916  15.730  22.846  0.00  0.00     0.073 A 
ATOM      8  C   UNL d   1     -48.286  15.307  22.504  0.00  0.00     0.146 A 
ATOM      9  O   UNL d   1     -48.260  14.494  22.560  0.00  0.00    -0.299 OA
BRANCH   8  10
ATOM     10  C   UNL d   1     -47.683  15.721  22.103  0.00  0.00     0.259 C 
ATOM     11  O   UNL d   1     -46.890  15.714  22.384  0.00  0.00    -0.281 OA
ENDBRANCH   8  10
ENDBRANCH   1   2
BRANCH   1  12
ATOM     12  N   UNL d   1     -48.523  12.870  23.681  0.00  0.00    -0.225 NA
BRANCH  12  13
ATOM     13  C   UNL d   1     -47.803  12.491  23.654  0.00  0.00     0.163 A 
ATOM     14  N   UNL d   1     -47.761  11.668  23.697  0.00  0.00    -0.225 NA
ATOM     15  C   UNL d   1     -47.028  11.294  23.669  0.00  0.00     0.101 A 
ATOM     16  C   UNL d   1     -46.339  11.737  23.598  0.00  0.00     0.021 A 
ATOM     17  C   UNL d   1     -46.361  12.560  23.553  0.00  0.00     0.005 A 
ATOM     18  C   UNL d   1     -47.089  12.939  23.581  0.00  0.00     0.039 A 
ENDBRANCH  12  13
ENDBRANCH   1  12
BRANCH   1  19
ATOM     19  C   UNL d   1     -49.095  12.794  22.364  0.00  0.00     0.022 A 
ATOM     20  C   UNL d   1     -48.680  12.799  21.650  0.00  0.00     0.031 A 
ATOM     21  C   UNL d   1     -48.952  12.349  21.020  0.00  0.00     0.140 A 
ATOM     22  F   UNL d   1     -48.536  12.350  20.295  0.00  0.00    -0.204 F 
ATOM     23  C   UNL d   1     -49.634  11.893  21.098  0.00  0.00     0.030 A 
ATOM     24  C   UNL d   1     -50.053  11.884  21.807  0.00  0.00     0.002 A 
ATOM     25  C   UNL d   1     -49.778  12.338  22.442  0.00  0.00     0.002 A 
ENDBRANCH   1  19
TORSDOF 5
ENDMDL
MODEL 5
REMARK VINA RESULT:      -6.3      1.883      3.822
REMARK  5 active torsions:
REMARK  status: ('A' for Active; 'I' for Inactive)
REMARK    1  A    between atoms: C_3  and  C_1 
REMARK    2  A    between atoms: N_8  and  C_3 
REMARK    3  A    between atoms: C_9  and  C_3 
REMARK    4  A    between atoms: C_17  and  C_7 
REMARK    5  A    between atoms: C_10  and  N_8 
ROOT
ATOM      1  C   UNL d   1     -47.460  13.382  22.986  0.00  0.00     0.109 C 
ENDROOT
BRANCH   1   2
ATOM      2  C   UNL d   1     -48.111  13.621  22.537  0.00  0.00     0.160 A 
ATOM      3  C   UNL d   1     -48.544  14.305  22.729  0.00  0.00     0.258 A 
ATOM      4  C   UNL d   1     -49.202  14.521  22.252  0.00  0.00     0.238 A 
ATOM      5  O   UNL d   1     -48.330  14.758  23.372  0.00  0.00    -0.281 OA
ATOM      6  O   UNL d   1     -49.635  15.206  22.444  0.00  0.00    -0.283 OA
ATOM      7  C   UNL d   1     -49.416  14.068  21.609  0.00  0.00     0.073 A 
ATOM      8  C   UNL d   1     -48.983  13.383  21.417  0.00  0.00     0.146 A 
ATOM      9  O   UNL d   1     -48.342  13.162  21.871  0.00  0.00    -0.299 OA
BRANCH   8  10
ATOM     10  C   UNL d   1     -49.209  12.926  20.757  0.00  0.00     0.259 C 
ATOM     11  O   UNL d   1     -49.687  12.239  20.845  0.00  0.00    -0.281 OA
ENDBRANCH   8  10
ENDBRANCH   1   2
BRANCH   1  12
ATOM     12  N   UNL d   1     -47.554  12.969  23.697  0.00  0.00    -0.225 NA
BRANCH  12  13
ATOM     13  C   UNL d   1     -47.632  12.158  23.697  0.00  0.00     0.163 A 
ATOM     14  N   UNL d   1     -48.380  11.809  23.698  0.00  0.00    -0.225 NA
ATOM     15  C   UNL d   1     -48.449  10.989  23.698  0.00  0.00     0.101 A 
ATOM     16  C   UNL d   1     -47.776  10.516  23.698  0.00  0.00     0.021 A 
ATOM     17  C   UNL d   1     -47.019  10.846  23.697  0.00  0.00     0.005 A 
ATOM     18  C   UNL d   1     -46.944  11.664  23.697  0.00  0.00     0.039 A 
ENDBRANCH  12  13
ENDBRANCH   1  12
BRANCH   1  19
ATOM     19  C   UNL d   1     -46.692  13.566  22.712  0.00  0.00     0.022 A 
ATOM     20  C   UNL d   1     -46.358  13.134  22.092  0.00  0.00     0.031 A 
ATOM     21  C   UNL d   1     -45.603  13.321  21.829  0.00  0.00     0.140 A 
ATOM     22  F   UNL d   1     -45.260  12.887  21.202  0.00  0.00    -0.204 F 
ATOM     23  C   UNL d   1     -45.180  13.934  22.180  0.00  0.00     0.030 A 
ATOM     24  C   UNL d   1     -45.507  14.368  22.798  0.00  0.00     0.002 A 
ATOM     25  C   UNL d   1     -46.269  14.179  23.063  0.00  0.00     0.002 A 
ENDBRANCH   1  19
TORSDOF 5
ENDMDL
MODEL 6
REMARK VINA RESULT:      -5.7      1.231      2.379
REMARK  5 active torsions:
REMARK  status: ('A' for Active; 'I' for Inactive)
REMARK    1  A    between atoms: C_3  and  C_1 
REMARK    2  A    between atoms: N_8  and  C_3 
REMARK    3  A    between atoms: C_9  and  C_3 
REMARK    4  A    between atoms: C_17  and  C_7 
REMARK    5  A    between atoms: C_10  and  N_8 
ROOT
ATOM      1  C   UNL d   1     -48.396  13.249  22.877  0.00  0.00     0.109 C 
ENDROOT
BRANCH   1   2
ATOM      2  C   UNL d   1     -47.604  13.011  22.877  0.00  0.00     0.160 A 
ATOM      3  C   UNL d   1     -47.356  12.329  23.284  0.00  0.00     0.258 A 
ATOM      4  C   UNL d   1     -46.544  12.113  23.264  0.00  0.00     0.238 A 
ATOM      5  O   UNL d   1     -47.896  11.878  23.696  0.00  0.00    -0.281 OA
ATOM      6  O   UNL d   1     -46.295  11.430  23.672  0.00  0.00    -0.283 OA
ATOM      7  C   UNL d   1     -46.004  12.564  22.851  0.00  0.00     0.073 A 
ATOM      8  C   UNL d   1     -46.252  13.245  22.444  0.00  0.00     0.146 A 
ATOM      9  O   UNL d   1     -47.037  13.467  22.455  0.00  0.00    -0.299 OA
BRANCH   8  10
ATOM     10  C   UNL d   1     -45.693  13.701  22.025  0.00  0.00     0.259 C 
ATOM     11  O   UNL d   1     -44.891  13.744  22.275  0.00  0.00    -0.281 OA
ENDBRANCH   8  10
ENDBRANCH   1   2
BRANCH   1  12
ATOM     12  N   UNL d   1     -49.012  12.698  22.833  0.00  0.00    -0.225 NA
BRANCH  12  13
ATOM     13  C   UNL d   1     -49.471  12.643  22.163  0.00  0.00     0.163 A 
ATOM     14  N   UNL d   1     -49.124  12.504  21.427  0.00  0.00    -0.225 NA
ATOM     15  C   UNL d   1     -49.596  12.450  20.755  0.00  0.00     0.101 A 
ATOM     16  C   UNL d   1     -50.412  12.533  20.814  0.00  0.00     0.021 A 
ATOM     17  C   UNL d   1     -50.778  12.673  21.541  0.00  0.00     0.005 A 
ATOM     18  C   UNL d   1     -50.312  12.728  22.214  0.00  0.00     0.039 A 
ENDBRANCH  12  13
ENDBRANCH   1  12
BRANCH   1  19
ATOM     19  C   UNL d   1     -48.572  14.064  22.924  0.00  0.00     0.022 A 
ATOM     20  C   UNL d   1     -48.345  14.573  22.315  0.00  0.00     0.031 A 
ATOM     21  C   UNL d   1     -48.522  15.373  22.368  0.00  0.00     0.140 A 
ATOM     22  F   UNL d   1     -48.295  15.893  21.754  0.00  0.00    -0.204 F 
ATOM     23  C   UNL d   1     -48.922  15.668  23.025  0.00  0.00     0.030 A 
ATOM     24  C   UNL d   1     -49.151  15.165  23.637  0.00  0.00     0.002 A 
ATOM     25  C   UNL d   1     -48.972  14.359  23.581  0.00  0.00     0.002 A 
ENDBRANCH   1  19
TORSDOF 5
ENDMDL
MODEL 7
REMARK VINA RESULT:      -5.6      1.321      1.888
REMARK  5 active torsions:
REMARK  status: ('A' for Active; 'I' for Inactive)
REMARK    1  A    between atoms: C_3  and  C_1 
REMARK    2  A    between atoms: N_8  and  C_3 
REMARK    3  A    between atoms: C_9  and  C_3 
REMARK    4  A    between atoms: C_17  and  C_7 
REMARK    5  A    between atoms: C_10  and  N_8 
ROOT
ATOM      1  C   UNL d   1     -49.289  13.400  22.336  0.00  0.00     0.109 C 
ENDROOT
BRANCH   1   2
ATOM      2  C   UNL d   1     -48.471  13.319  22.253  0.00  0.00     0.160 A 
ATOM      3  C   UNL d   1     -48.127  13.122  21.521  0.00  0.00     0.258 A 
ATOM      4  C   UNL d   1     -47.291  13.047  21.468  0.00  0.00     0.238 A 
ATOM      5  O   UNL d   1     -48.597  13.002  20.866  0.00  0.00    -0.281 OA
ATOM      6  O   UNL d   1     -46.947  12.849  20.736  0.00  0.00    -0.283 OA
ATOM      7  C   UNL d   1     -46.821  13.166  22.124  0.00  0.00     0.073 A 
ATOM      8  C   UNL d   1     -47.165  13.363  22.855  0.00  0.00     0.146 A 
ATOM      9  O   UNL d   1     -47.975  13.439  22.921  0.00  0.00    -0.299 OA
BRANCH   8  10
ATOM     10  C   UNL d   1     -46.677  13.483  23.521  0.00  0.00     0.259 C 
ATOM     11  O   UNL d   1     -46.043  12.959  23.697  0.00  0.00    -0.281 OA
ENDBRANCH   8  10
ENDBRANCH   1   2
BRANCH   1  12
ATOM     12  N   UNL d   1     -49.683  14.086  22.093  0.00  0.00    -0.225 NA
BRANCH  12  13
ATOM     13  C   UNL d   1     -49.824  14.691  22.619  0.00  0.00     0.163 A 
ATOM     14  N   UNL d   1     -50.540  14.735  23.025  0.00  0.00    -0.225 NA
ATOM     15  C   UNL d   1     -50.674  15.351  23.556  0.00  0.00     0.101 A 
ATOM     16  C   UNL d   1     -50.096  15.922  23.681  0.00  0.00     0.021 A 
ATOM     17  C   UNL d   1     -49.372  15.895  23.284  0.00  0.00     0.005 A 
ATOM     18  C   UNL d   1     -49.234  15.284  22.755  0.00  0.00     0.039 A 
ENDBRANCH  12  13
ENDBRANCH   1  12
BRANCH   1  19
ATOM     19  C   UNL d   1     -49.724  12.771  22.674  0.00  0.00     0.022 A 
ATOM     20  C   UNL d   1     -49.331  12.132  23.018  0.00  0.00     0.031 A 
ATOM     21  C   UNL d   1     -49.766  11.519  23.348  0.00  0.00     0.140 A 
ATOM     22  F   UNL d   1     -49.373  10.869  23.698  0.00  0.00    -0.204 F 
ATOM     23  C   UNL d   1     -50.589  11.540  23.337  0.00  0.00     0.030 A 
ATOM     24  C   UNL d   1     -50.987  12.174  22.995  0.00  0.00     0.002 A 
ATOM     25  C   UNL d   1     -50.548  12.792  22.663  0.00  0.00     0.002 A 
ENDBRANCH   1  19
TORSDOF 5
ENDMDL
MODEL 8
REMARK VINA RESULT:      -5.6      1.485      2.619
REMARK  5 active torsions:
REMARK  status: ('A' for Active; 'I' for Inactive)
REMARK    1  A    between atoms: C_3  and  C_1 
REMARK    2  A    between atoms: N_8  and  C_3 
REMARK    3  A    between atoms: C_9  and  C_3 
REMARK    4  A    between atoms: C_17  and  C_7 
REMARK    5  A    between atoms: C_10  and  N_8 
ROOT
ATOM      1  C   UNL d   1     -48.716  13.606  22.999  0.00  0.00     0.109 C 
ENDROOT
BRANCH   1   2
ATOM      2  C   UNL d   1     -48.077  13.453  22.498  0.00  0.00     0.160 A 
ATOM      3  C   UNL d   1     -47.299  13.655  22.713  0.00  0.00     0.258 A 
ATOM      4  C   UNL d   1     -46.670  13.486  22.182  0.00  0.00     0.238 A 
ATOM      5  O   UNL d   1     -47.152  14.011  23.432  0.00  0.00    -0.281 OA
ATOM      6  O   UNL d   1     -45.891  13.688  22.397  0.00  0.00    -0.283 OA
ATOM      7  C   UNL d   1     -46.817  13.130  21.463  0.00  0.00     0.073 A 
ATOM      8  C   UNL d   1     -47.595  12.928  21.248  0.00  0.00     0.146 A 
ATOM      9  O   UNL d   1     -48.215  13.085  21.754  0.00  0.00    -0.299 OA
BRANCH   8  10
ATOM     10  C   UNL d   1     -47.736  12.563  20.511  0.00  0.00     0.259 C 
ATOM     11  O   UNL d   1     -48.056  11.787  20.462  0.00  0.00    -0.281 OA
ENDBRANCH   8  10
ENDBRANCH   1   2
BRANCH   1  12
ATOM     12  N   UNL d   1     -48.829  13.177  23.698  0.00  0.00    -0.225 NA
BRANCH  12  13
ATOM     13  C   UNL d   1     -49.249  12.479  23.692  0.00  0.00     0.163 A 
ATOM     14  N   UNL d   1     -48.857  11.754  23.681  0.00  0.00    -0.225 NA
ATOM     15  C   UNL d   1     -49.290  11.053  23.676  0.00  0.00     0.101 A 
ATOM     16  C   UNL d   1     -50.112  11.075  23.681  0.00  0.00     0.021 A 
ATOM     17  C   UNL d   1     -50.523  11.791  23.692  0.00  0.00     0.005 A 
ATOM     18  C   UNL d   1     -50.096  12.492  23.698  0.00  0.00     0.039 A 
ENDBRANCH  12  13
ENDBRANCH   1  12
BRANCH   1  19
ATOM     19  C   UNL d   1     -49.257  14.208  22.790  0.00  0.00     0.022 A 
ATOM     20  C   UNL d   1     -49.733  14.124  22.121  0.00  0.00     0.031 A 
ATOM     21  C   UNL d   1     -50.262  14.720  21.923  0.00  0.00     0.140 A 
ATOM     22  F   UNL d   1     -50.746  14.641  21.246  0.00  0.00    -0.204 F 
ATOM     23  C   UNL d   1     -50.319  15.397  22.389  0.00  0.00     0.030 A 
ATOM     24  C   UNL d   1     -49.847  15.486  23.058  0.00  0.00     0.002 A 
ATOM     25  C   UNL d   1     -49.314  14.885  23.256  0.00  0.00     0.002 A 
ENDBRANCH   1  19
TORSDOF 5
ENDMDL
MODEL 9
REMARK VINA RESULT:      -4.9      1.632      2.765
REMARK  5 active torsions:
REMARK  status: ('A' for Active; 'I' for Inactive)
REMARK    1  A    between atoms: C_3  and  C_1 
REMARK    2  A    between atoms: N_8  and  C_3 
REMARK    3  A    between atoms: C_9  and  C_3 
REMARK    4  A    between atoms: C_17  and  C_7 
REMARK    5  A    between atoms: C_10  and  N_8 
ROOT
ATOM      1  C   UNL d   1     -47.483  13.179  22.716  0.00  0.00     0.109 C 
ENDROOT
BRANCH   1   2
ATOM      2  C   UNL d   1     -46.725  13.479  22.577  0.00  0.00     0.160 A 
ATOM      3  C   UNL d   1     -46.494  14.225  22.862  0.00  0.00     0.258 A 
ATOM      4  C   UNL d   1     -45.716  14.502  22.703  0.00  0.00     0.238 A 
ATOM      5  O   UNL d   1     -47.018  14.681  23.290  0.00  0.00    -0.281 OA
ATOM      6  O   UNL d   1     -45.485  15.249  22.989  0.00  0.00    -0.283 OA
ATOM      7  C   UNL d   1     -45.192  14.046  22.275  0.00  0.00     0.073 A 
ATOM      8  C   UNL d   1     -45.423  13.300  21.990  0.00  0.00     0.146 A 
ATOM      9  O   UNL d   1     -46.175  13.018  22.137  0.00  0.00    -0.299 OA
BRANCH   8  10
ATOM     10  C   UNL d   1     -44.881  12.840  21.554  0.00  0.00     0.259 C 
ATOM     11  O   UNL d   1     -44.178  12.543  21.907  0.00  0.00    -0.281 OA
ENDBRANCH   8  10
ENDBRANCH   1   2
BRANCH   1  12
ATOM     12  N   UNL d   1     -47.682  12.828  23.439  0.00  0.00    -0.225 NA
BRANCH  12  13
ATOM     13  C   UNL d   1     -47.670  12.019  23.524  0.00  0.00     0.163 A 
ATOM     14  N   UNL d   1     -46.954  11.608  23.524  0.00  0.00    -0.225 NA
ATOM     15  C   UNL d   1     -46.952  10.789  23.610  0.00  0.00     0.101 A 
ATOM     16  C   UNL d   1     -47.660  10.379  23.696  0.00  0.00     0.021 A 
ATOM     17  C   UNL d   1     -48.386  10.772  23.698  0.00  0.00     0.005 A 
ATOM     18  C   UNL d   1     -48.394  11.589  23.613  0.00  0.00     0.039 A 
ENDBRANCH  12  13
ENDBRANCH   1  12
BRANCH   1  19
ATOM     19  C   UNL d   1     -48.056  13.235  22.111  0.00  0.00     0.022 A 
ATOM     20  C   UNL d   1     -48.734  13.692  22.223  0.00  0.00     0.031 A 
ATOM     21  C   UNL d   1     -49.293  13.742  21.623  0.00  0.00     0.140 A 
ATOM     22  F   UNL d   1     -49.982  14.203  21.731  0.00  0.00    -0.204 F 
ATOM     23  C   UNL d   1     -49.179  13.338  20.914  0.00  0.00     0.030 A 
ATOM     24  C   UNL d   1     -48.504  12.880  20.797  0.00  0.00     0.002 A 
ATOM     25  C   UNL d   1     -47.942  12.831  21.402  0.00  0.00     0.002 A 
ENDBRANCH   1  19
TORSDOF 5
ENDMDL
