MODEL 1
REMARK VINA RESULT:     102.5      0.000      0.000
REMARK  5 active torsions:
REMARK  status: ('A' for Active; 'I' for Inactive)
REMARK    1  A    between atoms: S_2  and  N_1 
REMARK    2  A    between atoms: C_10  and  S_2 
REMARK    3  A    between atoms: N_7  and  C_3 
REMARK    4  A    between atoms: C_12  and  C_6 
REMARK    5  A    between atoms: C_13  and  N_7 
ROOT
ATOM      1  N   UNL d   1      60.066  48.457  50.337  0.00  0.00    -0.176 N 
ATOM      2  C   UNL d   1      60.653  48.750  50.831  0.00  0.00     0.191 A 
ATOM      3  C   UNL d   1      60.346  47.797  49.946  0.00  0.00     0.281 A 
ATOM      4  S   UNL d   1      61.308  48.255  50.738  0.00  0.00    -0.044 SA
ATOM      5  C   UNL d   1      61.092  47.666  50.180  0.00  0.00     0.089 A 
ATOM      6  O   UNL d   1      59.942  47.312  49.384  0.00  0.00    -0.265 OA
ENDROOT
BRANCH   1   7
ATOM      7  S   UNL d   1      59.312  48.769  50.241  0.00  0.00     0.275 S 
ATOM      8  O   UNL d   1      59.589  49.390  49.759  0.00  0.00    -0.199 OA
ATOM      9  O   UNL d   1      58.993  48.164  50.718  0.00  0.00    -0.199 OA
BRANCH   7  10
ATOM     10  C   UNL d   1      58.560  49.073  50.151  0.00  0.00     0.104 A 
ATOM     11  C   UNL d   1      58.271  49.241  49.390  0.00  0.00     0.013 A 
ATOM     12  C   UNL d   1      57.508  49.552  49.272  0.00  0.00     0.001 A 
ATOM     13  C   UNL d   1      57.007  49.702  49.948  0.00  0.00     0.000 A 
ATOM     14  C   UNL d   1      57.320  49.527  50.669  0.00  0.00     0.001 A 
ATOM     15  C   UNL d   1      58.061  49.225  50.783  0.00  0.00     0.013 A 
ENDBRANCH   7  10
ENDBRANCH   1   7
BRANCH   2  16
ATOM     16  N   UNL d   1      60.521  49.407  51.285  0.00  0.00    -0.222 NA
BRANCH  16  17
ATOM     17  C   UNL d   1      60.942  49.507  51.995  0.00  0.00     0.084 A 
ATOM     18  C   UNL d   1      60.533  49.594  52.702  0.00  0.00     0.019 A 
ATOM     19  C   UNL d   1      60.938  49.694  53.414  0.00  0.00     0.002 A 
ATOM     20  C   UNL d   1      61.782  49.706  53.403  0.00  0.00     0.000 A 
ATOM     21  C   UNL d   1      62.190  49.620  52.696  0.00  0.00     0.002 A 
ATOM     22  C   UNL d   1      61.764  49.520  51.991  0.00  0.00     0.019 A 
ENDBRANCH  16  17
ENDBRANCH   2  16
BRANCH   5  23
ATOM     23  C   UNL d   1      61.544  47.044  49.895  0.00  0.00     0.011 A 
ATOM     24  C   UNL d   1      62.330  47.153  49.737  0.00  0.00     0.001 A 
ATOM     25  C   UNL d   1      62.790  46.529  49.450  0.00  0.00     0.000 A 
ATOM     26  C   UNL d   1      62.462  45.790  49.321  0.00  0.00     0.000 A 
ATOM     27  C   UNL d   1      61.652  45.681  49.485  0.00  0.00     0.000 A 
ATOM     28  C   UNL d   1      61.187  46.304  49.772  0.00  0.00     0.001 A 
ENDBRANCH   5  23
TORSDOF 5
ENDMDL
