MODEL 1
REMARK VINA RESULT:      72.7      0.000      0.000
REMARK  4 active torsions:
REMARK  status: ('A' for Active; 'I' for Inactive)
REMARK    1  A    between atoms: C_3  and  C_1 
REMARK    2  A    between atoms: N_10  and  C_3 
REMARK    3  A    between atoms: C_13  and  C_3 
REMARK    4  A    between atoms: C_5  and  N_10 
ROOT
ATOM      1  C   UNL d   1      60.156  48.496  51.150  0.00  0.00     0.086 C 
ENDROOT
BRANCH   1   2
ATOM      2  C   UNL d   1      59.662  48.933  50.639  0.00  0.00     0.037 A 
ATOM      3  C   UNL d   1      59.925  49.370  49.973  0.00  0.00     0.083 A 
ATOM      4  N   UNL d   1      59.301  49.706  49.631  0.00  0.00    -0.245 NA
ATOM      5  C   UNL d   1      60.705  49.436  49.719  0.00  0.00     0.021 C 
ATOM      6  C   UNL d   1      58.624  49.510  50.046  0.00  0.00     0.081 A 
ATOM      7  C   UNL d   1      58.850  49.025  50.678  0.00  0.00     0.021 A 
ATOM      8  C   UNL d   1      57.831  49.707  49.934  0.00  0.00     0.019 A 
ATOM      9  C   UNL d   1      58.281  48.744  51.190  0.00  0.00     0.002 A 
ATOM     10  C   UNL d   1      57.493  48.930  51.092  0.00  0.00     0.000 A 
ATOM     11  C   UNL d   1      57.267  49.414  50.460  0.00  0.00     0.002 A 
ENDBRANCH   1   2
BRANCH   1  12
ATOM     12  N   UNL d   1      60.137  47.682  51.131  0.00  0.00    -0.225 NA
BRANCH  12  13
ATOM     13  C   UNL d   1      60.711  47.290  50.719  0.00  0.00     0.191 A 
ATOM     14  N   UNL d   1      61.289  47.528  50.145  0.00  0.00    -0.107 NA
ATOM     15  O   UNL d   1      61.723  46.871  49.924  0.00  0.00    -0.210 OA
ATOM     16  C   UNL d   1      61.445  46.217  50.336  0.00  0.00     0.128 A 
ATOM     17  C   UNL d   1      60.820  46.468  50.829  0.00  0.00     0.068 A 
ATOM     18  C   UNL d   1      61.761  45.456  50.247  0.00  0.00     0.029 C 
ENDBRANCH  12  13
ENDBRANCH   1  12
BRANCH   1  19
ATOM     19  C   UNL d   1      60.655  48.900  51.666  0.00  0.00     0.037 A 
ATOM     20  C   UNL d   1      61.438  48.942  51.511  0.00  0.00     0.100 A 
ATOM     21  N   UNL d   1      61.959  49.342  52.014  0.00  0.00    -0.242 NA
ATOM     22  C   UNL d   1      61.645  49.706  52.697  0.00  0.00     0.099 A 
ATOM     23  C   UNL d   1      60.834  49.658  52.850  0.00  0.00     0.021 A 
ATOM     24  C   UNL d   1      60.332  49.263  52.349  0.00  0.00     0.005 A 
ENDBRANCH   1  19
TORSDOF 4
ENDMDL
