MODEL 1
REMARK VINA RESULT:      -6.2      0.000      0.000
REMARK  4 active torsions:
REMARK  status: ('A' for Active; 'I' for Inactive)
REMARK    1  A    between atoms: C_13  and  N_5 
REMARK    2  A    between atoms: C_14  and  C_6 
REMARK    3  A    between atoms: C_21  and  C_13 
REMARK    4  A    between atoms: O_25  and  C_20 
ROOT
ATOM      1  C   UNL d   1     -48.020  12.031  23.402  0.00  0.00     0.080 A 
ATOM      2  C   UNL d   1     -48.595  12.625  23.301  0.00  0.00     0.267 A 
ATOM      3  C   UNL d   1     -48.246  11.260  23.590  0.00  0.00     0.108 A 
ATOM      4  C   UNL d   1     -46.642  11.637  23.408  0.00  0.00     0.111 A 
ATOM      5  N   UNL d   1     -49.394  12.423  23.395  0.00  0.00    -0.273 N 
ATOM      6  C   UNL d   1     -47.223  12.224  23.310  0.00  0.00     0.020 A 
ATOM      7  C   UNL d   1     -46.874  10.859  23.599  0.00  0.00     0.213 A 
ATOM      8  C   UNL d   1     -49.041  11.069  23.682  0.00  0.00     0.043 A 
ATOM      9  O   UNL d   1     -47.671  10.678  23.688  0.00  0.00    -0.287 OA
ATOM     10  C   UNL d   1     -49.616  11.651  23.584  0.00  0.00     0.069 A 
ATOM     11  C   UNL d   1     -45.845  11.818  23.319  0.00  0.00     0.105 C 
ATOM     12  N   UNL d   1     -45.046  12.016  23.226  0.00  0.00    -0.191 NA
ATOM     13  O   UNL d   1     -48.373  13.397  23.112  0.00  0.00    -0.267 OA
ATOM     14  N   UNL d   1     -46.300  10.274  23.698  0.00  0.00    -0.120 N 
ATOM     15  C   UNL d   1     -50.420  11.463  23.675  0.00  0.00     0.019 C 
ENDROOT
BRANCH   6  16
ATOM     16  C   UNL d   1     -46.994  12.995  23.120  0.00  0.00     0.001 A 
ATOM     17  C   UNL d   1     -46.722  13.173  22.366  0.00  0.00     0.002 A 
ATOM     18  C   UNL d   1     -46.494  13.944  22.181  0.00  0.00     0.024 A 
ATOM     19  C   UNL d   1     -46.540  14.533  22.755  0.00  0.00     0.094 A 
ATOM     20  C   UNL d   1     -46.815  14.354  23.521  0.00  0.00     0.024 A 
ATOM     21  C   UNL d   1     -47.040  13.580  23.695  0.00  0.00     0.002 A 
BRANCH  19  22
ATOM     22  O   UNL d   1     -46.312  15.305  22.573  0.00  0.00    -0.328 OA
ATOM     23  C   UNL d   1     -46.755  15.752  22.041  0.00  0.00     0.181 C 
ENDBRANCH  19  22
ENDBRANCH   6  16
BRANCH   5  24
ATOM     24  C   UNL d   1     -49.976  13.011  23.296  0.00  0.00     0.083 C 
BRANCH  24  25
ATOM     25  C   UNL d   1     -50.251  13.215  22.540  0.00  0.00     0.021 A 
ATOM     26  C   UNL d   1     -50.204  12.680  21.916  0.00  0.00     0.022 A 
ATOM     27  C   UNL d   1     -50.481  12.895  21.171  0.00  0.00     0.099 A 
ATOM     28  N   UNL d   1     -50.804  13.640  21.047  0.00  0.00    -0.242 NA
ATOM     29  C   UNL d   1     -50.852  14.178  21.675  0.00  0.00     0.099 A 
ATOM     30  C   UNL d   1     -50.576  13.964  22.420  0.00  0.00     0.022 A 
ENDBRANCH  24  25
ENDBRANCH   5  24
TORSDOF 4
ENDMDL
MODEL 2
REMARK VINA RESULT:      -5.4      1.375      4.610
REMARK  4 active torsions:
REMARK  status: ('A' for Active; 'I' for Inactive)
REMARK    1  A    between atoms: C_13  and  N_5 
REMARK    2  A    between atoms: C_14  and  C_6 
REMARK    3  A    between atoms: C_21  and  C_13 
REMARK    4  A    between atoms: O_25  and  C_20 
ROOT
ATOM      1  C   UNL d   1     -48.170  14.254  22.620  0.00  0.00     0.080 A 
ATOM      2  C   UNL d   1     -47.637  13.718  22.970  0.00  0.00     0.267 A 
ATOM      3  C   UNL d   1     -47.919  15.009  22.402  0.00  0.00     0.108 A 
ATOM      4  C   UNL d   1     -49.491  14.548  22.147  0.00  0.00     0.111 A 
ATOM      5  N   UNL d   1     -46.853  13.961  23.092  0.00  0.00    -0.273 N 
ATOM      6  C   UNL d   1     -48.951  14.019  22.496  0.00  0.00     0.020 A 
ATOM      7  C   UNL d   1     -49.233  15.310  21.928  0.00  0.00     0.213 A 
ATOM      8  C   UNL d   1     -47.140  15.242  22.526  0.00  0.00     0.043 A 
ATOM      9  O   UNL d   1     -48.453  15.533  22.056  0.00  0.00    -0.287 OA
ATOM     10  C   UNL d   1     -46.606  14.717  22.872  0.00  0.00     0.069 A 
ATOM     11  C   UNL d   1     -50.272  14.324  22.018  0.00  0.00     0.105 C 
ATOM     12  N   UNL d   1     -51.055  14.084  21.895  0.00  0.00    -0.191 NA
ATOM     13  O   UNL d   1     -47.884  12.962  23.189  0.00  0.00    -0.267 OA
ATOM     14  N   UNL d   1     -49.766  15.837  21.581  0.00  0.00    -0.120 N 
ATOM     15  C   UNL d   1     -45.818  14.948  23.000  0.00  0.00     0.019 C 
ENDROOT
BRANCH   6  16
ATOM     16  C   UNL d   1     -49.206  13.264  22.713  0.00  0.00     0.001 A 
ATOM     17  C   UNL d   1     -49.154  12.639  22.182  0.00  0.00     0.002 A 
ATOM     18  C   UNL d   1     -49.409  11.886  22.402  0.00  0.00     0.024 A 
ATOM     19  C   UNL d   1     -49.715  11.764  23.157  0.00  0.00     0.094 A 
ATOM     20  C   UNL d   1     -49.769  12.396  23.698  0.00  0.00     0.024 A 
ATOM     21  C   UNL d   1     -49.511  13.145  23.466  0.00  0.00     0.002 A 
BRANCH  19  22
ATOM     22  O   UNL d   1     -49.971  11.012  23.381  0.00  0.00    -0.328 OA
ATOM     23  C   UNL d   1     -50.730  10.908  23.684  0.00  0.00     0.181 C 
ENDBRANCH  19  22
ENDBRANCH   6  16
BRANCH   5  24
ATOM     24  C   UNL d   1     -46.313  13.432  23.440  0.00  0.00     0.083 C 
BRANCH  24  25
ATOM     25  C   UNL d   1     -45.784  12.994  22.974  0.00  0.00     0.021 A 
ATOM     26  C   UNL d   1     -45.415  13.335  22.323  0.00  0.00     0.022 A 
ATOM     27  C   UNL d   1     -44.892  12.889  21.868  0.00  0.00     0.099 A 
ATOM     28  N   UNL d   1     -44.738  12.106  22.061  0.00  0.00    -0.242 NA
ATOM     29  C   UNL d   1     -45.111  11.762  22.717  0.00  0.00     0.099 A 
ATOM     30  C   UNL d   1     -45.632  12.207  23.171  0.00  0.00     0.022 A 
ENDBRANCH  24  25
ENDBRANCH   5  24
TORSDOF 4
ENDMDL
MODEL 3
REMARK VINA RESULT:      -5.1      1.380      3.607
REMARK  4 active torsions:
REMARK  status: ('A' for Active; 'I' for Inactive)
REMARK    1  A    between atoms: C_13  and  N_5 
REMARK    2  A    between atoms: C_14  and  C_6 
REMARK    3  A    between atoms: C_21  and  C_13 
REMARK    4  A    between atoms: O_25  and  C_20 
ROOT
ATOM      1  C   UNL d   1     -48.129  12.280  23.356  0.00  0.00     0.080 A 
ATOM      2  C   UNL d   1     -47.463  12.766  23.240  0.00  0.00     0.267 A 
ATOM      3  C   UNL d   1     -48.036  11.492  23.583  0.00  0.00     0.108 A 
ATOM      4  C   UNL d   1     -49.554  12.119  23.355  0.00  0.00     0.111 A 
ATOM      5  N   UNL d   1     -46.709  12.440  23.357  0.00  0.00    -0.273 N 
ATOM      6  C   UNL d   1     -48.882  12.598  23.242  0.00  0.00     0.020 A 
ATOM      7  C   UNL d   1     -49.455  11.323  23.584  0.00  0.00     0.213 A 
ATOM      8  C   UNL d   1     -47.284  11.177  23.696  0.00  0.00     0.043 A 
ATOM      9  O   UNL d   1     -48.700  11.018  23.695  0.00  0.00    -0.287 OA
ATOM     10  C   UNL d   1     -46.620  11.652  23.583  0.00  0.00     0.069 A 
ATOM     11  C   UNL d   1     -50.309  12.425  23.244  0.00  0.00     0.105 C 
ATOM     12  N   UNL d   1     -51.062  12.748  23.128  0.00  0.00    -0.191 NA
ATOM     13  O   UNL d   1     -47.552  13.555  23.014  0.00  0.00    -0.267 OA
ATOM     14  N   UNL d   1     -50.119  10.846  23.698  0.00  0.00    -0.120 N 
ATOM     15  C   UNL d   1     -45.859  11.338  23.697  0.00  0.00     0.019 C 
ENDROOT
BRANCH   6  16
ATOM     16  C   UNL d   1     -48.979  13.386  23.015  0.00  0.00     0.001 A 
ATOM     17  C   UNL d   1     -49.002  13.981  23.581  0.00  0.00     0.002 A 
ATOM     18  C   UNL d   1     -49.099  14.767  23.351  0.00  0.00     0.024 A 
ATOM     19  C   UNL d   1     -49.172  14.953  22.552  0.00  0.00     0.094 A 
ATOM     20  C   UNL d   1     -49.149  14.351  21.975  0.00  0.00     0.024 A 
ATOM     21  C   UNL d   1     -49.051  13.568  22.217  0.00  0.00     0.002 A 
BRANCH  19  22
ATOM     22  O   UNL d   1     -49.269  15.738  22.318  0.00  0.00    -0.328 OA
ATOM     23  C   UNL d   1     -49.687  15.915  21.631  0.00  0.00     0.181 C 
ENDBRANCH  19  22
ENDBRANCH   6  16
BRANCH   5  24
ATOM     24  C   UNL d   1     -46.037  12.918  23.243  0.00  0.00     0.083 C 
BRANCH  24  25
ATOM     25  C   UNL d   1     -45.598  12.876  22.540  0.00  0.00     0.021 A 
ATOM     26  C   UNL d   1     -45.973  12.886  21.808  0.00  0.00     0.022 A 
ATOM     27  C   UNL d   1     -45.526  12.843  21.118  0.00  0.00     0.099 A 
ATOM     28  N   UNL d   1     -44.707  12.791  21.156  0.00  0.00    -0.242 NA
ATOM     29  C   UNL d   1     -44.329  12.781  21.894  0.00  0.00     0.099 A 
ATOM     30  C   UNL d   1     -44.775  12.824  22.583  0.00  0.00     0.022 A 
ENDBRANCH  24  25
ENDBRANCH   5  24
TORSDOF 4
ENDMDL
MODEL 4
REMARK VINA RESULT:      -4.9      8.656     10.589
REMARK  4 active torsions:
REMARK  status: ('A' for Active; 'I' for Inactive)
REMARK    1  A    between atoms: C_13  and  N_5 
REMARK    2  A    between atoms: C_14  and  C_6 
REMARK    3  A    between atoms: C_21  and  C_13 
REMARK    4  A    between atoms: O_25  and  C_20 
ROOT
ATOM      1  C   UNL d   1     -39.726  14.543  18.214  0.00  0.00     0.080 A 
ATOM      2  C   UNL d   1     -39.013  14.122  18.304  0.00  0.00     0.267 A 
ATOM      3  C   UNL d   1     -40.062  14.640  17.467  0.00  0.00     0.108 A 
ATOM      4  C   UNL d   1     -40.803  15.283  18.804  0.00  0.00     0.111 A 
ATOM      5  N   UNL d   1     -38.652  13.805  17.627  0.00  0.00    -0.273 N 
ATOM      6  C   UNL d   1     -40.091  14.861  18.883  0.00  0.00     0.020 A 
ATOM      7  C   UNL d   1     -41.140  15.379  18.047  0.00  0.00     0.213 A 
ATOM      8  C   UNL d   1     -39.697  14.323  16.802  0.00  0.00     0.043 A 
ATOM      9  O   UNL d   1     -40.768  15.058  17.387  0.00  0.00    -0.287 OA
ATOM     10  C   UNL d   1     -38.992  13.905  16.882  0.00  0.00     0.069 A 
ATOM     11  C   UNL d   1     -41.175  15.604  19.463  0.00  0.00     0.105 C 
ATOM     12  N   UNL d   1     -41.538  15.922  20.137  0.00  0.00    -0.191 NA
ATOM     13  O   UNL d   1     -38.674  14.023  19.049  0.00  0.00    -0.267 OA
ATOM     14  N   UNL d   1     -41.847  15.798  17.964  0.00  0.00    -0.120 N 
ATOM     15  C   UNL d   1     -38.620  13.582  16.212  0.00  0.00     0.019 C 
ENDROOT
BRANCH   6  16
ATOM     16  C   UNL d   1     -39.757  14.766  19.633  0.00  0.00     0.001 A 
ATOM     17  C   UNL d   1     -39.213  15.311  19.917  0.00  0.00     0.002 A 
ATOM     18  C   UNL d   1     -38.881  15.213  20.666  0.00  0.00     0.024 A 
ATOM     19  C   UNL d   1     -39.098  14.566  21.127  0.00  0.00     0.094 A 
ATOM     20  C   UNL d   1     -39.650  14.010  20.840  0.00  0.00     0.024 A 
ATOM     21  C   UNL d   1     -39.975  14.119  20.090  0.00  0.00     0.002 A 
BRANCH  19  22
ATOM     22  O   UNL d   1     -38.769  14.464  21.877  0.00  0.00    -0.328 OA
ATOM     23  C   UNL d   1     -38.664  15.112  22.373  0.00  0.00     0.181 C 
ENDBRANCH  19  22
ENDBRANCH   6  16
BRANCH   5  24
ATOM     24  C   UNL d   1     -37.940  13.383  17.707  0.00  0.00     0.083 C 
BRANCH  24  25
ATOM     25  C   UNL d   1     -37.940  12.556  17.777  0.00  0.00     0.021 A 
ATOM     26  C   UNL d   1     -37.940  12.196  18.517  0.00  0.00     0.022 A 
ATOM     27  C   UNL d   1     -37.940  11.374  18.573  0.00  0.00     0.099 A 
ATOM     28  N   UNL d   1     -37.940  10.912  17.894  0.00  0.00    -0.242 NA
ATOM     29  C   UNL d   1     -37.940  11.274  17.149  0.00  0.00     0.099 A 
ATOM     30  C   UNL d   1     -37.940  12.095  17.092  0.00  0.00     0.022 A 
ENDBRANCH  24  25
ENDBRANCH   5  24
TORSDOF 4
ENDMDL
MODEL 5
REMARK VINA RESULT:      -4.8      7.388      9.652
REMARK  4 active torsions:
REMARK  status: ('A' for Active; 'I' for Inactive)
REMARK    1  A    between atoms: C_13  and  N_5 
REMARK    2  A    between atoms: C_14  and  C_6 
REMARK    3  A    between atoms: C_21  and  C_13 
REMARK    4  A    between atoms: O_25  and  C_20 
ROOT
ATOM      1  C   UNL d   1     -39.184  15.021  20.038  0.00  0.00     0.080 A 
ATOM      2  C   UNL d   1     -39.607  14.717  19.388  0.00  0.00     0.267 A 
ATOM      3  C   UNL d   1     -38.416  15.305  19.940  0.00  0.00     0.108 A 
ATOM      4  C   UNL d   1     -39.130  15.335  21.436  0.00  0.00     0.111 A 
ATOM      5  N   UNL d   1     -39.238  14.707  18.645  0.00  0.00    -0.273 N 
ATOM      6  C   UNL d   1     -39.545  15.033  20.781  0.00  0.00     0.020 A 
ATOM      7  C   UNL d   1     -38.354  15.622  21.332  0.00  0.00     0.213 A 
ATOM      8  C   UNL d   1     -38.058  15.292  19.199  0.00  0.00     0.043 A 
ATOM      9  O   UNL d   1     -38.005  15.604  20.588  0.00  0.00    -0.287 OA
ATOM     10  C   UNL d   1     -38.470  14.993  18.551  0.00  0.00     0.069 A 
ATOM     11  C   UNL d   1     -39.479  15.352  22.180  0.00  0.00     0.105 C 
ATOM     12  N   UNL d   1     -39.845  15.363  22.923  0.00  0.00    -0.191 NA
ATOM     13  O   UNL d   1     -40.376  14.431  19.482  0.00  0.00    -0.267 OA
ATOM     14  N   UNL d   1     -37.940  15.922  21.980  0.00  0.00    -0.120 N 
ATOM     15  C   UNL d   1     -38.113  14.978  17.801  0.00  0.00     0.019 C 
ENDROOT
BRANCH   6  16
ATOM     16  C   UNL d   1     -40.314  14.749  20.882  0.00  0.00     0.001 A 
ATOM     17  C   UNL d   1     -40.443  13.958  21.064  0.00  0.00     0.002 A 
ATOM     18  C   UNL d   1     -41.213  13.678  21.165  0.00  0.00     0.024 A 
ATOM     19  C   UNL d   1     -41.849  14.194  21.083  0.00  0.00     0.094 A 
ATOM     20  C   UNL d   1     -41.720  14.997  20.899  0.00  0.00     0.024 A 
ATOM     21  C   UNL d   1     -40.947  15.266  20.800  0.00  0.00     0.002 A 
BRANCH  19  22
ATOM     22  O   UNL d   1     -42.620  13.918  21.183  0.00  0.00    -0.328 OA
ATOM     23  C   UNL d   1     -42.798  13.127  21.035  0.00  0.00     0.181 C 
ENDBRANCH  19  22
ENDBRANCH   6  16
BRANCH   5  24
ATOM     24  C   UNL d   1     -39.653  14.405  17.989  0.00  0.00     0.083 C 
BRANCH  24  25
ATOM     25  C   UNL d   1     -40.108  14.904  17.506  0.00  0.00     0.021 A 
ATOM     26  C   UNL d   1     -40.927  14.926  17.577  0.00  0.00     0.022 A 
ATOM     27  C   UNL d   1     -41.367  15.426  17.091  0.00  0.00     0.099 A 
ATOM     28  N   UNL d   1     -40.992  15.901  16.537  0.00  0.00    -0.242 NA
ATOM     29  C   UNL d   1     -40.167  15.879  16.465  0.00  0.00     0.099 A 
ATOM     30  C   UNL d   1     -39.727  15.380  16.950  0.00  0.00     0.022 A 
ENDBRANCH  24  25
ENDBRANCH   5  24
TORSDOF 4
ENDMDL
MODEL 6
REMARK VINA RESULT:      -3.7      1.536      3.215
REMARK  4 active torsions:
REMARK  status: ('A' for Active; 'I' for Inactive)
REMARK    1  A    between atoms: C_13  and  N_5 
REMARK    2  A    between atoms: C_14  and  C_6 
REMARK    3  A    between atoms: C_21  and  C_13 
REMARK    4  A    between atoms: O_25  and  C_20 
ROOT
ATOM      1  C   UNL d   1     -47.068  12.990  22.774  0.00  0.00     0.080 A 
ATOM      2  C   UNL d   1     -47.605  13.548  22.469  0.00  0.00     0.267 A 
ATOM      3  C   UNL d   1     -46.272  13.186  22.871  0.00  0.00     0.108 A 
ATOM      4  C   UNL d   1     -46.813  11.674  23.284  0.00  0.00     0.111 A 
ATOM      5  N   UNL d   1     -47.322  14.301  22.266  0.00  0.00    -0.273 N 
ATOM      6  C   UNL d   1     -47.342  12.239  22.978  0.00  0.00     0.020 A 
ATOM      7  C   UNL d   1     -46.009  11.877  23.381  0.00  0.00     0.213 A 
ATOM      8  C   UNL d   1     -46.000  13.935  22.667  0.00  0.00     0.043 A 
ATOM      9  O   UNL d   1     -45.747  12.628  23.174  0.00  0.00    -0.287 OA
ATOM     10  C   UNL d   1     -46.525  14.493  22.365  0.00  0.00     0.069 A 
ATOM     11  C   UNL d   1     -47.075  10.923  23.491  0.00  0.00     0.105 C 
ATOM     12  N   UNL d   1     -47.355  10.170  23.694  0.00  0.00    -0.191 NA
ATOM     13  O   UNL d   1     -48.401  13.355  22.371  0.00  0.00    -0.267 OA
ATOM     14  N   UNL d   1     -45.481  11.319  23.684  0.00  0.00    -0.120 N 
ATOM     15  C   UNL d   1     -46.255  15.251  22.157  0.00  0.00     0.019 C 
ENDROOT
BRANCH   6  16
ATOM     16  C   UNL d   1     -48.138  12.039  22.883  0.00  0.00     0.001 A 
ATOM     17  C   UNL d   1     -48.656  12.083  23.519  0.00  0.00     0.002 A 
ATOM     18  C   UNL d   1     -49.450  11.882  23.419  0.00  0.00     0.024 A 
ATOM     19  C   UNL d   1     -49.721  11.638  22.681  0.00  0.00     0.094 A 
ATOM     20  C   UNL d   1     -49.197  11.593  22.034  0.00  0.00     0.024 A 
ATOM     21  C   UNL d   1     -48.405  11.796  22.145  0.00  0.00     0.002 A 
BRANCH  19  22
ATOM     22  O   UNL d   1     -50.514  11.437  22.578  0.00  0.00    -0.328 OA
ATOM     23  C   UNL d   1     -51.064  12.016  22.373  0.00  0.00     0.181 C 
ENDBRANCH  19  22
ENDBRANCH   6  16
BRANCH   5  24
ATOM     24  C   UNL d   1     -47.851  14.866  21.960  0.00  0.00     0.083 C 
BRANCH  24  25
ATOM     25  C   UNL d   1     -48.464  15.173  22.428  0.00  0.00     0.021 A 
ATOM     26  C   UNL d   1     -49.220  15.274  22.118  0.00  0.00     0.022 A 
ATOM     27  C   UNL d   1     -49.820  15.579  22.594  0.00  0.00     0.099 A 
ATOM     28  N   UNL d   1     -49.667  15.784  23.374  0.00  0.00    -0.242 NA
ATOM     29  C   UNL d   1     -48.906  15.682  23.686  0.00  0.00     0.099 A 
ATOM     30  C   UNL d   1     -48.307  15.377  23.212  0.00  0.00     0.022 A 
ENDBRANCH  24  25
ENDBRANCH   5  24
TORSDOF 4
ENDMDL
