MODEL 1
REMARK VINA RESULT:       5.7      0.000      0.000
REMARK  5 active torsions:
REMARK  status: ('A' for Active; 'I' for Inactive)
REMARK    1  A    between atoms: N_5  and  C_1 
REMARK    2  A    between atoms: C_8  and  C_3 
REMARK       I    between atoms: C_7  and  N_5 
REMARK    3  A    between atoms: C_11  and  C_7 
REMARK    4  A    between atoms: C_21  and  C_20 
REMARK    5  A    between atoms: C_24  and  C_21 
ROOT
ATOM      1  N   UNL d   1     -41.633-122.072 -51.858  0.00  0.00    -0.165 NA
ATOM      2  C   UNL d   1     -41.430-122.766 -52.235  0.00  0.00     0.282 C 
ATOM      3  O   UNL d   1     -41.130-123.405 -51.805  0.00  0.00    -0.265 OA
ENDROOT
BRANCH   1   4
ATOM      4  C   UNL d   1     -41.540-122.000 -51.043  0.00  0.00     0.297 A 
ATOM      5  O   UNL d   1     -41.836-122.525 -50.482  0.00  0.00    -0.253 OA
ATOM      6  C   UNL d   1     -41.618-122.246 -49.733  0.00  0.00     0.206 A 
ATOM      7  N   UNL d   1     -41.191-121.554 -49.841  0.00  0.00    -0.119 NA
ATOM      8  N   UNL d   1     -41.143-121.403 -50.649  0.00  0.00    -0.101 NA
BRANCH   6   9
ATOM      9  C   UNL d   1     -41.802-122.607 -49.012  0.00  0.00     0.045 A 
ATOM     10  C   UNL d   1     -42.597-122.751 -48.807  0.00  0.00     0.030 A 
ATOM     11  C   UNL d   1     -42.767-123.102 -48.104  0.00  0.00     0.123 A 
ATOM     12  O   UNL d   1     -43.561-123.241 -47.909  0.00  0.00    -0.301 OA
ATOM     13  C   UNL d   1     -42.171-123.320 -47.586  0.00  0.00     0.123 A 
ATOM     14  C   UNL d   1     -43.751-123.597 -47.199  0.00  0.00     0.149 A 
ATOM     15  C   UNL d   1     -43.153-123.817 -46.676  0.00  0.00     0.149 A 
ATOM     16  O   UNL d   1     -42.362-123.683 -46.860  0.00  0.00    -0.301 OA
ATOM     17  C   UNL d   1     -41.394-123.187 -47.770  0.00  0.00     0.027 A 
ATOM     18  C   UNL d   1     -41.196-122.825 -48.493  0.00  0.00     0.006 A 
ENDBRANCH   6   9
ENDBRANCH   1   4
BRANCH   2  19
ATOM     19  C   UNL d   1     -41.523-122.839 -53.051  0.00  0.00     0.058 A 
ATOM     20  C   UNL d   1     -41.336-123.558 -53.406  0.00  0.00     0.005 A 
ATOM     21  C   UNL d   1     -41.429-123.632 -54.225  0.00  0.00     0.000 A 
ATOM     22  C   UNL d   1     -41.702-122.998 -54.676  0.00  0.00     0.000 A 
ATOM     23  C   UNL d   1     -41.885-122.284 -54.305  0.00  0.00     0.000 A 
ATOM     24  C   UNL d   1     -41.794-122.209 -53.491  0.00  0.00     0.005 A 
BRANCH  22  25
ATOM     25  C   UNL d   1     -41.792-123.078 -55.489  0.00  0.00     0.000 C 
BRANCH  25  26
ATOM     26  C   UNL d   1     -42.033-122.434 -55.945  0.00  0.00     0.000 A 
ATOM     27  C   UNL d   1     -41.471-121.901 -56.241  0.00  0.00     0.000 A 
ATOM     28  C   UNL d   1     -41.716-121.259 -56.696  0.00  0.00     0.000 A 
ATOM     29  C   UNL d   1     -42.528-121.146 -56.861  0.00  0.00     0.000 A 
ATOM     30  C   UNL d   1     -43.084-121.679 -56.565  0.00  0.00     0.000 A 
ATOM     31  C   UNL d   1     -42.841-122.326 -56.106  0.00  0.00     0.000 A 
ENDBRANCH  25  26
ENDBRANCH  22  25
ENDBRANCH   2  19
TORSDOF 5
ENDMDL
