MODEL 1
REMARK VINA RESULT:      -8.3      0.000      0.000
REMARK  1 active torsions:
REMARK  status: ('A' for Active; 'I' for Inactive)
REMARK    1  A    between atoms: C_6  and  C_3 
ROOT
ATOM      1  N   UNL d   1      53.649  31.181  53.782  0.00  0.00    -0.228 NA
ATOM      2  C   UNL d   1      53.078  30.871  53.275  0.00  0.00     0.166 A 
ATOM      3  C   UNL d   1      53.597  32.003  53.744  0.00  0.00     0.089 A 
ATOM      4  S   UNL d   1      52.678  31.492  52.928  0.00  0.00    -0.055 SA
ATOM      5  C   UNL d   1      52.993  32.203  53.213  0.00  0.00     0.057 A 
ATOM      6  S   UNL d   1      52.938  30.066  53.144  0.00  0.00    -0.050 SA
ENDROOT
BRANCH   3   7
ATOM      7  C   UNL d   1      54.067  32.540  54.164  0.00  0.00     0.018 A 
ATOM      8  C   UNL d   1      54.672  32.940  53.779  0.00  0.00     0.002 A 
ATOM      9  C   UNL d   1      55.142  33.474  54.191  0.00  0.00     0.000 A 
ATOM     10  C   UNL d   1      55.003  33.609  55.001  0.00  0.00     0.000 A 
ATOM     11  C   UNL d   1      54.397  33.205  55.378  0.00  0.00     0.000 A 
ATOM     12  C   UNL d   1      53.926  32.670  54.963  0.00  0.00     0.002 A 
ENDBRANCH   3   7
TORSDOF 1
ENDMDL
MODEL 2
REMARK VINA RESULT:      -7.6      1.551      2.972
REMARK  1 active torsions:
REMARK  status: ('A' for Active; 'I' for Inactive)
REMARK    1  A    between atoms: C_6  and  C_3 
ROOT
ATOM      1  N   UNL d   1      53.941  32.401  54.693  0.00  0.00    -0.228 NA
ATOM      2  C   UNL d   1      54.413  33.075  54.736  0.00  0.00     0.166 A 
ATOM      3  C   UNL d   1      53.940  32.147  53.908  0.00  0.00     0.089 A 
ATOM      4  S   UNL d   1      54.699  33.237  53.989  0.00  0.00    -0.055 SA
ATOM      5  C   UNL d   1      54.411  32.665  53.464  0.00  0.00     0.057 A 
ATOM      6  S   UNL d   1      54.567  33.510  55.422  0.00  0.00    -0.050 SA
ENDROOT
BRANCH   3   7
ATOM      7  C   UNL d   1      53.536  31.488  53.611  0.00  0.00     0.018 A 
ATOM      8  C   UNL d   1      53.777  30.733  53.824  0.00  0.00     0.002 A 
ATOM      9  C   UNL d   1      53.381  30.074  53.532  0.00  0.00     0.000 A 
ATOM     10  C   UNL d   1      52.732  30.175  53.019  0.00  0.00     0.000 A 
ATOM     11  C   UNL d   1      52.498  30.933  52.811  0.00  0.00     0.000 A 
ATOM     12  C   UNL d   1      52.898  31.592  53.105  0.00  0.00     0.002 A 
ENDBRANCH   3   7
TORSDOF 1
ENDMDL
MODEL 3
REMARK VINA RESULT:      -7.4      2.191      3.200
REMARK  1 active torsions:
REMARK  status: ('A' for Active; 'I' for Inactive)
REMARK    1  A    between atoms: C_6  and  C_3 
ROOT
ATOM      1  N   UNL d   1      53.325  33.626  54.370  0.00  0.00    -0.228 NA
ATOM      2  C   UNL d   1      54.015  33.196  54.504  0.00  0.00     0.166 A 
ATOM      3  C   UNL d   1      52.962  33.314  53.699  0.00  0.00     0.089 A 
ATOM      4  S   UNL d   1      54.078  32.625  53.924  0.00  0.00    -0.055 SA
ATOM      5  C   UNL d   1      53.427  32.689  53.417  0.00  0.00     0.057 A 
ATOM      6  S   UNL d   1      54.550  33.324  55.122  0.00  0.00    -0.050 SA
ENDROOT
BRANCH   3   7
ATOM      7  C   UNL d   1      52.252  33.578  53.363  0.00  0.00     0.018 A 
ATOM      8  C   UNL d   1      51.552  33.180  53.524  0.00  0.00     0.002 A 
ATOM      9  C   UNL d   1      50.845  33.438  53.194  0.00  0.00     0.000 A 
ATOM     10  C   UNL d   1      50.840  34.104  52.693  0.00  0.00     0.000 A 
ATOM     11  C   UNL d   1      51.544  34.495  52.537  0.00  0.00     0.000 A 
ATOM     12  C   UNL d   1      52.253  34.235  52.870  0.00  0.00     0.002 A 
ENDBRANCH   3   7
TORSDOF 1
ENDMDL
MODEL 4
REMARK VINA RESULT:      -7.3      1.936      2.226
REMARK  1 active torsions:
REMARK  status: ('A' for Active; 'I' for Inactive)
REMARK    1  A    between atoms: C_6  and  C_3 
ROOT
ATOM      1  N   UNL d   1      52.075  33.395  53.662  0.00  0.00    -0.228 NA
ATOM      2  C   UNL d   1      51.520  33.800  53.207  0.00  0.00     0.166 A 
ATOM      3  C   UNL d   1      52.767  33.845  53.667  0.00  0.00     0.089 A 
ATOM      4  S   UNL d   1      51.862  34.489  52.934  0.00  0.00    -0.055 SA
ATOM      5  C   UNL d   1      52.640  34.527  53.215  0.00  0.00     0.057 A 
ATOM      6  S   UNL d   1      50.747  33.545  53.055  0.00  0.00    -0.050 SA
ENDROOT
BRANCH   3   7
ATOM      7  C   UNL d   1      53.471  33.649  54.058  0.00  0.00     0.018 A 
ATOM      8  C   UNL d   1      54.006  33.138  53.702  0.00  0.00     0.002 A 
ATOM      9  C   UNL d   1      54.706  32.940  54.084  0.00  0.00     0.000 A 
ATOM     10  C   UNL d   1      54.872  33.259  54.836  0.00  0.00     0.000 A 
ATOM     11  C   UNL d   1      54.332  33.769  55.184  0.00  0.00     0.000 A 
ATOM     12  C   UNL d   1      53.630  33.966  54.798  0.00  0.00     0.002 A 
ENDBRANCH   3   7
TORSDOF 1
ENDMDL
MODEL 5
REMARK VINA RESULT:      -7.0      2.066      2.903
REMARK  1 active torsions:
REMARK  status: ('A' for Active; 'I' for Inactive)
REMARK    1  A    between atoms: C_6  and  C_3 
ROOT
ATOM      1  N   UNL d   1      53.164  33.678  53.929  0.00  0.00    -0.228 NA
ATOM      2  C   UNL d   1      52.806  34.400  53.756  0.00  0.00     0.166 A 
ATOM      3  C   UNL d   1      52.834  33.110  53.429  0.00  0.00     0.089 A 
ATOM      4  S   UNL d   1      52.263  34.281  53.159  0.00  0.00    -0.055 SA
ATOM      5  C   UNL d   1      52.272  33.481  52.947  0.00  0.00     0.057 A 
ATOM      6  S   UNL d   1      52.972  35.119  54.129  0.00  0.00    -0.050 SA
ENDROOT
BRANCH   3   7
ATOM      7  C   UNL d   1      53.031  32.306  53.411  0.00  0.00     0.018 A 
ATOM      8  C   UNL d   1      52.590  31.789  52.950  0.00  0.00     0.002 A 
ATOM      9  C   UNL d   1      52.780  30.990  52.928  0.00  0.00     0.000 A 
ATOM     10  C   UNL d   1      53.423  30.705  53.375  0.00  0.00     0.000 A 
ATOM     11  C   UNL d   1      53.859  31.228  53.832  0.00  0.00     0.000 A 
ATOM     12  C   UNL d   1      53.666  32.030  53.853  0.00  0.00     0.002 A 
ENDBRANCH   3   7
TORSDOF 1
ENDMDL
