MODEL 1
REMARK VINA RESULT:      -0.8      0.000      0.000
REMARK  4 active torsions:
REMARK  status: ('A' for Active; 'I' for Inactive)
REMARK    1  A    between atoms: C_4  and  C_1 
REMARK    2  A    between atoms: N_7  and  C_2 
REMARK       I    between atoms: N_8  and  C_4 
REMARK       I    between atoms: C_11  and  N_7 
REMARK    3  A    between atoms: C_13  and  N_8 
REMARK    4  A    between atoms: C_22  and  C_11 
ROOT
ATOM      1  C   UNL d   1      30.573  16.740 -24.641  0.00  0.00     0.175 A 
ATOM      2  C   UNL d   1      29.875  16.695 -24.308  0.00  0.00     0.114 A 
ATOM      3  O   UNL d   1      30.626  17.427 -24.990  0.00  0.00    -0.301 OA
ATOM      4  C   UNL d   1      29.496  17.353 -24.451  0.00  0.00     0.043 A 
ATOM      5  C   UNL d   1      29.960  17.807 -24.874  0.00  0.00     0.102 A 
ATOM      6  C   UNL d   1      28.795  17.597 -24.255  0.00  0.00     0.004 A 
ATOM      7  C   UNL d   1      29.722  18.501 -25.097  0.00  0.00     0.025 A 
ATOM      8  C   UNL d   1      28.554  18.298 -24.480  0.00  0.00     0.000 A 
ATOM      9  C   UNL d   1      29.018  18.747 -24.900  0.00  0.00     0.002 A 
ENDROOT
BRANCH   1  10
ATOM     10  C   UNL d   1      31.116  16.202 -24.627  0.00  0.00     0.303 C 
ATOM     11  N   UNL d   1      32.484  16.688 -24.262  0.00  0.00    -0.206 NA
ATOM     12  O   UNL d   1      31.038  15.453 -24.777  0.00  0.00    -0.263 OA
BRANCH  11  13
ATOM     13  C   UNL d   1      32.605  17.492 -24.093  0.00  0.00     0.087 A 
ATOM     14  C   UNL d   1      32.601  17.755 -23.305  0.00  0.00     0.046 A 
ATOM     15  C   UNL d   1      32.722  18.555 -23.137  0.00  0.00     0.124 A 
ATOM     16  O   UNL d   1      32.718  18.825 -22.349  0.00  0.00    -0.301 OA
ATOM     17  C   UNL d   1      32.849  19.111 -23.752  0.00  0.00     0.123 A 
ATOM     18  C   UNL d   1      32.839  19.626 -22.181  0.00  0.00     0.149 A 
ATOM     19  C   UNL d   1      32.964  20.169 -22.793  0.00  0.00     0.149 A 
ATOM     20  O   UNL d   1      32.968  19.900 -23.594  0.00  0.00    -0.301 OA
ATOM     21  C   UNL d   1      32.852  18.839 -24.541  0.00  0.00     0.028 A 
ATOM     22  C   UNL d   1      32.729  18.024 -24.713  0.00  0.00     0.021 A 
ENDBRANCH  11  13
ENDBRANCH   1  10
BRANCH   2  23
ATOM     23  N   UNL d   1      29.609  16.093 -23.904  0.00  0.00    -0.206 NA
ATOM     24  C   UNL d   1      29.594  16.121 -23.074  0.00  0.00     0.279 C 
ATOM     25  O   UNL d   1      29.867  16.803 -22.673  0.00  0.00    -0.265 OA
BRANCH  24  26
ATOM     26  C   UNL d   1      29.305  15.467 -22.640  0.00  0.00     0.062 C 
ATOM     27  C   UNL d   1      29.328  15.478 -21.815  0.00  0.00     0.005 C 
ENDBRANCH  24  26
ENDBRANCH   2  23
TORSDOF 4
ENDMDL
MODEL 2
REMARK VINA RESULT:      -0.5      1.346      4.299
REMARK  4 active torsions:
REMARK  status: ('A' for Active; 'I' for Inactive)
REMARK    1  A    between atoms: C_4  and  C_1 
REMARK    2  A    between atoms: N_7  and  C_2 
REMARK       I    between atoms: N_8  and  C_4 
REMARK       I    between atoms: C_11  and  N_7 
REMARK    3  A    between atoms: C_13  and  N_8 
REMARK    4  A    between atoms: C_22  and  C_11 
ROOT
ATOM      1  C   UNL d   1      31.693  17.843 -24.498  0.00  0.00     0.175 A 
ATOM      2  C   UNL d   1      32.053  17.853 -23.813  0.00  0.00     0.114 A 
ATOM      3  O   UNL d   1      31.764  17.134 -24.794  0.00  0.00    -0.301 OA
ATOM      4  C   UNL d   1      32.347  17.150 -23.684  0.00  0.00     0.043 A 
ATOM      5  C   UNL d   1      32.168  16.703 -24.292  0.00  0.00     0.102 A 
ATOM      6  C   UNL d   1      32.750  16.858 -23.100  0.00  0.00     0.004 A 
ATOM      7  C   UNL d   1      32.393  15.970 -24.312  0.00  0.00     0.025 A 
ATOM      8  C   UNL d   1      32.977  16.118 -23.120  0.00  0.00     0.000 A 
ATOM      9  C   UNL d   1      32.798  15.677 -23.725  0.00  0.00     0.002 A 
ENDROOT
BRANCH   1  10
ATOM     10  C   UNL d   1      31.331  18.431 -24.826  0.00  0.00     0.303 C 
ATOM     11  N   UNL d   1      29.849  18.267 -24.967  0.00  0.00    -0.206 NA
ATOM     12  O   UNL d   1      31.637  19.085 -25.087  0.00  0.00    -0.263 OA
BRANCH  11  13
ATOM     13  C   UNL d   1      29.484  17.572 -24.696  0.00  0.00     0.087 A 
ATOM     14  C   UNL d   1      28.994  17.596 -24.025  0.00  0.00     0.046 A 
ATOM     15  C   UNL d   1      28.630  16.905 -23.755  0.00  0.00     0.124 A 
ATOM     16  O   UNL d   1      28.137  16.923 -23.083  0.00  0.00    -0.301 OA
ATOM     17  C   UNL d   1      28.747  16.174 -24.149  0.00  0.00     0.123 A 
ATOM     18  C   UNL d   1      27.773  16.231 -22.813  0.00  0.00     0.149 A 
ATOM     19  C   UNL d   1      27.894  15.513 -23.207  0.00  0.00     0.149 A 
ATOM     20  O   UNL d   1      28.392  15.490 -23.889  0.00  0.00    -0.301 OA
ATOM     21  C   UNL d   1      29.240  16.158 -24.822  0.00  0.00     0.028 A 
ATOM     22  C   UNL d   1      29.611  16.862 -25.097  0.00  0.00     0.021 A 
ENDBRANCH  11  13
ENDBRANCH   1  10
BRANCH   2  23
ATOM     23  N   UNL d   1      32.106  18.463 -23.342  0.00  0.00    -0.206 NA
ATOM     24  C   UNL d   1      32.699  19.033 -23.462  0.00  0.00     0.279 C 
ATOM     25  O   UNL d   1      33.241  18.947 -24.094  0.00  0.00    -0.265 OA
BRANCH  24  26
ATOM     26  C   UNL d   1      32.753  19.691 -22.950  0.00  0.00     0.062 C 
ATOM     27  C   UNL d   1      33.171  19.628 -22.241  0.00  0.00     0.005 C 
ENDBRANCH  24  26
ENDBRANCH   2  23
TORSDOF 4
ENDMDL
