MODEL 1
REMARK VINA RESULT:      -3.2      0.000      0.000
REMARK  5 active torsions:
REMARK  status: ('A' for Active; 'I' for Inactive)
REMARK    1  A    between atoms: N_2  and  S_1 
REMARK    2  A    between atoms: N_6  and  S_1 
REMARK    3  A    between atoms: C_3  and  N_4 
REMARK       I    between atoms: N_4  and  C_5 
REMARK    4  A    between atoms: C_5  and  C_14 
REMARK    5  A    between atoms: C_14  and  N_7 
ROOT
ATOM      1  N   UNL d   1      32.880  20.847 -21.776  0.00  0.00    -0.213 N 
ATOM      2  N   UNL d   1      33.119  19.609 -22.821  0.00  0.00    -0.296 N 
ATOM      3  C   UNL d   1      32.806  20.971 -22.586  0.00  0.00     0.112 A 
ATOM      4  C   UNL d   1      33.077  20.091 -21.482  0.00  0.00     0.112 A 
ATOM      5  C   UNL d   1      32.926  20.347 -23.112  0.00  0.00     0.100 A 
ATOM      6  C   UNL d   1      33.197  19.468 -22.009  0.00  0.00     0.100 A 
ENDROOT
BRANCH   2   7
ATOM      7  C   UNL d   1      33.241  18.975 -23.355  0.00  0.00     0.144 C 
BRANCH   7   8
ATOM      8  C   UNL d   1      32.704  18.344 -23.375  0.00  0.00     0.297 C 
ATOM      9  N   UNL d   1      32.335  18.136 -24.082  0.00  0.00    -0.206 NA
ATOM     10  O   UNL d   1      32.540  17.923 -22.685  0.00  0.00    -0.264 OA
BRANCH   9  11
ATOM     11  C   UNL d   1      31.799  17.506 -24.100  0.00  0.00     0.096 A 
ATOM     12  C   UNL d   1      31.917  16.856 -23.606  0.00  0.00     0.032 A 
ATOM     13  C   UNL d   1      31.383  16.225 -23.623  0.00  0.00     0.059 A 
ATOM     14 CL   UNL d   1      31.501  15.576 -23.129  0.00  0.00    -0.082 Cl
ATOM     15  C   UNL d   1      30.736  16.249 -24.133  0.00  0.00     0.012 A 
ATOM     16  C   UNL d   1      30.621  16.900 -24.626  0.00  0.00     0.014 A 
ATOM     17  C   UNL d   1      31.157  17.530 -24.607  0.00  0.00     0.075 A 
ATOM     18 CL   UNL d   1      31.048  18.185 -25.097  0.00  0.00    -0.081 Cl
ENDBRANCH   9  11
ENDBRANCH   7   8
ENDBRANCH   2   7
BRANCH   1  19
ATOM     19  S   UNL d   1      32.760  21.470 -21.250  0.00  0.00     0.337 S 
ATOM     20  O   UNL d   1      32.163  21.417 -20.675  0.00  0.00    -0.181 OA
ATOM     21  O   UNL d   1      33.231  22.145 -21.295  0.00  0.00    -0.181 OA
BRANCH  19  22
ATOM     22  N   UNL d   1      32.639  22.094 -20.724  0.00  0.00    -0.213 N 
ATOM     23  C   UNL d   1      32.121  22.710 -20.925  0.00  0.00     0.113 C 
ATOM     24  C   UNL d   1      33.033  22.106 -20.000  0.00  0.00     0.113 C 
ENDBRANCH  19  22
ENDBRANCH   1  19
TORSDOF 5
ENDMDL
MODEL 2
REMARK VINA RESULT:      -2.6      2.368      5.115
REMARK  5 active torsions:
REMARK  status: ('A' for Active; 'I' for Inactive)
REMARK    1  A    between atoms: N_2  and  S_1 
REMARK    2  A    between atoms: N_6  and  S_1 
REMARK    3  A    between atoms: C_3  and  N_4 
REMARK       I    between atoms: N_4  and  C_5 
REMARK    4  A    between atoms: C_5  and  C_14 
REMARK    5  A    between atoms: C_14  and  N_7 
ROOT
ATOM      1  N   UNL d   1      31.923  17.684 -23.883  0.00  0.00    -0.213 N 
ATOM      2  N   UNL d   1      32.795  19.023 -23.528  0.00  0.00    -0.296 N 
ATOM      3  C   UNL d   1      31.735  18.403 -24.235  0.00  0.00     0.112 A 
ATOM      4  C   UNL d   1      32.557  17.632 -23.344  0.00  0.00     0.112 A 
ATOM      5  C   UNL d   1      32.174  19.078 -24.056  0.00  0.00     0.100 A 
ATOM      6  C   UNL d   1      32.996  18.307 -23.165  0.00  0.00     0.100 A 
ENDROOT
BRANCH   2   7
ATOM      7  C   UNL d   1      33.241  19.709 -23.346  0.00  0.00     0.144 C 
BRANCH   7   8
ATOM      8  C   UNL d   1      33.006  20.199 -22.720  0.00  0.00     0.297 C 
ATOM      9  N   UNL d   1      33.240  20.989 -22.701  0.00  0.00    -0.206 NA
ATOM     10  O   UNL d   1      32.537  19.893 -22.113  0.00  0.00    -0.264 OA
BRANCH   9  11
ATOM     11  C   UNL d   1      33.005  21.476 -22.076  0.00  0.00     0.096 A 
ATOM     12  C   UNL d   1      32.967  21.168 -21.312  0.00  0.00     0.032 A 
ATOM     13  C   UNL d   1      32.732  21.655 -20.686  0.00  0.00     0.059 A 
ATOM     14 CL   UNL d   1      32.694  21.347 -19.921  0.00  0.00    -0.082 Cl
ATOM     15  C   UNL d   1      32.539  22.443 -20.828  0.00  0.00     0.012 A 
ATOM     16  C   UNL d   1      32.578  22.747 -21.594  0.00  0.00     0.014 A 
ATOM     17  C   UNL d   1      32.813  22.260 -22.219  0.00  0.00     0.075 A 
ATOM     18 CL   UNL d   1      32.855  22.557 -22.987  0.00  0.00    -0.081 Cl
ENDBRANCH   9  11
ENDBRANCH   7   8
ENDBRANCH   2   7
BRANCH   1  19
ATOM     19  S   UNL d   1      31.483  17.009 -24.062  0.00  0.00     0.337 S 
ATOM     20  O   UNL d   1      31.871  16.315 -24.302  0.00  0.00    -0.181 OA
ATOM     21  O   UNL d   1      30.661  17.024 -24.002  0.00  0.00    -0.181 OA
BRANCH  19  22
ATOM     22  N   UNL d   1      31.044  16.334 -24.241  0.00  0.00    -0.213 N 
ATOM     23  C   UNL d   1      31.272  15.848 -24.874  0.00  0.00     0.113 C 
ATOM     24  C   UNL d   1      30.380  16.143 -23.792  0.00  0.00     0.113 C 
ENDBRANCH  19  22
ENDBRANCH   1  19
TORSDOF 5
ENDMDL
MODEL 3
REMARK VINA RESULT:      -2.4      2.505      5.092
REMARK  5 active torsions:
REMARK  status: ('A' for Active; 'I' for Inactive)
REMARK    1  A    between atoms: N_2  and  S_1 
REMARK    2  A    between atoms: N_6  and  S_1 
REMARK    3  A    between atoms: C_3  and  N_4 
REMARK       I    between atoms: N_4  and  C_5 
REMARK    4  A    between atoms: C_5  and  C_14 
REMARK    5  A    between atoms: C_14  and  N_7 
ROOT
ATOM      1  N   UNL d   1      30.386  16.915 -24.276  0.00  0.00    -0.213 N 
ATOM      2  N   UNL d   1      31.870  17.583 -24.102  0.00  0.00    -0.296 N 
ATOM      3  C   UNL d   1      30.594  17.578 -24.717  0.00  0.00     0.112 A 
ATOM      4  C   UNL d   1      30.929  16.579 -23.739  0.00  0.00     0.112 A 
ATOM      5  C   UNL d   1      31.342  17.914 -24.629  0.00  0.00     0.100 A 
ATOM      6  C   UNL d   1      31.677  16.916 -23.651  0.00  0.00     0.100 A 
ENDROOT
BRANCH   2   7
ATOM      7  C   UNL d   1      32.630  17.925 -24.014  0.00  0.00     0.144 C 
BRANCH   7   8
ATOM      8  C   UNL d   1      32.762  18.487 -23.417  0.00  0.00     0.297 C 
ATOM      9  N   UNL d   1      32.769  19.290 -23.599  0.00  0.00    -0.206 NA
ATOM     10  O   UNL d   1      32.886  18.238 -22.641  0.00  0.00    -0.264 OA
BRANCH   9  11
ATOM     11  C   UNL d   1      32.901  19.848 -23.003  0.00  0.00     0.096 A 
ATOM     12  C   UNL d   1      32.827  19.626 -22.212  0.00  0.00     0.032 A 
ATOM     13  C   UNL d   1      32.959  20.183 -21.616  0.00  0.00     0.059 A 
ATOM     14 CL   UNL d   1      32.886  19.960 -20.825  0.00  0.00    -0.082 Cl
ATOM     15  C   UNL d   1      33.162  20.957 -21.814  0.00  0.00     0.012 A 
ATOM     16  C   UNL d   1      33.234  21.176 -22.606  0.00  0.00     0.014 A 
ATOM     17  C   UNL d   1      33.102  20.617 -23.202  0.00  0.00     0.075 A 
ATOM     18 CL   UNL d   1      33.173  20.829 -23.996  0.00  0.00    -0.081 Cl
ENDBRANCH   9  11
ENDBRANCH   7   8
ENDBRANCH   2   7
BRANCH   1  19
ATOM     19  S   UNL d   1      29.638  16.578 -24.363  0.00  0.00     0.337 S 
ATOM     20  O   UNL d   1      28.960  17.042 -24.245  0.00  0.00    -0.181 OA
ATOM     21  O   UNL d   1      29.564  15.783 -24.567  0.00  0.00    -0.181 OA
BRANCH  19  22
ATOM     22  N   UNL d   1      28.890  16.241 -24.451  0.00  0.00    -0.213 N 
ATOM     23  C   UNL d   1      28.295  16.408 -23.897  0.00  0.00     0.113 C 
ATOM     24  C   UNL d   1      28.734  15.741 -25.086  0.00  0.00     0.113 C 
ENDBRANCH  19  22
ENDBRANCH   1  19
TORSDOF 5
ENDMDL
MODEL 4
REMARK VINA RESULT:      -2.3      0.933      1.282
REMARK  5 active torsions:
REMARK  status: ('A' for Active; 'I' for Inactive)
REMARK    1  A    between atoms: N_2  and  S_1 
REMARK    2  A    between atoms: N_6  and  S_1 
REMARK    3  A    between atoms: C_3  and  N_4 
REMARK       I    between atoms: N_4  and  C_5 
REMARK    4  A    between atoms: C_5  and  C_14 
REMARK    5  A    between atoms: C_14  and  N_7 
ROOT
ATOM      1  N   UNL d   1      32.788  21.645 -21.281  0.00  0.00    -0.213 N 
ATOM      2  N   UNL d   1      33.087  20.601 -22.505  0.00  0.00    -0.296 N 
ATOM      3  C   UNL d   1      33.003  20.869 -21.116  0.00  0.00     0.112 A 
ATOM      4  C   UNL d   1      32.721  21.906 -22.070  0.00  0.00     0.112 A 
ATOM      5  C   UNL d   1      33.154  20.342 -21.733  0.00  0.00     0.100 A 
ATOM      6  C   UNL d   1      32.872  21.379 -22.687  0.00  0.00     0.100 A 
ENDROOT
BRANCH   2   7
ATOM      7  C   UNL d   1      33.241  20.066 -23.132  0.00  0.00     0.144 C 
BRANCH   7   8
ATOM      8  C   UNL d   1      32.981  19.280 -23.076  0.00  0.00     0.297 C 
ATOM      9  N   UNL d   1      32.843  18.840 -23.758  0.00  0.00    -0.206 NA
ATOM     10  O   UNL d   1      32.861  18.940 -22.334  0.00  0.00    -0.264 OA
BRANCH   9  11
ATOM     11  C   UNL d   1      32.584  18.057 -23.700  0.00  0.00     0.096 A 
ATOM     12  C   UNL d   1      33.033  17.509 -23.278  0.00  0.00     0.032 A 
ATOM     13  C   UNL d   1      32.776  16.726 -23.220  0.00  0.00     0.059 A 
ATOM     14 CL   UNL d   1      33.225  16.178 -22.798  0.00  0.00    -0.082 Cl
ATOM     15  C   UNL d   1      32.072  16.496 -23.583  0.00  0.00     0.012 A 
ATOM     16  C   UNL d   1      31.626  17.047 -24.005  0.00  0.00     0.014 A 
ATOM     17  C   UNL d   1      31.885  17.830 -24.062  0.00  0.00     0.075 A 
ATOM     18 CL   UNL d   1      31.443  18.387 -24.482  0.00  0.00    -0.081 Cl
ENDBRANCH   9  11
ENDBRANCH   7   8
ENDBRANCH   2   7
BRANCH   1  19
ATOM     19  S   UNL d   1      32.637  22.172 -20.664  0.00  0.00     0.337 S 
ATOM     20  O   UNL d   1      33.046  22.094 -19.945  0.00  0.00    -0.181 OA
ATOM     21  O   UNL d   1      32.082  22.773 -20.760  0.00  0.00    -0.181 OA
BRANCH  19  22
ATOM     22  N   UNL d   1      32.486  22.698 -20.046  0.00  0.00    -0.213 N 
ATOM     23  C   UNL d   1      31.902  23.281 -20.134  0.00  0.00     0.113 C 
ATOM     24  C   UNL d   1      32.915  22.646 -19.345  0.00  0.00     0.113 C 
ENDBRANCH  19  22
ENDBRANCH   1  19
TORSDOF 5
ENDMDL
