MODEL 1
REMARK VINA RESULT:      28.0      0.000      0.000
REMARK  3 active torsions:
REMARK  status: ('A' for Active; 'I' for Inactive)
REMARK    1  A    between atoms: N_2  and  C_1 
REMARK    2  A    between atoms: C_4  and  C_1 
REMARK       I    between atoms: C_3  and  N_2 
REMARK       I    between atoms: N_5  and  C_3 
REMARK       I    between atoms: C_6  and  N_5 
REMARK    3  A    between atoms: C_11  and  C_6 
ROOT
ATOM      1  N   UNL d   1     -51.090  25.578  33.649  0.00  0.00    -0.159 NA
ATOM      2  C   UNL d   1     -50.271  25.464  33.534  0.00  0.00     0.371 C 
ATOM      3  N   UNL d   1     -49.969  24.702  33.421  0.00  0.00    -0.152 NA
ATOM      4  C   UNL d   1     -50.484  24.045  33.422  0.00  0.00     0.283 C 
ATOM      5  O   UNL d   1     -49.795  26.105  33.538  0.00  0.00    -0.243 OA
ATOM      6  O   UNL d   1     -50.189  23.296  33.311  0.00  0.00    -0.265 OA
ENDROOT
BRANCH   1   7
ATOM      7  C   UNL d   1     -51.393  26.338  33.762  0.00  0.00     0.386 A 
ATOM      8  O   UNL d   1     -50.636  26.155  33.471  0.00  0.00    -0.281 OA
ATOM      9  C   UNL d   1     -50.246  26.859  33.318  0.00  0.00     0.147 A 
ATOM     10  C   UNL d   1     -50.745  27.471  33.507  0.00  0.00     0.147 A 
ATOM     11  O   UNL d   1     -51.457  27.125  33.783  0.00  0.00    -0.281 OA
BRANCH   7  12
ATOM     12  C   UNL d   1     -52.163  26.260  34.059  0.00  0.00     0.470 C 
ATOM     13  F   UNL d   1     -52.470  26.464  33.315  0.00  0.00    -0.164 F 
ATOM     14  F   UNL d   1     -51.841  26.057  34.802  0.00  0.00    -0.164 F 
ATOM     15  F   UNL d   1     -52.939  26.179  34.370  0.00  0.00    -0.164 F 
ENDBRANCH   7  12
ENDBRANCH   1   7
BRANCH   4  16
ATOM     16  C   UNL d   1     -51.289  24.145  33.533  0.00  0.00     0.058 A 
ATOM     17  C   UNL d   1     -51.655  24.848  33.308  0.00  0.00     0.005 A 
ATOM     18  C   UNL d   1     -52.464  24.959  33.416  0.00  0.00     0.000 A 
ATOM     19  C   UNL d   1     -52.907  24.345  33.757  0.00  0.00     0.000 A 
ATOM     20  C   UNL d   1     -52.544  23.641  33.983  0.00  0.00     0.000 A 
ATOM     21  C   UNL d   1     -51.745  23.544  33.872  0.00  0.00     0.005 A 
ENDBRANCH   4  16
TORSDOF 3
ENDMDL
