MODEL 1
REMARK VINA RESULT:      -7.8      0.000      0.000
REMARK  3 active torsions:
REMARK  status: ('A' for Active; 'I' for Inactive)
REMARK       I    between atoms: C_3  and  N_1 
REMARK       I    between atoms: C_2  and  N_7 
REMARK    1  A    between atoms: C_4  and  C_2 
REMARK    2  A    between atoms: C_6  and  C_3 
REMARK    3  A    between atoms: N_7  and  C_15 
ROOT
ATOM      1  N   UNL d   1     -48.558  13.996  22.883  0.00  0.00    -0.273 N 
ATOM      2  C   UNL d   1     -49.313  13.684  23.018  0.00  0.00     0.271 C 
ATOM      3  C   UNL d   1     -47.885  13.548  23.043  0.00  0.00     0.067 A 
ATOM      4  C   UNL d   1     -47.138  13.865  22.907  0.00  0.00     0.018 A 
ATOM      5  C   UNL d   1     -47.968  12.785  23.339  0.00  0.00     0.019 A 
ATOM      6  O   UNL d   1     -49.405  12.917  23.316  0.00  0.00    -0.266 OA
ATOM      7  C   UNL d   1     -46.544  12.642  23.367  0.00  0.00     0.085 A 
ATOM      8  C   UNL d   1     -46.466  13.413  23.068  0.00  0.00     0.021 A 
ATOM      9  C   UNL d   1     -48.467  14.764  22.585  0.00  0.00     0.083 A 
ATOM     10  C   UNL d   1     -47.302  12.333  23.501  0.00  0.00     0.021 A 
ATOM     11  C   UNL d   1     -47.053  14.623  22.612  0.00  0.00     0.003 A 
ATOM     12  C   UNL d   1     -47.723  15.077  22.450  0.00  0.00     0.019 A 
ENDROOT
BRANCH   7  13
ATOM     13  N   UNL d   1     -45.878  12.199  23.526  0.00  0.00    -0.208 NA
ATOM     14  C   UNL d   1     -45.582  11.680  22.959  0.00  0.00     0.282 C 
ATOM     15  O   UNL d   1     -45.955  11.603  22.229  0.00  0.00    -0.265 OA
BRANCH  14  16
ATOM     16  C   UNL d   1     -44.915  11.235  23.113  0.00  0.00     0.096 A 
ATOM     17  C   UNL d   1     -44.982  10.492  23.486  0.00  0.00     0.065 A 
ATOM     18 CL   UNL d   1     -45.728  10.214  23.698  0.00  0.00    -0.082 Cl
ATOM     19  C   UNL d   1     -44.313  10.044  23.641  0.00  0.00     0.012 A 
ATOM     20  C   UNL d   1     -43.569  10.333  23.425  0.00  0.00     0.003 A 
ATOM     21  C   UNL d   1     -43.505  11.071  23.054  0.00  0.00     0.030 A 
ATOM     22  C   UNL d   1     -44.180  11.519  22.899  0.00  0.00     0.146 A 
ATOM     23  F   UNL d   1     -44.101  12.258  22.527  0.00  0.00    -0.204 F 
ENDBRANCH  14  16
ENDBRANCH   7  13
BRANCH   2  24
ATOM     24  C   UNL d   1     -49.983  14.144  22.853  0.00  0.00     0.086 A 
ATOM     25  S   UNL d   1     -50.448  14.093  22.158  0.00  0.00    -0.082 SA
ATOM     26  C   UNL d   1     -51.053  14.651  22.233  0.00  0.00     0.036 A 
ATOM     27  C   UNL d   1     -50.975  15.046  22.953  0.00  0.00     0.008 A 
ATOM     28  C   UNL d   1     -50.312  14.731  23.336  0.00  0.00     0.012 A 
ENDBRANCH   2  24
TORSDOF 3
ENDMDL
MODEL 2
REMARK VINA RESULT:      -7.1      0.678      1.261
REMARK  3 active torsions:
REMARK  status: ('A' for Active; 'I' for Inactive)
REMARK       I    between atoms: C_3  and  N_1 
REMARK       I    between atoms: C_2  and  N_7 
REMARK    1  A    between atoms: C_4  and  C_2 
REMARK    2  A    between atoms: C_6  and  C_3 
REMARK    3  A    between atoms: N_7  and  C_15 
ROOT
ATOM      1  N   UNL d   1     -48.846  13.506  23.153  0.00  0.00    -0.273 N 
ATOM      2  C   UNL d   1     -48.926  14.284  22.883  0.00  0.00     0.271 C 
ATOM      3  C   UNL d   1     -48.098  13.169  23.244  0.00  0.00     0.067 A 
ATOM      4  C   UNL d   1     -48.026  12.395  23.513  0.00  0.00     0.018 A 
ATOM      5  C   UNL d   1     -47.430  13.614  23.065  0.00  0.00     0.019 A 
ATOM      6  O   UNL d   1     -48.258  14.738  22.700  0.00  0.00    -0.266 OA
ATOM      7  C   UNL d   1     -46.598  12.506  23.423  0.00  0.00     0.085 A 
ATOM      8  C   UNL d   1     -47.277  12.061  23.603  0.00  0.00     0.021 A 
ATOM      9  C   UNL d   1     -49.514  13.052  23.336  0.00  0.00     0.083 A 
ATOM     10  C   UNL d   1     -46.683  13.285  23.153  0.00  0.00     0.021 A 
ATOM     11  C   UNL d   1     -48.689  11.952  23.692  0.00  0.00     0.003 A 
ATOM     12  C   UNL d   1     -49.440  12.282  23.603  0.00  0.00     0.019 A 
ENDROOT
BRANCH   7  13
ATOM     13  N   UNL d   1     -45.859  12.172  23.514  0.00  0.00    -0.208 NA
ATOM     14  C   UNL d   1     -45.538  11.710  22.913  0.00  0.00     0.282 C 
ATOM     15  O   UNL d   1     -45.957  11.580  22.217  0.00  0.00    -0.265 OA
BRANCH  14  16
ATOM     16  C   UNL d   1     -44.798  11.374  22.999  0.00  0.00     0.096 A 
ATOM     17  C   UNL d   1     -44.710  10.646  23.394  0.00  0.00     0.065 A 
ATOM     18 CL   UNL d   1     -45.378  10.269  23.697  0.00  0.00    -0.082 Cl
ATOM     19  C   UNL d   1     -43.968  10.308  23.481  0.00  0.00     0.012 A 
ATOM     20  C   UNL d   1     -43.305  10.694  23.174  0.00  0.00     0.003 A 
ATOM     21  C   UNL d   1     -43.395  11.419  22.781  0.00  0.00     0.030 A 
ATOM     22  C   UNL d   1     -44.143  11.756  22.696  0.00  0.00     0.146 A 
ATOM     23  F   UNL d   1     -44.218  12.483  22.300  0.00  0.00    -0.204 F 
ENDBRANCH  14  16
ENDBRANCH   7  13
BRANCH   2  24
ATOM     24  C   UNL d   1     -49.683  14.612  22.795  0.00  0.00     0.086 A 
ATOM     25  S   UNL d   1     -50.173  14.529  22.120  0.00  0.00    -0.082 SA
ATOM     26  C   UNL d   1     -50.869  14.944  22.277  0.00  0.00     0.036 A 
ATOM     27  C   UNL d   1     -50.824  15.282  23.029  0.00  0.00     0.008 A 
ATOM     28  C   UNL d   1     -50.089  15.075  23.348  0.00  0.00     0.012 A 
ENDBRANCH   2  24
TORSDOF 3
ENDMDL
MODEL 3
REMARK VINA RESULT:      -5.4      1.412      1.975
REMARK  3 active torsions:
REMARK  status: ('A' for Active; 'I' for Inactive)
REMARK       I    between atoms: C_3  and  N_1 
REMARK       I    between atoms: C_2  and  N_7 
REMARK    1  A    between atoms: C_4  and  C_2 
REMARK    2  A    between atoms: C_6  and  C_3 
REMARK    3  A    between atoms: N_7  and  C_15 
ROOT
ATOM      1  N   UNL d   1     -48.482  13.049  23.004  0.00  0.00    -0.273 N 
ATOM      2  C   UNL d   1     -48.933  13.680  22.714  0.00  0.00     0.271 C 
ATOM      3  C   UNL d   1     -47.663  13.039  22.908  0.00  0.00     0.067 A 
ATOM      4  C   UNL d   1     -47.222  12.408  23.198  0.00  0.00     0.018 A 
ATOM      5  C   UNL d   1     -47.294  13.664  22.520  0.00  0.00     0.019 A 
ATOM      6  O   UNL d   1     -48.568  14.313  22.323  0.00  0.00    -0.266 OA
ATOM      7  C   UNL d   1     -46.025  13.030  22.709  0.00  0.00     0.085 A 
ATOM      8  C   UNL d   1     -46.403  12.402  23.100  0.00  0.00     0.021 A 
ATOM      9  C   UNL d   1     -48.847  12.416  23.395  0.00  0.00     0.083 A 
ATOM     10  C   UNL d   1     -46.479  13.661  22.421  0.00  0.00     0.021 A 
ATOM     11  C   UNL d   1     -47.587  11.786  23.583  0.00  0.00     0.003 A 
ATOM     12  C   UNL d   1     -48.406  11.789  23.683  0.00  0.00     0.019 A 
ENDROOT
BRANCH   7  13
ATOM     13  N   UNL d   1     -45.215  13.021  22.615  0.00  0.00    -0.208 NA
ATOM     14  C   UNL d   1     -44.884  12.731  21.919  0.00  0.00     0.282 C 
ATOM     15  O   UNL d   1     -45.365  12.450  21.313  0.00  0.00    -0.265 OA
BRANCH  14  16
ATOM     16  C   UNL d   1     -44.073  12.719  21.819  0.00  0.00     0.096 A 
ATOM     17  C   UNL d   1     -43.616  12.111  22.159  0.00  0.00     0.065 A 
ATOM     18 CL   UNL d   1     -43.992  11.522  22.597  0.00  0.00    -0.082 Cl
ATOM     19  C   UNL d   1     -42.802  12.098  22.060  0.00  0.00     0.012 A 
ATOM     20  C   UNL d   1     -42.435  12.694  21.619  0.00  0.00     0.003 A 
ATOM     21  C   UNL d   1     -42.892  13.298  21.281  0.00  0.00     0.030 A 
ATOM     22  C   UNL d   1     -43.710  13.308  21.384  0.00  0.00     0.146 A 
ATOM     23  F   UNL d   1     -44.156  13.919  21.040  0.00  0.00    -0.204 F 
ENDBRANCH  14  16
ENDBRANCH   7  13
BRANCH   2  24
ATOM     24  C   UNL d   1     -49.755  13.679  22.817  0.00  0.00     0.086 A 
ATOM     25  S   UNL d   1     -50.315  13.415  22.251  0.00  0.00    -0.082 SA
ATOM     26  C   UNL d   1     -51.062  13.515  22.589  0.00  0.00     0.036 A 
ATOM     27  C   UNL d   1     -50.981  13.832  23.346  0.00  0.00     0.008 A 
ATOM     28  C   UNL d   1     -50.171  13.933  23.485  0.00  0.00     0.012 A 
ENDBRANCH   2  24
TORSDOF 3
ENDMDL
MODEL 4
REMARK VINA RESULT:      -5.1      8.547     10.142
REMARK  3 active torsions:
REMARK  status: ('A' for Active; 'I' for Inactive)
REMARK       I    between atoms: C_3  and  N_1 
REMARK       I    between atoms: C_2  and  N_7 
REMARK    1  A    between atoms: C_4  and  C_2 
REMARK    2  A    between atoms: C_6  and  C_3 
REMARK    3  A    between atoms: N_7  and  C_15 
ROOT
ATOM      1  N   UNL d   1     -38.955  14.278  21.075  0.00  0.00    -0.273 N 
ATOM      2  C   UNL d   1     -38.587  13.721  21.565  0.00  0.00     0.271 C 
ATOM      3  C   UNL d   1     -38.742  14.344  20.281  0.00  0.00     0.067 A 
ATOM      4  C   UNL d   1     -39.111  14.899  19.799  0.00  0.00     0.018 A 
ATOM      5  C   UNL d   1     -38.158  13.850  19.977  0.00  0.00     0.019 A 
ATOM      6  O   UNL d   1     -37.999  13.221  21.266  0.00  0.00    -0.266 OA
ATOM      7  C   UNL d   1     -38.306  14.466  18.694  0.00  0.00     0.085 A 
ATOM      8  C   UNL d   1     -38.895  14.962  19.005  0.00  0.00     0.021 A 
ATOM      9  C   UNL d   1     -39.544  14.778  21.374  0.00  0.00     0.083 A 
ATOM     10  C   UNL d   1     -37.940  13.909  19.187  0.00  0.00     0.021 A 
ATOM     11  C   UNL d   1     -39.692  15.390  20.099  0.00  0.00     0.003 A 
ATOM     12  C   UNL d   1     -39.911  15.330  20.893  0.00  0.00     0.019 A 
ENDROOT
BRANCH   7  13
ATOM     13  N   UNL d   1     -38.095  14.531  17.908  0.00  0.00    -0.208 NA
ATOM     14  C   UNL d   1     -38.592  14.237  17.321  0.00  0.00     0.282 C 
ATOM     15  O   UNL d   1     -39.304  13.876  17.520  0.00  0.00    -0.265 OA
BRANCH  14  16
ATOM     16  C   UNL d   1     -38.385  14.300  16.533  0.00  0.00     0.096 A 
ATOM     17  C   UNL d   1     -38.152  13.624  16.104  0.00  0.00     0.065 A 
ATOM     18 CL   UNL d   1     -38.134  12.893  16.484  0.00  0.00    -0.082 Cl
ATOM     19  C   UNL d   1     -37.944  13.686  15.314  0.00  0.00     0.012 A 
ATOM     20  C   UNL d   1     -37.966  14.425  14.942  0.00  0.00     0.003 A 
ATOM     21  C   UNL d   1     -38.198  15.096  15.371  0.00  0.00     0.030 A 
ATOM     22  C   UNL d   1     -38.406  15.029  16.167  0.00  0.00     0.146 A 
ATOM     23  F   UNL d   1     -38.637  15.710  16.584  0.00  0.00    -0.204 F 
ENDBRANCH  14  16
ENDBRANCH   7  13
BRANCH   2  24
ATOM     24  C   UNL d   1     -38.810  13.664  22.361  0.00  0.00     0.086 A 
ATOM     25  S   UNL d   1     -38.480  14.108  22.991  0.00  0.00    -0.082 SA
ATOM     26  C   UNL d   1     -38.868  13.871  23.680  0.00  0.00     0.036 A 
ATOM     27  C   UNL d   1     -39.428  13.294  23.496  0.00  0.00     0.008 A 
ATOM     28  C   UNL d   1     -39.391  13.168  22.678  0.00  0.00     0.012 A 
ENDBRANCH   2  24
TORSDOF 3
ENDMDL
MODEL 5
REMARK VINA RESULT:      -5.0      2.458      5.518
REMARK  3 active torsions:
REMARK  status: ('A' for Active; 'I' for Inactive)
REMARK       I    between atoms: C_3  and  N_1 
REMARK       I    between atoms: C_2  and  N_7 
REMARK    1  A    between atoms: C_4  and  C_2 
REMARK    2  A    between atoms: C_6  and  C_3 
REMARK    3  A    between atoms: N_7  and  C_15 
ROOT
ATOM      1  N   UNL d   1     -45.428  12.771  22.513  0.00  0.00    -0.273 N 
ATOM      2  C   UNL d   1     -44.886  13.237  22.094  0.00  0.00     0.271 C 
ATOM      3  C   UNL d   1     -46.154  13.084  22.751  0.00  0.00     0.067 A 
ATOM      4  C   UNL d   1     -46.688  12.617  23.167  0.00  0.00     0.018 A 
ATOM      5  C   UNL d   1     -46.336  13.866  22.569  0.00  0.00     0.019 A 
ATOM      6  O   UNL d   1     -45.063  14.024  21.908  0.00  0.00    -0.266 OA
ATOM      7  C   UNL d   1     -47.601  13.722  23.222  0.00  0.00     0.085 A 
ATOM      8  C   UNL d   1     -47.412  12.933  23.403  0.00  0.00     0.021 A 
ATOM      9  C   UNL d   1     -45.252  11.984  22.699  0.00  0.00     0.083 A 
ATOM     10  C   UNL d   1     -47.055  14.185  22.803  0.00  0.00     0.021 A 
ATOM     11  C   UNL d   1     -46.508  11.840  23.348  0.00  0.00     0.003 A 
ATOM     12  C   UNL d   1     -45.785  11.520  23.113  0.00  0.00     0.019 A 
ENDROOT
BRANCH   7  13
ATOM     13  N   UNL d   1     -48.318  14.031  23.458  0.00  0.00    -0.208 NA
ATOM     14  C   UNL d   1     -48.889  14.223  22.897  0.00  0.00     0.282 C 
ATOM     15  O   UNL d   1     -48.744  14.106  22.095  0.00  0.00    -0.265 OA
BRANCH  14  16
ATOM     16  C   UNL d   1     -49.609  14.533  23.128  0.00  0.00     0.096 A 
ATOM     17  C   UNL d   1     -49.705  15.357  23.209  0.00  0.00     0.065 A 
ATOM     18 CL   UNL d   1     -49.067  15.855  23.054  0.00  0.00    -0.082 Cl
ATOM     19  C   UNL d   1     -50.427  15.670  23.441  0.00  0.00     0.012 A 
ATOM     20  C   UNL d   1     -51.062  15.162  23.595  0.00  0.00     0.003 A 
ATOM     21  C   UNL d   1     -50.963  14.342  23.513  0.00  0.00     0.030 A 
ATOM     22  C   UNL d   1     -50.236  14.032  23.280  0.00  0.00     0.146 A 
ATOM     23  F   UNL d   1     -50.151  13.209  23.202  0.00  0.00    -0.204 F 
ENDBRANCH  14  16
ENDBRANCH   7  13
BRANCH   2  24
ATOM     24  C   UNL d   1     -44.161  12.911  21.861  0.00  0.00     0.086 A 
ATOM     25  S   UNL d   1     -43.574  12.611  22.378  0.00  0.00    -0.082 SA
ATOM     26  C   UNL d   1     -42.951  12.345  21.905  0.00  0.00     0.036 A 
ATOM     27  C   UNL d   1     -43.135  12.472  21.111  0.00  0.00     0.008 A 
ATOM     28  C   UNL d   1     -43.885  12.823  21.085  0.00  0.00     0.012 A 
ENDBRANCH   2  24
TORSDOF 3
ENDMDL
