MODEL 1
REMARK VINA RESULT:      15.9      0.000      0.000
REMARK  6 active torsions:
REMARK  status: ('A' for Active; 'I' for Inactive)
REMARK       I    between atoms: N_2  and  C_4 
REMARK    1  A    between atoms: C_6  and  N_2 
REMARK    2  A    between atoms: C_12  and  C_3 
REMARK    3  A    between atoms: C_4  and  C_11 
REMARK    4  A    between atoms: O_13  and  C_9 
REMARK    5  A    between atoms: C_11  and  C_12 
REMARK    6  A    between atoms: C_17  and  O_13 
ROOT
ATOM      1  N   UNL d   1      44.686 -14.743  44.282  0.00  0.00    -0.206 NA
ATOM      2  C   UNL d   1      44.783 -15.560  44.283  0.00  0.00     0.279 C 
ATOM      3  O   UNL d   1      44.137 -16.053  44.163  0.00  0.00    -0.265 OA
ENDROOT
BRANCH   1   4
ATOM      4  C   UNL d   1      45.343 -14.248  44.404  0.00  0.00     0.107 A 
ATOM      5  C   UNL d   1      45.343 -13.485  44.097  0.00  0.00     0.118 A 
ATOM      6  C   UNL d   1      45.989 -12.997  44.215  0.00  0.00     0.026 A 
ATOM      7  C   UNL d   1      46.647 -13.268  44.644  0.00  0.00     0.002 A 
ATOM      8  C   UNL d   1      46.646 -14.036  44.954  0.00  0.00     0.002 A 
ATOM      9  C   UNL d   1      45.989 -14.531  44.832  0.00  0.00     0.021 A 
BRANCH   5  10
ATOM     10  O   UNL d   1      44.690 -13.220  43.672  0.00  0.00    -0.304 OA
BRANCH  10  11
ATOM     11  C   UNL d   1      44.674 -12.459  43.362  0.00  0.00     0.123 C 
ATOM     12  C   UNL d   1      44.262 -12.299  42.667  0.00  0.00     0.029 C 
ENDBRANCH  10  11
ENDBRANCH   5  10
ENDBRANCH   1   4
BRANCH   2  13
ATOM     13  C   UNL d   1      45.529 -15.893  44.404  0.00  0.00     0.065 C 
BRANCH  13  14
ATOM     14  C   UNL d   1      45.603 -16.611  44.792  0.00  0.00     0.030 C 
BRANCH  14  15
ATOM     15  C   UNL d   1      45.949 -17.258  44.411  0.00  0.00     0.100 A 
ATOM     16  O   UNL d   1      46.012 -17.379  43.594  0.00  0.00    -0.307 OA
ATOM     17  C   UNL d   1      46.393 -18.090  43.463  0.00  0.00     0.100 A 
ATOM     18  C   UNL d   1      46.573 -18.421  44.202  0.00  0.00     0.027 A 
ATOM     19  C   UNL d   1      46.568 -18.420  42.734  0.00  0.00     0.027 C 
ATOM     20  C   UNL d   1      46.299 -17.907  44.787  0.00  0.00     0.027 A 
ENDBRANCH  14  15
ENDBRANCH  13  14
ENDBRANCH   2  13
TORSDOF 6
ENDMDL
