MODEL 1
REMARK VINA RESULT:      -7.4      0.000      0.000
REMARK  3 active torsions:
REMARK  status: ('A' for Active; 'I' for Inactive)
REMARK    1  A    between atoms: C_2  and  C_1 
REMARK    2  A    between atoms: C_6  and  C_2 
REMARK    3  A    between atoms: C_9  and  C_6 
ROOT
ATOM      1  C   UNL d   1     -48.269  12.685  23.156  0.00  0.00     0.199 C 
ATOM      2  O   UNL d   1     -48.896  12.589  23.687  0.00  0.00    -0.286 OA
ENDROOT
BRANCH   1   3
ATOM      3  C   UNL d   1     -47.559  12.287  23.291  0.00  0.00     0.078 A 
ATOM      4  C   UNL d   1     -47.566  11.476  23.505  0.00  0.00     0.202 A 
ATOM      5  C   UNL d   1     -46.847  11.086  23.638  0.00  0.00     0.084 A 
ATOM      6  O   UNL d   1     -48.286  11.082  23.578  0.00  0.00    -0.286 OA
ATOM      7  C   UNL d   1     -46.130  11.480  23.565  0.00  0.00     0.199 A 
ATOM      8  C   UNL d   1     -46.123  12.291  23.351  0.00  0.00     0.042 A 
ATOM      9  O   UNL d   1     -45.420  11.090  23.698  0.00  0.00    -0.286 OA
ATOM     10  C   UNL d   1     -46.833  12.689  23.216  0.00  0.00     0.010 A 
ENDBRANCH   1   3
BRANCH   1  11
ATOM     11  C   UNL d   1     -48.357  13.174  22.499  0.00  0.00     0.042 C 
BRANCH  11  12
ATOM     12  C   UNL d   1     -49.034  13.638  22.409  0.00  0.00     0.003 A 
ATOM     13  C   UNL d   1     -49.666  13.342  21.982  0.00  0.00     0.001 A 
ATOM     14  C   UNL d   1     -50.342  13.806  21.893  0.00  0.00     0.007 A 
ATOM     15  C   UNL d   1     -50.389  14.564  22.228  0.00  0.00     0.035 A 
ATOM     16  C   UNL d   1     -49.744  14.851  22.657  0.00  0.00     0.007 A 
ATOM     17 BR   UNL d   1     -51.064  15.023  22.138  0.00  0.00    -0.049 Br
ATOM     18  C   UNL d   1     -49.064  14.389  22.749  0.00  0.00     0.001 A 
ENDBRANCH  11  12
ENDBRANCH   1  11
TORSDOF 3
ENDMDL
MODEL 2
REMARK VINA RESULT:      -7.3      2.015      4.168
REMARK  3 active torsions:
REMARK  status: ('A' for Active; 'I' for Inactive)
REMARK    1  A    between atoms: C_2  and  C_1 
REMARK    2  A    between atoms: C_6  and  C_2 
REMARK    3  A    between atoms: C_9  and  C_6 
ROOT
ATOM      1  C   UNL d   1     -48.558  13.357  22.586  0.00  0.00     0.199 C 
ATOM      2  O   UNL d   1     -48.193  13.042  21.913  0.00  0.00    -0.286 OA
ENDROOT
BRANCH   1   3
ATOM      3  C   UNL d   1     -49.183  13.888  22.497  0.00  0.00     0.078 A 
ATOM      4  C   UNL d   1     -49.828  13.698  21.995  0.00  0.00     0.202 A 
ATOM      5  C   UNL d   1     -50.450  14.239  21.913  0.00  0.00     0.084 A 
ATOM      6  O   UNL d   1     -49.831  12.977  21.595  0.00  0.00    -0.286 OA
ATOM      7  C   UNL d   1     -50.446  14.956  22.312  0.00  0.00     0.199 A 
ATOM      8  C   UNL d   1     -49.801  15.146  22.814  0.00  0.00     0.042 A 
ATOM      9  O   UNL d   1     -51.064  15.489  22.228  0.00  0.00    -0.286 OA
ATOM     10  C   UNL d   1     -49.176  14.615  22.903  0.00  0.00     0.010 A 
ENDBRANCH   1   3
BRANCH   1  11
ATOM     11  C   UNL d   1     -48.298  13.139  23.337  0.00  0.00     0.042 C 
BRANCH  11  12
ATOM     12  C   UNL d   1     -47.691  12.587  23.426  0.00  0.00     0.003 A 
ATOM     13  C   UNL d   1     -46.915  12.827  23.330  0.00  0.00     0.001 A 
ATOM     14  C   UNL d   1     -46.309  12.275  23.419  0.00  0.00     0.007 A 
ATOM     15  C   UNL d   1     -46.475  11.483  23.603  0.00  0.00     0.035 A 
ATOM     16  C   UNL d   1     -47.263  11.251  23.697  0.00  0.00     0.007 A 
ATOM     17 BR   UNL d   1     -45.870  10.935  23.690  0.00  0.00    -0.049 Br
ATOM     18  C   UNL d   1     -47.873  11.803  23.608  0.00  0.00     0.001 A 
ENDBRANCH  11  12
ENDBRANCH   1  11
TORSDOF 3
ENDMDL
MODEL 3
REMARK VINA RESULT:      -7.2      1.028      1.349
REMARK  3 active torsions:
REMARK  status: ('A' for Active; 'I' for Inactive)
REMARK    1  A    between atoms: C_2  and  C_1 
REMARK    2  A    between atoms: C_6  and  C_2 
REMARK    3  A    between atoms: C_9  and  C_6 
ROOT
ATOM      1  C   UNL d   1     -47.812  13.229  22.664  0.00  0.00     0.199 C 
ATOM      2  O   UNL d   1     -48.159  13.109  21.923  0.00  0.00    -0.286 OA
ENDROOT
BRANCH   1   3
ATOM      3  C   UNL d   1     -47.219  12.717  22.922  0.00  0.00     0.078 A 
ATOM      4  C   UNL d   1     -46.423  12.845  22.690  0.00  0.00     0.202 A 
ATOM      5  C   UNL d   1     -45.835  12.324  22.955  0.00  0.00     0.084 A 
ATOM      6  O   UNL d   1     -46.240  13.486  22.205  0.00  0.00    -0.286 OA
ATOM      7  C   UNL d   1     -46.019  11.686  23.438  0.00  0.00     0.199 A 
ATOM      8  C   UNL d   1     -46.816  11.558  23.669  0.00  0.00     0.042 A 
ATOM      9  O   UNL d   1     -45.434  11.172  23.698  0.00  0.00    -0.286 OA
ATOM     10  C   UNL d   1     -47.408  12.071  23.412  0.00  0.00     0.010 A 
ENDBRANCH   1   3
BRANCH   1  11
ATOM     11  C   UNL d   1     -48.058  13.857  23.138  0.00  0.00     0.042 C 
BRANCH  11  12
ATOM     12  C   UNL d   1     -48.810  14.184  23.043  0.00  0.00     0.003 A 
ATOM     13  C   UNL d   1     -49.461  13.775  23.322  0.00  0.00     0.001 A 
ATOM     14  C   UNL d   1     -50.212  14.102  23.227  0.00  0.00     0.007 A 
ATOM     15  C   UNL d   1     -50.315  14.836  22.853  0.00  0.00     0.035 A 
ATOM     16  C   UNL d   1     -49.650  15.240  22.575  0.00  0.00     0.007 A 
ATOM     17 BR   UNL d   1     -51.064  15.160  22.759  0.00  0.00    -0.049 Br
ATOM     18  C   UNL d   1     -48.895  14.915  22.669  0.00  0.00     0.001 A 
ENDBRANCH  11  12
ENDBRANCH   1  11
TORSDOF 3
ENDMDL
MODEL 4
REMARK VINA RESULT:      -7.1      2.182      4.127
REMARK  3 active torsions:
REMARK  status: ('A' for Active; 'I' for Inactive)
REMARK    1  A    between atoms: C_2  and  C_1 
REMARK    2  A    between atoms: C_6  and  C_2 
REMARK    3  A    between atoms: C_9  and  C_6 
ROOT
ATOM      1  C   UNL d   1     -48.464  13.884  22.825  0.00  0.00     0.199 C 
ATOM      2  O   UNL d   1     -48.490  13.350  22.194  0.00  0.00    -0.286 OA
ENDROOT
BRANCH   1   3
ATOM      3  C   UNL d   1     -49.112  14.374  22.968  0.00  0.00     0.078 A 
ATOM      4  C   UNL d   1     -49.818  14.054  23.290  0.00  0.00     0.202 A 
ATOM      5  C   UNL d   1     -50.463  14.555  23.429  0.00  0.00     0.084 A 
ATOM      6  O   UNL d   1     -49.856  13.249  23.461  0.00  0.00    -0.286 OA
ATOM      7  C   UNL d   1     -50.423  15.357  23.258  0.00  0.00     0.199 A 
ATOM      8  C   UNL d   1     -49.717  15.677  22.936  0.00  0.00     0.042 A 
ATOM      9  O   UNL d   1     -51.064  15.850  23.398  0.00  0.00    -0.286 OA
ATOM     10  C   UNL d   1     -49.069  15.187  22.793  0.00  0.00     0.010 A 
ENDBRANCH   1   3
BRANCH   1  11
ATOM     11  C   UNL d   1     -47.795  13.924  23.305  0.00  0.00     0.042 C 
BRANCH  11  12
ATOM     12  C   UNL d   1     -47.077  13.608  23.048  0.00  0.00     0.003 A 
ATOM     13  C   UNL d   1     -46.890  12.835  23.240  0.00  0.00     0.001 A 
ATOM     14  C   UNL d   1     -46.172  12.520  22.984  0.00  0.00     0.007 A 
ATOM     15  C   UNL d   1     -45.640  12.975  22.536  0.00  0.00     0.035 A 
ATOM     16  C   UNL d   1     -45.841  13.754  22.349  0.00  0.00     0.007 A 
ATOM     17 BR   UNL d   1     -44.926  12.659  22.282  0.00  0.00    -0.049 Br
ATOM     18  C   UNL d   1     -46.560  14.073  22.604  0.00  0.00     0.001 A 
ENDBRANCH  11  12
ENDBRANCH   1  11
TORSDOF 3
ENDMDL
MODEL 5
REMARK VINA RESULT:      -6.0      9.145      9.813
REMARK  3 active torsions:
REMARK  status: ('A' for Active; 'I' for Inactive)
REMARK    1  A    between atoms: C_2  and  C_1 
REMARK    2  A    between atoms: C_6  and  C_2 
REMARK    3  A    between atoms: C_9  and  C_6 
ROOT
ATOM      1  C   UNL d   1     -39.900  14.915  19.477  0.00  0.00     0.199 C 
ATOM      2  O   UNL d   1     -39.093  14.735  19.490  0.00  0.00    -0.286 OA
ENDROOT
BRANCH   1   3
ATOM      3  C   UNL d   1     -40.276  15.040  18.753  0.00  0.00     0.078 A 
ATOM      4  C   UNL d   1     -40.372  14.404  18.215  0.00  0.00     0.202 A 
ATOM      5  C   UNL d   1     -40.751  14.540  17.491  0.00  0.00     0.084 A 
ATOM      6  O   UNL d   1     -40.088  13.656  18.416  0.00  0.00    -0.286 OA
ATOM      7  C   UNL d   1     -41.033  15.285  17.292  0.00  0.00     0.199 A 
ATOM      8  C   UNL d   1     -40.937  15.921  17.830  0.00  0.00     0.042 A 
ATOM      9  O   UNL d   1     -41.408  15.416  16.574  0.00  0.00    -0.286 OA
ATOM     10  C   UNL d   1     -40.561  15.796  18.554  0.00  0.00     0.010 A 
ENDBRANCH   1   3
BRANCH   1  11
ATOM     11  C   UNL d   1     -40.322  14.969  20.183  0.00  0.00     0.042 C 
BRANCH  11  12
ATOM     12  C   UNL d   1     -39.925  15.015  20.905  0.00  0.00     0.003 A 
ATOM     13  C   UNL d   1     -39.760  14.326  21.314  0.00  0.00     0.001 A 
ATOM     14  C   UNL d   1     -39.364  14.373  22.036  0.00  0.00     0.007 A 
ATOM     15  C   UNL d   1     -39.132  15.105  22.351  0.00  0.00     0.035 A 
ATOM     16  C   UNL d   1     -39.304  15.794  21.928  0.00  0.00     0.007 A 
ATOM     17 BR   UNL d   1     -38.738  15.149  23.070  0.00  0.00    -0.049 Br
ATOM     18  C   UNL d   1     -39.702  15.751  21.204  0.00  0.00     0.001 A 
ENDBRANCH  11  12
ENDBRANCH   1  11
TORSDOF 3
ENDMDL
