MODEL 1
REMARK VINA RESULT:       9.7      0.000      0.000
REMARK  4 active torsions:
REMARK  status: ('A' for Active; 'I' for Inactive)
REMARK    1  A    between atoms: N_3  and  C_1 
REMARK       I    between atoms: C_7  and  N_3 
REMARK    2  A    between atoms: C_15  and  C_7 
REMARK    3  A    between atoms: C_10  and  S_11 
REMARK    4  A    between atoms: S_11  and  C_15 
ROOT
ATOM      1  C   UNL d   1      46.476 -18.051  44.017  0.00  0.00     0.182 A 
ATOM      2  N   UNL d   1      46.512 -18.862  44.175  0.00  0.00    -0.283 N 
ATOM      3  S   UNL d   1      46.492 -17.951  43.193  0.00  0.00    -0.048 SA
ATOM      4  C   UNL d   1      46.538 -18.705  42.847  0.00  0.00     0.051 A 
ATOM      5  C   UNL d   1      46.550 -19.266  43.452  0.00  0.00     0.072 A 
ATOM      6  C   UNL d   1      46.570 -18.940  42.053  0.00  0.00     0.038 A 
ATOM      7  C   UNL d   1      46.594 -20.063  43.264  0.00  0.00     0.020 A 
ATOM      8  C   UNL d   1      46.614 -19.742  41.883  0.00  0.00     0.141 A 
ATOM      9  C   UNL d   1      46.626 -20.304  42.489  0.00  0.00     0.031 A 
ATOM     10  C   UNL d   1      46.509 -19.200  44.919  0.00  0.00     0.101 C 
ATOM     11  F   UNL d   1      46.647 -19.993  41.093  0.00  0.00    -0.204 F 
ENDROOT
BRANCH   1  12
ATOM     12  N   UNL d   1      46.432 -17.447  44.578  0.00  0.00    -0.183 NA
ATOM     13  C   UNL d   1      45.901 -16.897  44.257  0.00  0.00     0.288 C 
ATOM     14  O   UNL d   1      45.554 -17.040  43.518  0.00  0.00    -0.265 OA
BRANCH  13  15
ATOM     15  C   UNL d   1      45.716 -16.211  44.665  0.00  0.00     0.101 C 
BRANCH  15  16
ATOM     16  S   UNL d   1      45.468 -15.533  44.257  0.00  0.00    -0.040 SA
BRANCH  16  17
ATOM     17  C   UNL d   1      45.472 -14.793  44.637  0.00  0.00     0.226 C 
ATOM     18  O   UNL d   1      46.177 -14.509  44.955  0.00  0.00    -0.279 OA
ATOM     19  C   UNL d   1      44.782 -14.359  44.691  0.00  0.00     0.053 C 
ENDBRANCH  16  17
ENDBRANCH  15  16
ENDBRANCH  13  15
ENDBRANCH   1  12
TORSDOF 4
ENDMDL
