MODEL 1
REMARK VINA RESULT:     -10.3      0.000      0.000
REMARK  3 active torsions:
REMARK  status: ('A' for Active; 'I' for Inactive)
REMARK    1  A    between atoms: N_2  and  S_1 
REMARK    2  A    between atoms: C_4  and  S_1 
REMARK    3  A    between atoms: C_3  and  N_2 
ROOT
ATOM      1  S   UNL d   1      52.783  32.182  52.943  0.00  0.00     0.285 S 
ATOM      2  O   UNL d   1      52.017  32.162  53.258  0.00  0.00    -0.198 OA
ATOM      3  O   UNL d   1      53.553  32.201  52.628  0.00  0.00    -0.198 OA
ENDROOT
BRANCH   1   4
ATOM      4  N   UNL d   1      52.658  32.965  52.687  0.00  0.00    -0.158 NA
BRANCH   4   5
ATOM      5  C   UNL d   1      52.766  33.592  53.215  0.00  0.00     0.094 A 
ATOM      6  C   UNL d   1      53.303  33.540  53.843  0.00  0.00     0.023 A 
ATOM      7  C   UNL d   1      53.406  34.160  54.361  0.00  0.00     0.041 A 
ATOM      8  C   UNL d   1      53.948  34.071  54.971  0.00  0.00     0.003 C 
ATOM      9  C   UNL d   1      52.958  34.872  54.259  0.00  0.00     0.196 A 
ATOM     10  C   UNL d   1      52.421  34.923  53.631  0.00  0.00     0.044 A 
ATOM     11  O   UNL d   1      53.066  35.500  54.789  0.00  0.00    -0.287 OA
ATOM     12  C   UNL d   1      52.332  34.288  53.121  0.00  0.00     0.022 A 
ATOM     13  C   UNL d   1      51.799  34.354  52.506  0.00  0.00     0.002 C 
ENDBRANCH   4   5
ENDBRANCH   1   4
BRANCH   1  14
ATOM     14  C   UNL d   1      52.911  31.399  53.199  0.00  0.00     0.105 A 
ATOM     15  C   UNL d   1      52.281  30.879  53.212  0.00  0.00     0.013 A 
ATOM     16  C   UNL d   1      52.397  30.119  53.458  0.00  0.00     0.001 A 
ATOM     17  C   UNL d   1      53.162  29.856  53.703  0.00  0.00     0.000 A 
ATOM     18  C   UNL d   1      53.793  30.384  53.689  0.00  0.00     0.001 A 
ATOM     19  C   UNL d   1      53.307  29.061  53.966  0.00  0.00     0.000 C 
ATOM     20  C   UNL d   1      53.664  31.163  53.434  0.00  0.00     0.013 A 
ENDBRANCH   1  14
TORSDOF 3
ENDMDL
MODEL 2
REMARK VINA RESULT:      -9.8      1.329      3.800
REMARK  3 active torsions:
REMARK  status: ('A' for Active; 'I' for Inactive)
REMARK    1  A    between atoms: N_2  and  S_1 
REMARK    2  A    between atoms: C_4  and  S_1 
REMARK    3  A    between atoms: C_3  and  N_2 
ROOT
ATOM      1  S   UNL d   1      52.425  33.502  53.127  0.00  0.00     0.285 S 
ATOM      2  O   UNL d   1      52.171  33.524  53.915  0.00  0.00    -0.198 OA
ATOM      3  O   UNL d   1      52.679  33.480  52.334  0.00  0.00    -0.198 OA
ENDROOT
BRANCH   1   4
ATOM      4  N   UNL d   1      53.170  33.223  53.374  0.00  0.00    -0.158 NA
BRANCH   4   5
ATOM      5  C   UNL d   1      53.284  32.413  53.501  0.00  0.00     0.094 A 
ATOM      6  C   UNL d   1      52.891  31.845  53.044  0.00  0.00     0.023 A 
ATOM      7  C   UNL d   1      53.005  31.050  53.172  0.00  0.00     0.041 A 
ATOM      8  C   UNL d   1      52.598  30.517  52.699  0.00  0.00     0.003 C 
ATOM      9  C   UNL d   1      53.534  30.794  53.782  0.00  0.00     0.196 A 
ATOM     10  C   UNL d   1      53.927  31.362  54.239  0.00  0.00     0.044 A 
ATOM     11  O   UNL d   1      53.648  29.983  53.909  0.00  0.00    -0.287 OA
ATOM     12  C   UNL d   1      53.798  32.158  54.094  0.00  0.00     0.022 A 
ATOM     13  C   UNL d   1      54.192  32.707  54.552  0.00  0.00     0.002 C 
ENDBRANCH   4   5
ENDBRANCH   1   4
BRANCH   1  14
ATOM     14  C   UNL d   1      51.680  33.781  52.877  0.00  0.00     0.105 A 
ATOM     15  C   UNL d   1      51.600  34.070  52.117  0.00  0.00     0.013 A 
ATOM     16  C   UNL d   1      50.883  34.342  51.867  0.00  0.00     0.001 A 
ATOM     17  C   UNL d   1      50.213  34.331  52.383  0.00  0.00     0.000 A 
ATOM     18  C   UNL d   1      50.298  34.038  53.147  0.00  0.00     0.001 A 
ATOM     19  C   UNL d   1      49.448  34.612  52.141  0.00  0.00     0.000 C 
ATOM     20  C   UNL d   1      51.040  33.760  53.395  0.00  0.00     0.013 A 
ENDBRANCH   1  14
TORSDOF 3
ENDMDL
MODEL 3
REMARK VINA RESULT:      -9.7      1.695      3.243
REMARK  3 active torsions:
REMARK  status: ('A' for Active; 'I' for Inactive)
REMARK    1  A    between atoms: N_2  and  S_1 
REMARK    2  A    between atoms: C_4  and  S_1 
REMARK    3  A    between atoms: C_3  and  N_2 
ROOT
ATOM      1  S   UNL d   1      52.238  33.052  53.136  0.00  0.00     0.285 S 
ATOM      2  O   UNL d   1      52.682  33.334  52.497  0.00  0.00    -0.198 OA
ATOM      3  O   UNL d   1      51.790  32.770  53.779  0.00  0.00    -0.198 OA
ENDROOT
BRANCH   1   4
ATOM      4  N   UNL d   1      52.897  32.621  53.406  0.00  0.00    -0.158 NA
BRANCH   4   5
ATOM      5  C   UNL d   1      53.459  32.990  53.890  0.00  0.00     0.094 A 
ATOM      6  C   UNL d   1      53.264  33.650  54.352  0.00  0.00     0.023 A 
ATOM      7  C   UNL d   1      53.819  34.009  54.826  0.00  0.00     0.041 A 
ATOM      8  C   UNL d   1      53.588  34.660  55.269  0.00  0.00     0.003 C 
ATOM      9  C   UNL d   1      54.610  33.706  54.852  0.00  0.00     0.196 A 
ATOM     10  C   UNL d   1      54.804  33.047  54.391  0.00  0.00     0.044 A 
ATOM     11  O   UNL d   1      55.172  34.075  55.336  0.00  0.00    -0.287 OA
ATOM     12  C   UNL d   1      54.231  32.700  53.919  0.00  0.00     0.022 A 
ATOM     13  C   UNL d   1      54.437  32.050  53.470  0.00  0.00     0.002 C 
ENDBRANCH   4   5
ENDBRANCH   1   4
BRANCH   1  14
ATOM     14  C   UNL d   1      51.575  33.483  52.869  0.00  0.00     0.105 A 
ATOM     15  C   UNL d   1      51.640  33.926  52.186  0.00  0.00     0.013 A 
ATOM     16  C   UNL d   1      51.004  34.345  51.921  0.00  0.00     0.001 A 
ATOM     17  C   UNL d   1      50.271  34.331  52.342  0.00  0.00     0.000 A 
ATOM     18  C   UNL d   1      50.211  33.883  53.030  0.00  0.00     0.001 A 
ATOM     19  C   UNL d   1      49.588  34.764  52.082  0.00  0.00     0.000 C 
ATOM     20  C   UNL d   1      50.871  33.455  53.295  0.00  0.00     0.013 A 
ENDBRANCH   1  14
TORSDOF 3
ENDMDL
MODEL 4
REMARK VINA RESULT:      -8.0      1.177      3.851
REMARK  3 active torsions:
REMARK  status: ('A' for Active; 'I' for Inactive)
REMARK    1  A    between atoms: N_2  and  S_1 
REMARK    2  A    between atoms: C_4  and  S_1 
REMARK    3  A    between atoms: C_3  and  N_2 
ROOT
ATOM      1  S   UNL d   1      53.340  32.364  53.222  0.00  0.00     0.285 S 
ATOM      2  O   UNL d   1      52.523  32.293  53.109  0.00  0.00    -0.198 OA
ATOM      3  O   UNL d   1      54.161  32.438  53.337  0.00  0.00    -0.198 OA
ENDROOT
BRANCH   1   4
ATOM      4  N   UNL d   1      53.454  31.613  52.882  0.00  0.00    -0.158 NA
BRANCH   4   5
ATOM      5  C   UNL d   1      53.339  30.933  53.340  0.00  0.00     0.094 A 
ATOM      6  C   UNL d   1      53.459  30.939  54.159  0.00  0.00     0.023 A 
ATOM      7  C   UNL d   1      53.344  30.269  54.606  0.00  0.00     0.041 A 
ATOM      8  C   UNL d   1      53.473  30.314  55.415  0.00  0.00     0.003 C 
ATOM      9  C   UNL d   1      53.098  29.550  54.230  0.00  0.00     0.196 A 
ATOM     10  C   UNL d   1      52.978  29.545  53.411  0.00  0.00     0.044 A 
ATOM     11  O   UNL d   1      52.982  28.870  54.689  0.00  0.00    -0.287 OA
ATOM     12  C   UNL d   1      53.099  30.231  52.980  0.00  0.00     0.022 A 
ATOM     13  C   UNL d   1      52.977  30.209  52.172  0.00  0.00     0.002 C 
ENDBRANCH   4   5
ENDBRANCH   1   4
BRANCH   1  14
ATOM     14  C   UNL d   1      53.229  33.117  53.563  0.00  0.00     0.105 A 
ATOM     15  C   UNL d   1      52.534  33.520  53.416  0.00  0.00     0.013 A 
ATOM     16  C   UNL d   1      52.418  34.249  53.742  0.00  0.00     0.001 A 
ATOM     17  C   UNL d   1      53.009  34.600  54.235  0.00  0.00     0.000 A 
ATOM     18  C   UNL d   1      53.708  34.190  54.380  0.00  0.00     0.001 A 
ATOM     19  C   UNL d   1      52.910  35.366  54.589  0.00  0.00     0.000 C 
ATOM     20  C   UNL d   1      53.817  33.441  54.040  0.00  0.00     0.013 A 
ENDBRANCH   1  14
TORSDOF 3
ENDMDL
