MODEL 1
REMARK VINA RESULT:      -3.3      0.000      0.000
REMARK  2 active torsions:
REMARK  status: ('A' for Active; 'I' for Inactive)
REMARK    1  A    between atoms: N_10  and  C_1 
REMARK       I    between atoms: C_12  and  N_10 
REMARK    2  A    between atoms: C_17  and  C_12 
ROOT
ATOM      1  C   UNL d   1      33.025  23.269 -19.217  0.00  0.00     0.197 A 
ATOM      2  C   UNL d   1      32.894  22.446 -20.249  0.00  0.00     0.057 A 
ATOM      3  C   UNL d   1      32.902  21.837 -20.772  0.00  0.00     0.056 A 
ATOM      4  N   UNL d   1      32.624  23.680 -19.778  0.00  0.00    -0.221 NA
ATOM      5  S   UNL d   1      33.211  22.495 -19.474  0.00  0.00    -0.046 SA
ATOM      6  N   UNL d   1      32.641  21.225 -21.918  0.00  0.00    -0.238 NA
ATOM      7  S   UNL d   1      33.205  21.085 -20.742  0.00  0.00    -0.066 SA
ATOM      8  C   UNL d   1      32.538  23.164 -20.433  0.00  0.00     0.090 A 
ATOM      9  C   UNL d   1      32.548  21.917 -21.518  0.00  0.00     0.088 A 
ATOM     10  C   UNL d   1      33.034  20.690 -21.489  0.00  0.00     0.111 A 
ATOM     11  C   UNL d   1      32.182  23.260 -21.170  0.00  0.00     0.021 A 
ATOM     12  C   UNL d   1      32.185  22.625 -21.727  0.00  0.00     0.021 A 
ATOM     13  C   UNL d   1      33.236  19.909 -21.716  0.00  0.00     0.028 C 
ENDROOT
BRANCH   1  14
ATOM     14  N   UNL d   1      33.241  23.573 -18.447  0.00  0.00    -0.183 NA
ATOM     15  C   UNL d   1      32.749  23.416 -17.812  0.00  0.00     0.281 C 
ATOM     16  O   UNL d   1      32.050  22.953 -17.981  0.00  0.00    -0.265 OA
BRANCH  15  17
ATOM     17  C   UNL d   1      32.948  23.697 -17.103  0.00  0.00     0.063 C 
ATOM     18  C   UNL d   1      32.903  23.117 -16.344  0.00  0.00     0.005 C 
ENDBRANCH  15  17
ENDBRANCH   1  14
TORSDOF 2
ENDMDL
MODEL 2
REMARK VINA RESULT:      -3.0      5.783      7.916
REMARK  2 active torsions:
REMARK  status: ('A' for Active; 'I' for Inactive)
REMARK    1  A    between atoms: N_10  and  C_1 
REMARK       I    between atoms: C_12  and  N_10 
REMARK    2  A    between atoms: C_17  and  C_12 
ROOT
ATOM      1  C   UNL d   1      30.447  16.026 -24.164  0.00  0.00     0.197 A 
ATOM      2  C   UNL d   1      31.516  16.742 -23.844  0.00  0.00     0.057 A 
ATOM      3  C   UNL d   1      32.068  17.308 -23.708  0.00  0.00     0.056 A 
ATOM      4  N   UNL d   1      30.983  15.504 -23.876  0.00  0.00    -0.221 NA
ATOM      5  S   UNL d   1      30.742  16.808 -24.161  0.00  0.00    -0.046 SA
ATOM      6  N   UNL d   1      33.240  17.783 -23.312  0.00  0.00    -0.238 NA
ATOM      7  S   UNL d   1      32.077  18.112 -23.821  0.00  0.00    -0.066 SA
ATOM      8  C   UNL d   1      31.662  15.951 -23.672  0.00  0.00     0.090 A 
ATOM      9  C   UNL d   1      32.806  17.109 -23.386  0.00  0.00     0.088 A 
ATOM     10  C   UNL d   1      32.841  18.417 -23.562  0.00  0.00     0.111 A 
ATOM     11  C   UNL d   1      32.391  15.736 -23.351  0.00  0.00     0.021 A 
ATOM     12  C   UNL d   1      32.978  16.325 -23.204  0.00  0.00     0.021 A 
ATOM     13  C   UNL d   1      33.108  19.212 -23.572  0.00  0.00     0.028 C 
ENDROOT
BRANCH   1  14
ATOM     14  N   UNL d   1      29.665  15.820 -24.445  0.00  0.00    -0.183 NA
ATOM     15  C   UNL d   1      29.070  15.705 -23.894  0.00  0.00     0.281 C 
ATOM     16  O   UNL d   1      29.291  15.802 -23.073  0.00  0.00    -0.265 OA
BRANCH  15  17
ATOM     17  C   UNL d   1      28.350  15.515 -24.152  0.00  0.00     0.063 C 
ATOM     18  C   UNL d   1      27.632  15.453 -23.523  0.00  0.00     0.005 C 
ENDBRANCH  15  17
ENDBRANCH   1  14
TORSDOF 2
ENDMDL
MODEL 3
REMARK VINA RESULT:      -2.7      2.130      3.488
REMARK  2 active torsions:
REMARK  status: ('A' for Active; 'I' for Inactive)
REMARK    1  A    between atoms: N_10  and  C_1 
REMARK       I    between atoms: C_12  and  N_10 
REMARK    2  A    between atoms: C_17  and  C_12 
ROOT
ATOM      1  C   UNL d   1      33.239  21.047 -21.761  0.00  0.00     0.197 A 
ATOM      2  C   UNL d   1      33.238  19.972 -22.537  0.00  0.00     0.057 A 
ATOM      3  C   UNL d   1      33.238  19.235 -22.856  0.00  0.00     0.056 A 
ATOM      4  N   UNL d   1      33.238  21.320 -22.516  0.00  0.00    -0.221 NA
ATOM      5  S   UNL d   1      33.239  20.211 -21.733  0.00  0.00    -0.046 SA
ATOM      6  N   UNL d   1      33.237  18.342 -23.835  0.00  0.00    -0.238 NA
ATOM      7  S   UNL d   1      33.239  18.491 -22.531  0.00  0.00    -0.066 SA
ATOM      8  C   UNL d   1      33.237  20.643 -23.011  0.00  0.00     0.090 A 
ATOM      9  C   UNL d   1      33.237  19.132 -23.679  0.00  0.00     0.088 A 
ATOM     10  C   UNL d   1      33.239  17.913 -23.171  0.00  0.00     0.111 A 
ATOM     11  C   UNL d   1      33.236  20.559 -23.832  0.00  0.00     0.021 A 
ATOM     12  C   UNL d   1      33.236  19.787 -24.176  0.00  0.00     0.021 A 
ATOM     13  C   UNL d   1      33.239  17.077 -23.110  0.00  0.00     0.028 C 
ENDROOT
BRANCH   1  14
ATOM     14  N   UNL d   1      33.240  21.541 -21.062  0.00  0.00    -0.183 NA
ATOM     15  C   UNL d   1      32.525  21.832 -20.788  0.00  0.00     0.281 C 
ATOM     16  O   UNL d   1      31.830  21.610 -21.236  0.00  0.00    -0.265 OA
BRANCH  15  17
ATOM     17  C   UNL d   1      32.526  22.286 -20.144  0.00  0.00     0.063 C 
ATOM     18  C   UNL d   1      31.900  23.007 -20.083  0.00  0.00     0.005 C 
ENDBRANCH  15  17
ENDBRANCH   1  14
TORSDOF 2
ENDMDL
MODEL 4
REMARK VINA RESULT:      -2.6      4.751      6.904
REMARK  2 active torsions:
REMARK  status: ('A' for Active; 'I' for Inactive)
REMARK    1  A    between atoms: N_10  and  C_1 
REMARK       I    between atoms: C_12  and  N_10 
REMARK    2  A    between atoms: C_17  and  C_12 
ROOT
ATOM      1  C   UNL d   1      32.593  18.241 -24.041  0.00  0.00     0.197 A 
ATOM      2  C   UNL d   1      31.874  17.192 -24.418  0.00  0.00     0.057 A 
ATOM      3  C   UNL d   1      31.305  16.653 -24.589  0.00  0.00     0.056 A 
ATOM      4  N   UNL d   1      33.117  17.708 -24.334  0.00  0.00    -0.221 NA
ATOM      5  S   UNL d   1      31.808  17.956 -24.076  0.00  0.00    -0.046 SA
ATOM      6  N   UNL d   1      30.827  15.502 -25.039  0.00  0.00    -0.238 NA
ATOM      7  S   UNL d   1      30.498  16.651 -24.498  0.00  0.00    -0.066 SA
ATOM      8  C   UNL d   1      32.667  17.042 -24.574  0.00  0.00     0.090 A 
ATOM      9  C   UNL d   1      31.504  15.924 -24.931  0.00  0.00     0.088 A 
ATOM     10  C   UNL d   1      30.192  15.901 -24.792  0.00  0.00     0.111 A 
ATOM     11  C   UNL d   1      32.883  16.322 -24.913  0.00  0.00     0.021 A 
ATOM     12  C   UNL d   1      32.290  15.749 -25.097  0.00  0.00     0.021 A 
ATOM     13  C   UNL d   1      29.394  15.644 -24.813  0.00  0.00     0.028 C 
ENDROOT
BRANCH   1  14
ATOM     14  N   UNL d   1      32.801  19.010 -23.728  0.00  0.00    -0.183 NA
ATOM     15  C   UNL d   1      33.042  19.062 -22.948  0.00  0.00     0.281 C 
ATOM     16  O   UNL d   1      33.066  18.328 -22.509  0.00  0.00    -0.265 OA
BRANCH  15  17
ATOM     17  C   UNL d   1      33.233  19.771 -22.660  0.00  0.00     0.063 C 
ATOM     18  C   UNL d   1      33.227  19.904 -21.713  0.00  0.00     0.005 C 
ENDBRANCH  15  17
ENDBRANCH   1  14
TORSDOF 2
ENDMDL
MODEL 5
REMARK VINA RESULT:      -2.6      1.913      3.145
REMARK  2 active torsions:
REMARK  status: ('A' for Active; 'I' for Inactive)
REMARK    1  A    between atoms: N_10  and  C_1 
REMARK       I    between atoms: C_12  and  N_10 
REMARK    2  A    between atoms: C_17  and  C_12 
ROOT
ATOM      1  C   UNL d   1      33.224  21.557 -21.334  0.00  0.00     0.197 A 
ATOM      2  C   UNL d   1      33.230  20.625 -22.277  0.00  0.00     0.057 A 
ATOM      3  C   UNL d   1      33.233  20.197 -22.956  0.00  0.00     0.056 A 
ATOM      4  N   UNL d   1      33.225  20.854 -20.949  0.00  0.00    -0.221 NA
ATOM      5  S   UNL d   1      33.227  21.457 -22.164  0.00  0.00    -0.046 SA
ATOM      6  N   UNL d   1      33.238  19.092 -23.688  0.00  0.00    -0.238 NA
ATOM      7  S   UNL d   1      33.234  20.403 -23.741  0.00  0.00    -0.066 SA
ATOM      8  C   UNL d   1      33.228  20.260 -21.541  0.00  0.00     0.090 A 
ATOM      9  C   UNL d   1      33.235  19.368 -22.932  0.00  0.00     0.088 A 
ATOM     10  C   UNL d   1      33.238  19.682 -24.214  0.00  0.00     0.111 A 
ATOM     11  C   UNL d   1      33.231  19.437 -21.498  0.00  0.00     0.021 A 
ATOM     12  C   UNL d   1      33.234  18.978 -22.208  0.00  0.00     0.021 A 
ATOM     13  C   UNL d   1      33.240  19.614 -25.050  0.00  0.00     0.028 C 
ENDROOT
BRANCH   1  14
ATOM     14  N   UNL d   1      33.221  22.324 -20.954  0.00  0.00    -0.183 NA
ATOM     15  C   UNL d   1      32.506  22.634 -20.705  0.00  0.00     0.281 C 
ATOM     16  O   UNL d   1      31.814  22.152 -20.851  0.00  0.00    -0.265 OA
BRANCH  15  17
ATOM     17  C   UNL d   1      32.503  23.340 -20.355  0.00  0.00     0.063 C 
ATOM     18  C   UNL d   1      31.732  23.608 -19.856  0.00  0.00     0.005 C 
ENDBRANCH  15  17
ENDBRANCH   1  14
TORSDOF 2
ENDMDL
MODEL 6
REMARK VINA RESULT:      -2.0      7.090      8.187
REMARK  2 active torsions:
REMARK  status: ('A' for Active; 'I' for Inactive)
REMARK    1  A    between atoms: N_10  and  C_1 
REMARK       I    between atoms: C_12  and  N_10 
REMARK    2  A    between atoms: C_17  and  C_12 
ROOT
ATOM      1  C   UNL d   1      29.221  16.160 -24.383  0.00  0.00     0.197 A 
ATOM      2  C   UNL d   1      30.468  16.560 -24.177  0.00  0.00     0.057 A 
ATOM      3  C   UNL d   1      31.234  16.657 -23.958  0.00  0.00     0.056 A 
ATOM      4  N   UNL d   1      29.299  16.851 -24.783  0.00  0.00    -0.221 NA
ATOM      5  S   UNL d   1      29.928  15.945 -23.992  0.00  0.00    -0.046 SA
ATOM      6  N   UNL d   1      32.409  17.268 -23.909  0.00  0.00    -0.238 NA
ATOM      7  S   UNL d   1      31.739  16.216 -23.501  0.00  0.00    -0.066 SA
ATOM      8  C   UNL d   1      30.087  17.109 -24.656  0.00  0.00     0.090 A 
ATOM      9  C   UNL d   1      31.664  17.319 -24.212  0.00  0.00     0.088 A 
ATOM     10  C   UNL d   1      32.502  16.617 -23.472  0.00  0.00     0.111 A 
ATOM     11  C   UNL d   1      30.500  17.773 -24.917  0.00  0.00     0.021 A 
ATOM     12  C   UNL d   1      31.307  17.883 -24.691  0.00  0.00     0.021 A 
ATOM     13  C   UNL d   1      33.196  16.374 -23.068  0.00  0.00     0.028 C 
ENDROOT
BRANCH   1  14
ATOM     14  N   UNL d   1      28.506  15.690 -24.352  0.00  0.00    -0.183 NA
ATOM     15  C   UNL d   1      27.932  15.886 -23.802  0.00  0.00     0.281 C 
ATOM     16  O   UNL d   1      28.105  16.556 -23.298  0.00  0.00    -0.265 OA
BRANCH  15  17
ATOM     17  C   UNL d   1      27.274  15.454 -23.774  0.00  0.00     0.063 C 
ATOM     18  C   UNL d   1      26.691  15.544 -23.021  0.00  0.00     0.005 C 
ENDBRANCH  15  17
ENDBRANCH   1  14
TORSDOF 2
ENDMDL
MODEL 7
REMARK VINA RESULT:      -0.6      3.862      5.764
REMARK  2 active torsions:
REMARK  status: ('A' for Active; 'I' for Inactive)
REMARK    1  A    between atoms: N_10  and  C_1 
REMARK       I    between atoms: C_12  and  N_10 
REMARK    2  A    between atoms: C_17  and  C_12 
ROOT
ATOM      1  C   UNL d   1      32.404  19.308 -23.296  0.00  0.00     0.197 A 
ATOM      2  C   UNL d   1      31.878  18.285 -23.956  0.00  0.00     0.057 A 
ATOM      3  C   UNL d   1      31.414  17.710 -24.271  0.00  0.00     0.056 A 
ATOM      4  N   UNL d   1      32.998  19.004 -23.742  0.00  0.00    -0.221 NA
ATOM      5  S   UNL d   1      31.689  18.886 -23.402  0.00  0.00    -0.046 SA
ATOM      6  N   UNL d   1      31.139  16.663 -25.035  0.00  0.00    -0.238 NA
ATOM      7  S   UNL d   1      30.633  17.512 -24.172  0.00  0.00    -0.066 SA
ATOM      8  C   UNL d   1      32.670  18.357 -24.162  0.00  0.00     0.090 A 
ATOM      9  C   UNL d   1      31.726  17.169 -24.817  0.00  0.00     0.088 A 
ATOM     10  C   UNL d   1      30.459  16.830 -24.671  0.00  0.00     0.111 A 
ATOM     11  C   UNL d   1      32.996  17.827 -24.704  0.00  0.00     0.021 A 
ATOM     12  C   UNL d   1      32.516  17.219 -25.040  0.00  0.00     0.021 A 
ATOM     13  C   UNL d   1      29.727  16.428 -24.755  0.00  0.00     0.028 C 
ENDROOT
BRANCH   1  14
ATOM     14  N   UNL d   1      32.479  19.980 -22.772  0.00  0.00    -0.183 NA
ATOM     15  C   UNL d   1      32.777  19.858 -22.020  0.00  0.00     0.281 C 
ATOM     16  O   UNL d   1      32.990  19.053 -21.824  0.00  0.00    -0.265 OA
BRANCH  15  17
ATOM     17  C   UNL d   1      32.846  20.477 -21.537  0.00  0.00     0.063 C 
ATOM     18  C   UNL d   1      33.241  20.353 -20.675  0.00  0.00     0.005 C 
ENDBRANCH  15  17
ENDBRANCH   1  14
TORSDOF 2
ENDMDL
MODEL 8
REMARK VINA RESULT:      -0.3      1.984      4.248
REMARK  2 active torsions:
REMARK  status: ('A' for Active; 'I' for Inactive)
REMARK    1  A    between atoms: N_10  and  C_1 
REMARK       I    between atoms: C_12  and  N_10 
REMARK    2  A    between atoms: C_17  and  C_12 
ROOT
ATOM      1  C   UNL d   1      33.154  21.921 -22.685  0.00  0.00     0.197 A 
ATOM      2  C   UNL d   1      33.101  22.112 -21.374  0.00  0.00     0.057 A 
ATOM      3  C   UNL d   1      33.101  22.393 -20.622  0.00  0.00     0.056 A 
ATOM      4  N   UNL d   1      33.001  21.202 -22.364  0.00  0.00    -0.221 NA
ATOM      5  S   UNL d   1      33.224  22.515 -22.100  0.00  0.00    -0.046 SA
ATOM      6  N   UNL d   1      32.998  22.316 -19.303  0.00  0.00    -0.238 NA
ATOM      7  S   UNL d   1      33.216  23.132 -20.307  0.00  0.00    -0.066 SA
ATOM      8  C   UNL d   1      32.966  21.317 -21.534  0.00  0.00     0.090 A 
ATOM      9  C   UNL d   1      32.965  21.884 -19.982  0.00  0.00     0.088 A 
ATOM     10  C   UNL d   1      33.148  23.078 -19.449  0.00  0.00     0.111 A 
ATOM     11  C   UNL d   1      32.829  20.797 -20.909  0.00  0.00     0.021 A 
ATOM     12  C   UNL d   1      32.828  21.084 -20.114  0.00  0.00     0.021 A 
ATOM     13  C   UNL d   1      33.223  23.695 -18.886  0.00  0.00     0.028 C 
ENDROOT
BRANCH   1  14
ATOM     14  N   UNL d   1      33.239  22.076 -23.523  0.00  0.00    -0.183 NA
ATOM     15  C   UNL d   1      32.779  22.662 -23.861  0.00  0.00     0.281 C 
ATOM     16  O   UNL d   1      32.245  23.075 -23.334  0.00  0.00    -0.265 OA
BRANCH  15  17
ATOM     17  C   UNL d   1      32.857  22.804 -24.632  0.00  0.00     0.063 C 
ATOM     18  C   UNL d   1      33.178  23.659 -24.917  0.00  0.00     0.005 C 
ENDBRANCH  15  17
ENDBRANCH   1  14
TORSDOF 2
ENDMDL
