MODEL 1
REMARK VINA RESULT:      -7.8      0.000      0.000
REMARK  3 active torsions:
REMARK  status: ('A' for Active; 'I' for Inactive)
REMARK    1  A    between atoms: C_8  and  C_1 
REMARK    2  A    between atoms: N_7  and  C_8 
REMARK    3  A    between atoms: C_13  and  C_8 
ROOT
ATOM      1  C   UNL d   1     -48.739  13.470  22.678  0.00  0.00     0.075 C 
ENDROOT
BRANCH   1   2
ATOM      2  N   UNL d   1     -49.113  14.191  22.558  0.00  0.00    -0.303 N 
ATOM      3  C   UNL d   1     -49.314  14.667  23.192  0.00  0.00     0.080 A 
ATOM      4  C   UNL d   1     -49.690  15.391  23.063  0.00  0.00     0.018 A 
ATOM      5  C   UNL d   1     -49.891  15.868  23.698  0.00  0.00     0.002 C 
ATOM      6  C   UNL d   1     -49.866  15.640  22.296  0.00  0.00     0.003 A 
ATOM      7  C   UNL d   1     -49.659  15.150  21.666  0.00  0.00     0.019 A 
ATOM      8  C   UNL d   1     -49.283  14.427  21.791  0.00  0.00     0.080 A 
ENDBRANCH   1   2
BRANCH   1   9
ATOM      9  C   UNL d   1     -47.915  13.432  22.647  0.00  0.00     0.106 A 
ATOM     10  C   UNL d   1     -47.458  13.268  21.972  0.00  0.00     0.290 A 
ATOM     11  N   UNL d   1     -46.665  13.286  22.189  0.00  0.00    -0.169 N 
ATOM     12  O   UNL d   1     -47.753  13.115  21.215  0.00  0.00    -0.265 OA
ATOM     13  N   UNL d   1     -45.898  13.198  21.916  0.00  0.00    -0.138 NA
ATOM     14  C   UNL d   1     -46.628  13.460  22.995  0.00  0.00     0.200 A 
ATOM     15  C   UNL d   1     -45.382  13.316  22.547  0.00  0.00     0.222 A 
ATOM     16  N   UNL d   1     -45.834  13.478  23.214  0.00  0.00    -0.197 NA
ATOM     17  S   UNL d   1     -47.394  13.550  23.277  0.00  0.00    -0.042 SA
ENDBRANCH   1   9
BRANCH   1  18
ATOM     18  C   UNL d   1     -49.174  12.793  22.827  0.00  0.00     0.017 A 
ATOM     19  C   UNL d   1     -49.144  12.443  23.560  0.00  0.00     0.002 A 
ATOM     20  C   UNL d   1     -49.575  11.777  23.698  0.00  0.00     0.000 A 
ATOM     21  C   UNL d   1     -50.053  11.442  23.098  0.00  0.00     0.000 A 
ATOM     22  C   UNL d   1     -50.078  11.794  22.377  0.00  0.00     0.000 A 
ATOM     23  C   UNL d   1     -49.640  12.477  22.223  0.00  0.00     0.002 A 
ENDBRANCH   1  18
TORSDOF 3
ENDMDL
MODEL 2
REMARK VINA RESULT:      -7.7      0.509      2.417
REMARK  3 active torsions:
REMARK  status: ('A' for Active; 'I' for Inactive)
REMARK    1  A    between atoms: C_8  and  C_1 
REMARK    2  A    between atoms: N_7  and  C_8 
REMARK    3  A    between atoms: C_13  and  C_8 
ROOT
ATOM      1  C   UNL d   1     -48.745  13.615  22.702  0.00  0.00     0.075 C 
ENDROOT
BRANCH   1   2
ATOM      2  N   UNL d   1     -49.253  12.981  22.577  0.00  0.00    -0.303 N 
ATOM      3  C   UNL d   1     -49.512  12.525  23.204  0.00  0.00     0.080 A 
ATOM      4  C   UNL d   1     -50.023  11.890  23.070  0.00  0.00     0.018 A 
ATOM      5  C   UNL d   1     -50.283  11.432  23.698  0.00  0.00     0.002 C 
ATOM      6  C   UNL d   1     -50.275  11.711  22.305  0.00  0.00     0.003 A 
ATOM      7  C   UNL d   1     -50.006  12.179  21.682  0.00  0.00     0.019 A 
ATOM      8  C   UNL d   1     -49.497  12.814  21.812  0.00  0.00     0.080 A 
ENDBRANCH   1   2
BRANCH   1   9
ATOM      9  C   UNL d   1     -47.930  13.483  22.714  0.00  0.00     0.106 A 
ATOM     10  C   UNL d   1     -47.431  13.446  22.050  0.00  0.00     0.290 A 
ATOM     11  N   UNL d   1     -46.665  13.305  22.314  0.00  0.00    -0.169 N 
ATOM     12  O   UNL d   1     -47.667  13.537  21.264  0.00  0.00    -0.265 OA
ATOM     13  N   UNL d   1     -45.889  13.196  22.076  0.00  0.00    -0.138 NA
ATOM     14  C   UNL d   1     -46.686  13.253  23.137  0.00  0.00     0.200 A 
ATOM     15  C   UNL d   1     -45.426  13.076  22.746  0.00  0.00     0.222 A 
ATOM     16  N   UNL d   1     -45.920  13.112  23.402  0.00  0.00    -0.197 NA
ATOM     17  S   UNL d   1     -47.462  13.362  23.384  0.00  0.00    -0.042 SA
ENDBRANCH   1   9
BRANCH   1  18
ATOM     18  C   UNL d   1     -49.039  14.371  22.815  0.00  0.00     0.017 A 
ATOM     19  C   UNL d   1     -49.097  14.881  22.186  0.00  0.00     0.002 A 
ATOM     20  C   UNL d   1     -49.387  15.623  22.305  0.00  0.00     0.000 A 
ATOM     21  C   UNL d   1     -49.629  15.874  23.066  0.00  0.00     0.000 A 
ATOM     22  C   UNL d   1     -49.568  15.363  23.683  0.00  0.00     0.000 A 
ATOM     23  C   UNL d   1     -49.272  14.600  23.573  0.00  0.00     0.002 A 
ENDBRANCH   1  18
TORSDOF 3
ENDMDL
MODEL 3
REMARK VINA RESULT:      -6.6      1.043      3.138
REMARK  3 active torsions:
REMARK  status: ('A' for Active; 'I' for Inactive)
REMARK    1  A    between atoms: C_8  and  C_1 
REMARK    2  A    between atoms: N_7  and  C_8 
REMARK    3  A    between atoms: C_13  and  C_8 
ROOT
ATOM      1  C   UNL d   1     -48.233  13.321  22.876  0.00  0.00     0.075 C 
ENDROOT
BRANCH   1   2
ATOM      2  N   UNL d   1     -47.428  13.474  22.809  0.00  0.00    -0.303 N 
ATOM      3  C   UNL d   1     -46.998  13.171  22.183  0.00  0.00     0.080 A 
ATOM      4  C   UNL d   1     -46.189  13.328  22.121  0.00  0.00     0.018 A 
ATOM      5  C   UNL d   1     -45.758  13.025  21.494  0.00  0.00     0.002 C 
ATOM      6  C   UNL d   1     -45.810  13.791  22.690  0.00  0.00     0.003 A 
ATOM      7  C   UNL d   1     -46.255  14.089  23.316  0.00  0.00     0.019 A 
ATOM      8  C   UNL d   1     -47.062  13.934  23.380  0.00  0.00     0.080 A 
ENDBRANCH   1   2
BRANCH   1   9
ATOM      9  C   UNL d   1     -48.763  13.953  22.898  0.00  0.00     0.106 A 
ATOM     10  C   UNL d   1     -49.112  14.321  22.239  0.00  0.00     0.290 A 
ATOM     11  N   UNL d   1     -49.602  14.924  22.512  0.00  0.00    -0.169 N 
ATOM     12  O   UNL d   1     -48.988  14.114  21.449  0.00  0.00    -0.265 OA
ATOM     13  N   UNL d   1     -50.115  15.518  22.283  0.00  0.00    -0.138 NA
ATOM     14  C   UNL d   1     -49.557  14.931  23.336  0.00  0.00     0.200 A 
ATOM     15  C   UNL d   1     -50.392  15.898  22.959  0.00  0.00     0.222 A 
ATOM     16  N   UNL d   1     -50.046  15.534  23.610  0.00  0.00    -0.197 NA
ATOM     17  S   UNL d   1     -49.043  14.337  23.574  0.00  0.00    -0.042 SA
ENDBRANCH   1   9
BRANCH   1  18
ATOM     18  C   UNL d   1     -48.510  12.553  22.922  0.00  0.00     0.017 A 
ATOM     19  C   UNL d   1     -48.774  12.176  22.253  0.00  0.00     0.002 A 
ATOM     20  C   UNL d   1     -49.046  11.419  22.307  0.00  0.00     0.000 A 
ATOM     21  C   UNL d   1     -49.059  11.018  23.041  0.00  0.00     0.000 A 
ATOM     22  C   UNL d   1     -48.796  11.398  23.698  0.00  0.00     0.000 A 
ATOM     23  C   UNL d   1     -48.516  12.173  23.655  0.00  0.00     0.002 A 
ENDBRANCH   1  18
TORSDOF 3
ENDMDL
MODEL 4
REMARK VINA RESULT:      -6.6      9.423     10.563
REMARK  3 active torsions:
REMARK  status: ('A' for Active; 'I' for Inactive)
REMARK    1  A    between atoms: C_8  and  C_1 
REMARK    2  A    between atoms: N_7  and  C_8 
REMARK    3  A    between atoms: C_13  and  C_8 
ROOT
ATOM      1  C   UNL d   1     -39.110  14.273  18.196  0.00  0.00     0.075 C 
ENDROOT
BRANCH   1   2
ATOM      2  N   UNL d   1     -38.861  14.609  18.904  0.00  0.00    -0.303 N 
ATOM      3  C   UNL d   1     -39.182  14.366  19.616  0.00  0.00     0.080 A 
ATOM      4  C   UNL d   1     -38.926  14.708  20.323  0.00  0.00     0.018 A 
ATOM      5  C   UNL d   1     -39.247  14.465  21.036  0.00  0.00     0.002 C 
ATOM      6  C   UNL d   1     -38.346  15.295  20.317  0.00  0.00     0.003 A 
ATOM      7  C   UNL d   1     -38.031  15.530  19.592  0.00  0.00     0.019 A 
ATOM      8  C   UNL d   1     -38.284  15.191  18.885  0.00  0.00     0.080 A 
ENDBRANCH   1   2
BRANCH   1   9
ATOM      9  C   UNL d   1     -39.722  14.632  17.773  0.00  0.00     0.106 A 
ATOM     10  C   UNL d   1     -40.529  14.438  17.822  0.00  0.00     0.290 A 
ATOM     11  N   UNL d   1     -40.942  14.931  17.308  0.00  0.00    -0.169 N 
ATOM     12  O   UNL d   1     -40.856  13.852  18.304  0.00  0.00    -0.265 OA
ATOM     13  N   UNL d   1     -41.684  15.118  17.020  0.00  0.00    -0.138 NA
ATOM     14  C   UNL d   1     -40.395  15.428  16.942  0.00  0.00     0.200 A 
ATOM     15  C   UNL d   1     -41.605  15.731  16.476  0.00  0.00     0.222 A 
ATOM     16  N   UNL d   1     -40.807  15.922  16.428  0.00  0.00    -0.197 NA
ATOM     17  S   UNL d   1     -39.646  15.246  17.226  0.00  0.00    -0.042 SA
ENDBRANCH   1   9
BRANCH   1  18
ATOM     18  C   UNL d   1     -38.760  13.591  17.910  0.00  0.00     0.017 A 
ATOM     19  C   UNL d   1     -38.874  12.884  18.293  0.00  0.00     0.002 A 
ATOM     20  C   UNL d   1     -38.525  12.218  18.005  0.00  0.00     0.000 A 
ATOM     21  C   UNL d   1     -38.047  12.245  17.318  0.00  0.00     0.000 A 
ATOM     22  C   UNL d   1     -37.940  12.948  16.945  0.00  0.00     0.000 A 
ATOM     23  C   UNL d   1     -38.292  13.638  17.231  0.00  0.00     0.002 A 
ENDBRANCH   1  18
TORSDOF 3
ENDMDL
MODEL 5
REMARK VINA RESULT:      -5.5      1.259      2.774
REMARK  3 active torsions:
REMARK  status: ('A' for Active; 'I' for Inactive)
REMARK    1  A    between atoms: C_8  and  C_1 
REMARK    2  A    between atoms: N_7  and  C_8 
REMARK    3  A    between atoms: C_13  and  C_8 
ROOT
ATOM      1  C   UNL d   1     -48.158  13.620  22.807  0.00  0.00     0.075 C 
ENDROOT
BRANCH   1   2
ATOM      2  N   UNL d   1     -48.450  14.381  22.702  0.00  0.00    -0.303 N 
ATOM      3  C   UNL d   1     -48.949  14.716  23.256  0.00  0.00     0.080 A 
ATOM      4  C   UNL d   1     -49.238  15.482  23.143  0.00  0.00     0.018 A 
ATOM      5  C   UNL d   1     -49.739  15.818  23.698  0.00  0.00     0.002 C 
ATOM      6  C   UNL d   1     -49.026  15.914  22.473  0.00  0.00     0.003 A 
ATOM      7  C   UNL d   1     -48.521  15.564  21.922  0.00  0.00     0.019 A 
ATOM      8  C   UNL d   1     -48.231  14.801  22.032  0.00  0.00     0.080 A 
ENDBRANCH   1   2
BRANCH   1   9
ATOM      9  C   UNL d   1     -48.688  12.991  22.874  0.00  0.00     0.106 A 
ATOM     10  C   UNL d   1     -49.062  12.597  22.244  0.00  0.00     0.290 A 
ATOM     11  N   UNL d   1     -49.542  12.008  22.560  0.00  0.00    -0.169 N 
ATOM     12  O   UNL d   1     -48.966  12.771  21.442  0.00  0.00    -0.265 OA
ATOM     13  N   UNL d   1     -50.064  11.406  22.374  0.00  0.00    -0.138 NA
ATOM     14  C   UNL d   1     -49.467  12.034  23.381  0.00  0.00     0.200 A 
ATOM     15  C   UNL d   1     -50.317  11.056  23.075  0.00  0.00     0.222 A 
ATOM     16  N   UNL d   1     -49.947  11.445  23.698  0.00  0.00    -0.197 NA
ATOM     17  S   UNL d   1     -48.944  12.637  23.576  0.00  0.00    -0.042 SA
ENDBRANCH   1   9
BRANCH   1  18
ATOM     18  C   UNL d   1     -47.352  13.483  22.845  0.00  0.00     0.017 A 
ATOM     19  C   UNL d   1     -46.983  13.431  23.567  0.00  0.00     0.002 A 
ATOM     20  C   UNL d   1     -46.189  13.296  23.595  0.00  0.00     0.000 A 
ATOM     21  C   UNL d   1     -45.742  13.208  22.893  0.00  0.00     0.000 A 
ATOM     22  C   UNL d   1     -46.115  13.260  22.184  0.00  0.00     0.000 A 
ATOM     23  C   UNL d   1     -46.928  13.399  22.142  0.00  0.00     0.002 A 
ENDBRANCH   1  18
TORSDOF 3
ENDMDL
MODEL 6
REMARK VINA RESULT:      -5.3      7.940      9.895
REMARK  3 active torsions:
REMARK  status: ('A' for Active; 'I' for Inactive)
REMARK    1  A    between atoms: C_8  and  C_1 
REMARK    2  A    between atoms: N_7  and  C_8 
REMARK    3  A    between atoms: C_13  and  C_8 
ROOT
ATOM      1  C   UNL d   1     -39.490  14.965  20.485  0.00  0.00     0.075 C 
ENDROOT
BRANCH   1   2
ATOM      2  N   UNL d   1     -38.977  14.773  21.097  0.00  0.00    -0.303 N 
ATOM      3  C   UNL d   1     -38.915  14.001  21.360  0.00  0.00     0.080 A 
ATOM      4  C   UNL d   1     -38.397  13.815  21.976  0.00  0.00     0.018 A 
ATOM      5  C   UNL d   1     -38.333  13.042  22.240  0.00  0.00     0.002 C 
ATOM      6  C   UNL d   1     -37.940  14.404  22.330  0.00  0.00     0.003 A 
ATOM      7  C   UNL d   1     -38.013  15.178  22.055  0.00  0.00     0.019 A 
ATOM      8  C   UNL d   1     -38.529  15.367  21.441  0.00  0.00     0.080 A 
ENDBRANCH   1   2
BRANCH   1   9
ATOM      9  C   UNL d   1     -39.191  15.057  19.721  0.00  0.00     0.106 A 
ATOM     10  C   UNL d   1     -39.150  14.465  19.138  0.00  0.00     0.290 A 
ATOM     11  N   UNL d   1     -38.815  14.794  18.463  0.00  0.00    -0.169 N 
ATOM     12  O   UNL d   1     -39.403  13.683  19.225  0.00  0.00    -0.265 OA
ATOM     13  N   UNL d   1     -38.583  14.640  17.693  0.00  0.00    -0.138 NA
ATOM     14  C   UNL d   1     -38.648  15.586  18.624  0.00  0.00     0.200 A 
ATOM     15  C   UNL d   1     -38.272  15.331  17.372  0.00  0.00     0.222 A 
ATOM     16  N   UNL d   1     -38.313  15.916  17.948  0.00  0.00    -0.197 NA
ATOM     17  S   UNL d   1     -38.878  15.748  19.395  0.00  0.00    -0.042 SA
ENDBRANCH   1   9
BRANCH   1  18
ATOM     18  C   UNL d   1     -40.290  15.067  20.626  0.00  0.00     0.017 A 
ATOM     19  C   UNL d   1     -40.795  14.433  20.575  0.00  0.00     0.002 A 
ATOM     20  C   UNL d   1     -41.581  14.542  20.716  0.00  0.00     0.000 A 
ATOM     21  C   UNL d   1     -41.883  15.297  20.913  0.00  0.00     0.000 A 
ATOM     22  C   UNL d   1     -41.376  15.919  20.960  0.00  0.00     0.000 A 
ATOM     23  C   UNL d   1     -40.569  15.820  20.818  0.00  0.00     0.002 A 
ENDBRANCH   1  18
TORSDOF 3
ENDMDL
MODEL 7
REMARK VINA RESULT:      -5.0      1.286      3.480
REMARK  3 active torsions:
REMARK  status: ('A' for Active; 'I' for Inactive)
REMARK    1  A    between atoms: C_8  and  C_1 
REMARK    2  A    between atoms: N_7  and  C_8 
REMARK    3  A    between atoms: C_13  and  C_8 
ROOT
ATOM      1  C   UNL d   1     -48.241  13.676  22.793  0.00  0.00     0.075 C 
ENDROOT
BRANCH   1   2
ATOM      2  N   UNL d   1     -47.424  13.588  22.818  0.00  0.00    -0.303 N 
ATOM      3  C   UNL d   1     -47.010  13.354  22.152  0.00  0.00     0.080 A 
ATOM      4  C   UNL d   1     -46.189  13.268  22.185  0.00  0.00     0.018 A 
ATOM      5  C   UNL d   1     -45.774  13.035  21.519  0.00  0.00     0.002 C 
ATOM      6  C   UNL d   1     -45.782  13.417  22.888  0.00  0.00     0.003 A 
ATOM      7  C   UNL d   1     -46.212  13.651  23.551  0.00  0.00     0.019 A 
ATOM      8  C   UNL d   1     -47.031  13.738  23.521  0.00  0.00     0.080 A 
ENDBRANCH   1   2
BRANCH   1   9
ATOM      9  C   UNL d   1     -48.721  13.008  22.861  0.00  0.00     0.106 A 
ATOM     10  C   UNL d   1     -49.084  12.600  22.233  0.00  0.00     0.290 A 
ATOM     11  N   UNL d   1     -49.510  11.971  22.550  0.00  0.00    -0.169 N 
ATOM     12  O   UNL d   1     -49.025  12.796  21.433  0.00  0.00    -0.265 OA
ATOM     13  N   UNL d   1     -49.992  11.336  22.366  0.00  0.00    -0.138 NA
ATOM     14  C   UNL d   1     -49.413  11.986  23.369  0.00  0.00     0.200 A 
ATOM     15  C   UNL d   1     -50.197  10.954  23.066  0.00  0.00     0.222 A 
ATOM     16  N   UNL d   1     -49.838  11.357  23.686  0.00  0.00    -0.197 NA
ATOM     17  S   UNL d   1     -48.929  12.622  23.561  0.00  0.00    -0.042 SA
ENDBRANCH   1   9
BRANCH   1  18
ATOM     18  C   UNL d   1     -48.579  14.415  22.701  0.00  0.00     0.017 A 
ATOM     19  C   UNL d   1     -48.560  14.784  21.977  0.00  0.00     0.002 A 
ATOM     20  C   UNL d   1     -48.895  15.512  21.896  0.00  0.00     0.000 A 
ATOM     21  C   UNL d   1     -49.262  15.892  22.545  0.00  0.00     0.000 A 
ATOM     22  C   UNL d   1     -49.277  15.521  23.257  0.00  0.00     0.000 A 
ATOM     23  C   UNL d   1     -48.937  14.774  23.353  0.00  0.00     0.002 A 
ENDBRANCH   1  18
TORSDOF 3
ENDMDL
MODEL 8
REMARK VINA RESULT:      -4.9      7.216      9.418
REMARK  3 active torsions:
REMARK  status: ('A' for Active; 'I' for Inactive)
REMARK    1  A    between atoms: C_8  and  C_1 
REMARK    2  A    between atoms: N_7  and  C_8 
REMARK    3  A    between atoms: C_13  and  C_8 
ROOT
ATOM      1  C   UNL d   1     -39.895  14.964  20.013  0.00  0.00     0.075 C 
ENDROOT
BRANCH   1   2
ATOM      2  N   UNL d   1     -40.636  15.061  20.354  0.00  0.00    -0.303 N 
ATOM      3  C   UNL d   1     -41.091  14.411  20.554  0.00  0.00     0.080 A 
ATOM      4  C   UNL d   1     -41.835  14.516  20.896  0.00  0.00     0.018 A 
ATOM      5  C   UNL d   1     -42.291  13.865  21.096  0.00  0.00     0.002 C 
ATOM      6  C   UNL d   1     -42.125  15.275  21.040  0.00  0.00     0.003 A 
ATOM      7  C   UNL d   1     -41.656  15.922  20.834  0.00  0.00     0.019 A 
ATOM      8  C   UNL d   1     -40.913  15.820  20.492  0.00  0.00     0.080 A 
ENDBRANCH   1   2
BRANCH   1   9
ATOM      9  C   UNL d   1     -39.811  15.056  19.197  0.00  0.00     0.106 A 
ATOM     10  C   UNL d   1     -39.919  14.462  18.625  0.00  0.00     0.290 A 
ATOM     11  N   UNL d   1     -39.780  14.793  17.884  0.00  0.00    -0.169 N 
ATOM     12  O   UNL d   1     -40.130  13.678  18.777  0.00  0.00    -0.265 OA
ATOM     13  N   UNL d   1     -39.759  14.639  17.081  0.00  0.00    -0.138 NA
ATOM     14  C   UNL d   1     -39.586  15.587  17.995  0.00  0.00     0.200 A 
ATOM     15  C   UNL d   1     -39.554  15.333  16.688  0.00  0.00     0.222 A 
ATOM     16  N   UNL d   1     -39.447  15.919  17.254  0.00  0.00    -0.197 NA
ATOM     17  S   UNL d   1     -39.605  15.750  18.800  0.00  0.00    -0.042 SA
ENDBRANCH   1   9
BRANCH   1  18
ATOM     18  C   UNL d   1     -39.244  14.779  20.473  0.00  0.00     0.017 A 
ATOM     19  C   UNL d   1     -39.039  14.002  20.593  0.00  0.00     0.002 A 
ATOM     20  C   UNL d   1     -38.397  13.829  21.048  0.00  0.00     0.000 A 
ATOM     21  C   UNL d   1     -37.940  14.437  21.397  0.00  0.00     0.000 A 
ATOM     22  C   UNL d   1     -38.149  15.202  21.274  0.00  0.00     0.000 A 
ATOM     23  C   UNL d   1     -38.805  15.392  20.810  0.00  0.00     0.002 A 
ENDBRANCH   1  18
TORSDOF 3
ENDMDL
