MODEL 1
REMARK VINA RESULT:      55.7      0.000      0.000
REMARK  6 active torsions:
REMARK  status: ('A' for Active; 'I' for Inactive)
REMARK    1  A    between atoms: N_2  and  S_1 
REMARK    2  A    between atoms: N_3  and  S_1 
REMARK    3  A    between atoms: C_9  and  N_3 
REMARK    4  A    between atoms: C_4  and  C_7 
REMARK    5  A    between atoms: O_12  and  C_4 
REMARK    6  A    between atoms: C_17  and  O_12 
ROOT
ATOM      1  C   UNL d   1     -48.360  28.777  35.377  0.00  0.00     0.064 A 
ATOM      2  C   UNL d   1     -47.575  30.233  35.445  0.00  0.00     0.095 A 
ATOM      3  C   UNL d   1     -47.802  28.974  34.790  0.00  0.00     0.007 A 
ATOM      4  C   UNL d   1     -48.531  29.298  36.008  0.00  0.00     0.007 A 
ATOM      5  C   UNL d   1     -48.128  30.034  36.039  0.00  0.00     0.020 A 
ATOM      6  C   UNL d   1     -47.412  29.704  34.822  0.00  0.00     0.020 A 
ENDROOT
BRANCH   2   7
ATOM      7  N   UNL d   1     -47.170  30.970  35.486  0.00  0.00    -0.144 NA
BRANCH   7   8
ATOM      8  S   UNL d   1     -47.360  31.578  34.963  0.00  0.00     0.351 S 
ATOM      9  O   UNL d   1     -47.141  32.079  35.577  0.00  0.00    -0.180 OA
ATOM     10  O   UNL d   1     -47.579  31.076  34.347  0.00  0.00    -0.180 OA
BRANCH   8  11
ATOM     11  N   UNL d   1     -47.532  32.230  34.491  0.00  0.00    -0.215 N 
ATOM     12  C   UNL d   1     -48.333  32.332  34.302  0.00  0.00     0.093 C 
ATOM     13  C   UNL d   1     -48.680  32.940  33.869  0.00  0.00     0.020 C 
ATOM     14  C   UNL d   1     -48.308  33.528  33.426  0.00  0.00     0.002 C 
ATOM     15  C   UNL d   1     -47.502  33.654  33.308  0.00  0.00     0.002 C 
ATOM     16  C   UNL d   1     -46.872  33.220  33.605  0.00  0.00     0.020 C 
ATOM     17  C   UNL d   1     -46.884  32.550  34.095  0.00  0.00     0.093 C 
ENDBRANCH   8  11
ENDBRANCH   7   8
ENDBRANCH   2   7
BRANCH   1  18
ATOM     18  C   UNL d   1     -48.759  28.051  35.326  0.00  0.00     0.300 C 
ATOM     19  O   UNL d   1     -48.996  27.671  36.019  0.00  0.00    -0.259 OA
BRANCH  18  20
ATOM     20  O   UNL d   1     -48.914  27.718  34.591  0.00  0.00    -0.271 OA
BRANCH  20  21
ATOM     21  C   UNL d   1     -49.616  27.306  34.455  0.00  0.00     0.126 C 
ATOM     22  C   UNL d   1     -49.864  27.142  33.688  0.00  0.00     0.029 C 
ENDBRANCH  20  21
ENDBRANCH  18  20
ENDBRANCH   1  18
TORSDOF 6
ENDMDL
MODEL 2
REMARK VINA RESULT:      57.0      1.899      3.003
REMARK  6 active torsions:
REMARK  status: ('A' for Active; 'I' for Inactive)
REMARK    1  A    between atoms: N_2  and  S_1 
REMARK    2  A    between atoms: N_3  and  S_1 
REMARK    3  A    between atoms: C_9  and  N_3 
REMARK    4  A    between atoms: C_4  and  C_7 
REMARK    5  A    between atoms: O_12  and  C_4 
REMARK    6  A    between atoms: C_17  and  O_12 
ROOT
ATOM      1  C   UNL d   1     -50.099  26.929  33.967  0.00  0.00     0.064 A 
ATOM      2  C   UNL d   1     -48.812  27.606  34.761  0.00  0.00     0.095 A 
ATOM      3  C   UNL d   1     -49.356  26.972  33.591  0.00  0.00     0.007 A 
ATOM      4  C   UNL d   1     -50.210  27.217  34.744  0.00  0.00     0.007 A 
ATOM      5  C   UNL d   1     -49.554  27.557  35.142  0.00  0.00     0.020 A 
ATOM      6  C   UNL d   1     -48.714  27.314  33.987  0.00  0.00     0.020 A 
ENDROOT
BRANCH   2   7
ATOM      7  N   UNL d   1     -48.157  27.942  35.169  0.00  0.00    -0.144 NA
BRANCH   7   8
ATOM      8  S   UNL d   1     -48.057  28.760  35.191  0.00  0.00     0.351 S 
ATOM      9  O   UNL d   1     -47.270  28.588  35.356  0.00  0.00    -0.180 OA
ATOM     10  O   UNL d   1     -48.846  28.932  35.025  0.00  0.00    -0.180 OA
BRANCH   8  11
ATOM     11  N   UNL d   1     -47.890  29.565  35.228  0.00  0.00    -0.215 N 
ATOM     12  C   UNL d   1     -48.053  29.995  34.538  0.00  0.00     0.093 C 
ATOM     13  C   UNL d   1     -47.973  30.805  34.411  0.00  0.00     0.020 C 
ATOM     14  C   UNL d   1     -47.608  31.363  34.897  0.00  0.00     0.002 C 
ATOM     15  C   UNL d   1     -47.235  31.252  35.623  0.00  0.00     0.002 C 
ATOM     16  C   UNL d   1     -47.138  30.552  36.042  0.00  0.00     0.020 C 
ATOM     17  C   UNL d   1     -47.387  29.786  35.842  0.00  0.00     0.093 C 
ENDBRANCH   8  11
ENDBRANCH   7   8
ENDBRANCH   2   7
BRANCH   1  18
ATOM     18  C   UNL d   1     -50.740  26.602  33.556  0.00  0.00     0.300 C 
ATOM     19  O   UNL d   1     -51.378  27.084  33.352  0.00  0.00    -0.259 OA
BRANCH  18  20
ATOM     20  O   UNL d   1     -50.736  25.805  33.355  0.00  0.00    -0.271 OA
BRANCH  20  21
ATOM     21  C   UNL d   1     -51.441  25.378  33.311  0.00  0.00     0.126 C 
ATOM     22  C   UNL d   1     -51.434  24.555  33.325  0.00  0.00     0.029 C 
ENDBRANCH  20  21
ENDBRANCH  18  20
ENDBRANCH   1  18
TORSDOF 6
ENDMDL
MODEL 3
REMARK VINA RESULT:      58.3      2.119      4.996
REMARK  6 active torsions:
REMARK  status: ('A' for Active; 'I' for Inactive)
REMARK    1  A    between atoms: N_2  and  S_1 
REMARK    2  A    between atoms: N_3  and  S_1 
REMARK    3  A    between atoms: C_9  and  N_3 
REMARK    4  A    between atoms: C_4  and  C_7 
REMARK    5  A    between atoms: O_12  and  C_4 
REMARK    6  A    between atoms: C_17  and  O_12 
ROOT
ATOM      1  C   UNL d   1     -47.950  29.568  35.134  0.00  0.00     0.064 A 
ATOM      2  C   UNL d   1     -48.369  28.068  34.570  0.00  0.00     0.095 A 
ATOM      3  C   UNL d   1     -47.600  28.888  35.466  0.00  0.00     0.007 A 
ATOM      4  C   UNL d   1     -48.509  29.512  34.515  0.00  0.00     0.007 A 
ATOM      5  C   UNL d   1     -48.715  28.749  34.231  0.00  0.00     0.020 A 
ATOM      6  C   UNL d   1     -47.812  28.138  35.186  0.00  0.00     0.020 A 
ENDROOT
BRANCH   2   7
ATOM      7  N   UNL d   1     -48.576  27.307  34.276  0.00  0.00    -0.144 NA
BRANCH   7   8
ATOM      8  S   UNL d   1     -49.357  27.138  34.075  0.00  0.00     0.351 S 
ATOM      9  O   UNL d   1     -49.070  27.067  33.308  0.00  0.00    -0.180 OA
ATOM     10  O   UNL d   1     -49.646  27.210  34.844  0.00  0.00    -0.180 OA
BRANCH   8  11
ATOM     11  N   UNL d   1     -50.116  26.963  33.808  0.00  0.00    -0.215 N 
ATOM     12  C   UNL d   1     -50.634  27.608  33.755  0.00  0.00     0.093 C 
ATOM     13  C   UNL d   1     -51.411  27.617  33.484  0.00  0.00     0.020 C 
ATOM     14  C   UNL d   1     -51.896  26.973  33.306  0.00  0.00     0.002 C 
ATOM     15  C   UNL d   1     -51.727  26.169  33.354  0.00  0.00     0.002 C 
ATOM     16  C   UNL d   1     -51.027  25.811  33.593  0.00  0.00     0.020 C 
ATOM     17  C   UNL d   1     -50.320  26.165  33.845  0.00  0.00     0.093 C 
ENDBRANCH   8  11
ENDBRANCH   7   8
ENDBRANCH   2   7
BRANCH   1  18
ATOM     18  C   UNL d   1     -47.745  30.313  35.433  0.00  0.00     0.300 C 
ATOM     19  O   UNL d   1     -47.262  30.362  36.101  0.00  0.00    -0.259 OA
BRANCH  18  20
ATOM     20  O   UNL d   1     -48.023  30.995  35.066  0.00  0.00    -0.271 OA
BRANCH  20  21
ATOM     21  C   UNL d   1     -47.509  31.615  34.887  0.00  0.00     0.126 C 
ATOM     22  C   UNL d   1     -47.799  32.331  34.605  0.00  0.00     0.029 C 
ENDBRANCH  20  21
ENDBRANCH  18  20
ENDBRANCH   1  18
TORSDOF 6
ENDMDL
