MODEL 1
REMARK VINA RESULT:      42.6      0.000      0.000
REMARK  4 active torsions:
REMARK  status: ('A' for Active; 'I' for Inactive)
REMARK    1  A    between atoms: C_9  and  C_2 
REMARK    2  A    between atoms: C_7  and  C_9 
REMARK       I    between atoms: N_13  and  C_7 
REMARK    3  A    between atoms: C_10  and  C_19 
REMARK    4  A    between atoms: C_19  and  N_13 
ROOT
ATOM      1  C   UNL d   1     -51.574  25.508  33.320  0.00  0.00     0.100 A 
ATOM      2  C   UNL d   1     -50.906  26.660  33.317  0.00  0.00     0.032 A 
ATOM      3  O   UNL d   1     -52.118  26.120  33.316  0.00  0.00    -0.305 OA
ATOM      4  C   UNL d   1     -50.816  25.839  33.321  0.00  0.00     0.025 A 
ATOM      5  C   UNL d   1     -51.705  26.840  33.314  0.00  0.00     0.123 A 
ATOM      6  C   UNL d   1     -51.670  24.687  33.322  0.00  0.00     0.023 A 
ATOM      7  C   UNL d   1     -50.157  25.351  33.324  0.00  0.00     0.002 A 
ATOM      8  C   UNL d   1     -51.002  24.195  33.326  0.00  0.00     0.002 A 
ATOM      9  C   UNL d   1     -50.245  24.532  33.327  0.00  0.00     0.000 A 
ATOM     10  C   UNL d   1     -52.420  24.356  33.321  0.00  0.00     0.002 C 
ATOM     11  C   UNL d   1     -51.091  23.381  33.329  0.00  0.00     0.000 C 
ENDROOT
BRANCH   2  12
ATOM     12  C   UNL d   1     -50.291  27.218  33.317  0.00  0.00     0.065 C 
BRANCH  12  13
ATOM     13  C   UNL d   1     -50.428  27.994  33.548  0.00  0.00     0.279 C 
ATOM     14  N   UNL d   1     -49.883  28.386  34.019  0.00  0.00    -0.204 NA
ATOM     15  O   UNL d   1     -51.115  28.380  33.306  0.00  0.00    -0.265 OA
BRANCH  14  16
ATOM     16  C   UNL d   1     -49.195  28.012  34.267  0.00  0.00     0.127 C 
BRANCH  16  17
ATOM     17  C   UNL d   1     -48.623  28.420  34.691  0.00  0.00     0.119 A 
ATOM     18  O   UNL d   1     -48.692  29.172  34.998  0.00  0.00    -0.304 OA
ATOM     19  C   UNL d   1     -47.981  29.362  35.382  0.00  0.00     0.123 A 
ATOM     20  C   UNL d   1     -47.470  28.718  35.309  0.00  0.00     0.029 A 
ATOM     21  C   UNL d   1     -47.864  28.133  34.881  0.00  0.00     0.028 A 
ENDBRANCH  16  17
ENDBRANCH  14  16
ENDBRANCH  12  13
ENDBRANCH   2  12
TORSDOF 4
ENDMDL
