MODEL 1
REMARK VINA RESULT:      -4.1      0.000      0.000
REMARK  5 active torsions:
REMARK  status: ('A' for Active; 'I' for Inactive)
REMARK    1  A    between atoms: N_2  and  S_1 
REMARK    2  A    between atoms: C_10  and  S_1 
REMARK    3  A    between atoms: C_4  and  N_12 
REMARK    4  A    between atoms: C_8  and  C_17 
REMARK       I    between atoms: N_11  and  C_8 
REMARK    5  A    between atoms: N_12  and  N_11 
ROOT
ATOM      1  C   UNL d   1      57.656   0.236  31.127  0.00  0.00     0.104 A 
ATOM      2  C   UNL d   1      58.423   0.072  29.680  0.00  0.00     0.059 A 
ATOM      3  C   UNL d   1      57.318  -0.228  30.534  0.00  0.00     0.013 A 
ATOM      4  C   UNL d   1      58.377   0.617  30.995  0.00  0.00     0.013 A 
ATOM      5  C   UNL d   1      57.707  -0.303  29.819  0.00  0.00     0.006 A 
ATOM      6  C   UNL d   1      58.758   0.532  30.268  0.00  0.00     0.006 A 
ENDROOT
BRANCH   2   7
ATOM      7  C   UNL d   1      58.808  -0.008  28.960  0.00  0.00     0.297 C 
ATOM      8  N   UNL d   1      59.211  -0.715  28.872  0.00  0.00    -0.104 NA
ATOM      9  O   UNL d   1      58.705   0.655  28.465  0.00  0.00    -0.264 OA
BRANCH   8  10
ATOM     10  N   UNL d   1      59.202  -1.264  29.480  0.00  0.00    -0.118 NA
BRANCH  10  11
ATOM     11  C   UNL d   1      59.478  -2.038  29.351  0.00  0.00     0.215 A 
ATOM     12  N   UNL d   1      59.034  -2.670  29.073  0.00  0.00    -0.219 NA
ATOM     13  C   UNL d   1      59.513  -3.332  29.026  0.00  0.00     0.090 A 
ATOM     14  C   UNL d   1      59.374  -4.105  28.790  0.00  0.00     0.018 A 
ATOM     15  C   UNL d   1      60.271  -3.105  29.281  0.00  0.00     0.050 A 
ATOM     16  C   UNL d   1      59.987  -4.658  28.806  0.00  0.00     0.002 A 
ATOM     17  C   UNL d   1      58.617  -4.329  28.536  0.00  0.00     0.002 C 
ATOM     18  C   UNL d   1      60.736  -4.431  29.058  0.00  0.00     0.001 A 
ATOM     19  C   UNL d   1      60.891  -3.650  29.300  0.00  0.00     0.008 A 
ATOM     20  S   UNL d   1      60.244  -2.308  29.480  0.00  0.00    -0.045 SA
ENDBRANCH  10  11
ENDBRANCH   8  10
ENDBRANCH   2   7
BRANCH   1  21
ATOM     21  S   UNL d   1      57.278   0.322  31.852  0.00  0.00     0.271 S 
ATOM     22  O   UNL d   1      57.953   0.056  32.241  0.00  0.00    -0.200 OA
ATOM     23  O   UNL d   1      56.601   0.589  31.463  0.00  0.00    -0.200 OA
BRANCH  21  24
ATOM     24  N   UNL d   1      56.896   0.409  32.578  0.00  0.00    -0.229 N 
ATOM     25  C   UNL d   1      56.074   0.364  32.617  0.00  0.00     0.092 A 
ATOM     26  C   UNL d   1      55.692   0.451  33.343  0.00  0.00     0.018 A 
ATOM     27  C   UNL d   1      54.869   0.405  33.383  0.00  0.00     0.002 A 
ATOM     28  C   UNL d   1      56.126   0.583  34.034  0.00  0.00     0.003 A 
ATOM     29  C   UNL d   1      54.488   0.492  34.109  0.00  0.00     0.000 A 
ATOM     30  C   UNL d   1      54.929   0.625  34.795  0.00  0.00     0.000 A 
ATOM     31  C   UNL d   1      55.749   0.670  34.753  0.00  0.00     0.000 A 
ATOM     32  C   UNL d   1      56.955   0.629  33.990  0.00  0.00     0.020 A 
ATOM     33  C   UNL d   1      57.337   0.542  33.264  0.00  0.00     0.092 A 
ENDBRANCH  21  24
ENDBRANCH   1  21
TORSDOF 5
ENDMDL
MODEL 2
REMARK VINA RESULT:      -1.4      0.724      1.327
REMARK  5 active torsions:
REMARK  status: ('A' for Active; 'I' for Inactive)
REMARK    1  A    between atoms: N_2  and  S_1 
REMARK    2  A    between atoms: C_10  and  S_1 
REMARK    3  A    between atoms: C_4  and  N_12 
REMARK    4  A    between atoms: C_8  and  C_17 
REMARK       I    between atoms: N_11  and  C_8 
REMARK    5  A    between atoms: N_12  and  N_11 
ROOT
ATOM      1  C   UNL d   1      57.865   0.182  30.976  0.00  0.00     0.104 A 
ATOM      2  C   UNL d   1      58.815   0.056  29.638  0.00  0.00     0.059 A 
ATOM      3  C   UNL d   1      57.610   0.506  30.260  0.00  0.00     0.013 A 
ATOM      4  C   UNL d   1      58.593  -0.204  31.020  0.00  0.00     0.013 A 
ATOM      5  C   UNL d   1      58.089   0.439  29.601  0.00  0.00     0.006 A 
ATOM      6  C   UNL d   1      59.067  -0.265  30.347  0.00  0.00     0.006 A 
ENDROOT
BRANCH   2   7
ATOM      7  C   UNL d   1      59.291  -0.008  28.973  0.00  0.00     0.297 C 
ATOM      8  N   UNL d   1      59.233  -0.728  28.588  0.00  0.00    -0.104 NA
ATOM      9  O   UNL d   1      59.737   0.681  28.829  0.00  0.00    -0.264 OA
BRANCH   8  10
ATOM     10  N   UNL d   1      58.729  -1.304  28.880  0.00  0.00    -0.118 NA
BRANCH  10  11
ATOM     11  C   UNL d   1      58.909  -2.110  28.781  0.00  0.00     0.215 A 
ATOM     12  N   UNL d   1      59.660  -2.433  28.716  0.00  0.00    -0.219 NA
ATOM     13  C   UNL d   1      59.595  -3.244  28.625  0.00  0.00     0.090 A 
ATOM     14  C   UNL d   1      60.149  -3.842  28.536  0.00  0.00     0.018 A 
ATOM     15  C   UNL d   1      58.784  -3.427  28.636  0.00  0.00     0.050 A 
ATOM     16  C   UNL d   1      59.902  -4.625  28.456  0.00  0.00     0.002 A 
ATOM     17  C   UNL d   1      60.958  -3.657  28.526  0.00  0.00     0.002 C 
ATOM     18  C   UNL d   1      59.099  -4.804  28.466  0.00  0.00     0.001 A 
ATOM     19  C   UNL d   1      58.527  -4.208  28.556  0.00  0.00     0.008 A 
ATOM     20  S   UNL d   1      58.366  -2.726  28.732  0.00  0.00    -0.045 SA
ENDBRANCH  10  11
ENDBRANCH   8  10
ENDBRANCH   2   7
BRANCH   1  21
ATOM     21  S   UNL d   1      57.394   0.241  31.647  0.00  0.00     0.271 S 
ATOM     22  O   UNL d   1      56.753   0.469  31.184  0.00  0.00    -0.200 OA
ATOM     23  O   UNL d   1      58.036   0.013  32.113  0.00  0.00    -0.200 OA
BRANCH  21  24
ATOM     24  N   UNL d   1      56.925   0.300  32.323  0.00  0.00    -0.229 N 
ATOM     25  C   UNL d   1      57.276   0.431  33.058  0.00  0.00     0.092 A 
ATOM     26  C   UNL d   1      56.806   0.490  33.733  0.00  0.00     0.018 A 
ATOM     27  C   UNL d   1      57.157   0.622  34.468  0.00  0.00     0.002 A 
ATOM     28  C   UNL d   1      55.984   0.419  33.682  0.00  0.00     0.003 A 
ATOM     29  C   UNL d   1      56.688   0.681  35.142  0.00  0.00     0.000 A 
ATOM     30  C   UNL d   1      55.866   0.608  35.083  0.00  0.00     0.000 A 
ATOM     31  C   UNL d   1      55.519   0.477  34.350  0.00  0.00     0.000 A 
ATOM     32  C   UNL d   1      55.634   0.286  32.939  0.00  0.00     0.020 A 
ATOM     33  C   UNL d   1      56.103   0.227  32.264  0.00  0.00     0.092 A 
ENDBRANCH  21  24
ENDBRANCH   1  21
TORSDOF 5
ENDMDL
MODEL 3
REMARK VINA RESULT:      -1.3      1.417      6.129
REMARK  5 active torsions:
REMARK  status: ('A' for Active; 'I' for Inactive)
REMARK    1  A    between atoms: N_2  and  S_1 
REMARK    2  A    between atoms: C_10  and  S_1 
REMARK    3  A    between atoms: C_4  and  N_12 
REMARK    4  A    between atoms: C_8  and  C_17 
REMARK       I    between atoms: N_11  and  C_8 
REMARK    5  A    between atoms: N_12  and  N_11 
ROOT
ATOM      1  C   UNL d   1      59.375  -2.095  29.082  0.00  0.00     0.104 A 
ATOM      2  C   UNL d   1      58.736  -0.591  29.275  0.00  0.00     0.059 A 
ATOM      3  C   UNL d   1      59.855  -1.475  29.342  0.00  0.00     0.013 A 
ATOM      4  C   UNL d   1      58.577  -1.960  28.919  0.00  0.00     0.013 A 
ATOM      5  C   UNL d   1      59.529  -0.732  29.435  0.00  0.00     0.006 A 
ATOM      6  C   UNL d   1      58.261  -1.204  29.017  0.00  0.00     0.006 A 
ENDROOT
BRANCH   2   7
ATOM      7  C   UNL d   1      58.414   0.158  29.371  0.00  0.00     0.297 C 
ATOM      8  N   UNL d   1      58.015   0.264  30.078  0.00  0.00    -0.104 NA
ATOM      9  O   UNL d   1      58.563   0.657  28.721  0.00  0.00    -0.264 OA
BRANCH   8  10
ATOM     10  N   UNL d   1      57.969  -0.356  30.613  0.00  0.00    -0.118 NA
BRANCH  10  11
ATOM     11  C   UNL d   1      57.556  -0.263  31.329  0.00  0.00     0.215 A 
ATOM     12  N   UNL d   1      56.972  -0.760  31.619  0.00  0.00    -0.219 NA
ATOM     13  C   UNL d   1      56.709  -0.472  32.339  0.00  0.00     0.090 A 
ATOM     14  C   UNL d   1      56.144  -0.734  32.872  0.00  0.00     0.018 A 
ATOM     15  C   UNL d   1      57.142   0.221  32.498  0.00  0.00     0.050 A 
ATOM     16  C   UNL d   1      56.004  -0.310  33.567  0.00  0.00     0.002 A 
ATOM     17  C   UNL d   1      55.714  -1.424  32.711  0.00  0.00     0.002 C 
ATOM     18  C   UNL d   1      56.433   0.374  33.722  0.00  0.00     0.001 A 
ATOM     19  C   UNL d   1      57.009   0.651  33.190  0.00  0.00     0.008 A 
ATOM     20  S   UNL d   1      57.662   0.344  31.873  0.00  0.00    -0.045 SA
ENDBRANCH  10  11
ENDBRANCH   8  10
ENDBRANCH   2   7
BRANCH   1  21
ATOM     21  S   UNL d   1      59.688  -2.848  28.983  0.00  0.00     0.271 S 
ATOM     22  O   UNL d   1      60.446  -2.557  29.119  0.00  0.00    -0.200 OA
ATOM     23  O   UNL d   1      58.930  -3.143  28.847  0.00  0.00    -0.200 OA
BRANCH  21  24
ATOM     24  N   UNL d   1      60.000  -3.605  28.884  0.00  0.00    -0.229 N 
ATOM     25  C   UNL d   1      59.495  -4.247  28.770  0.00  0.00     0.092 A 
ATOM     26  C   UNL d   1      59.807  -5.004  28.671  0.00  0.00     0.018 A 
ATOM     27  C   UNL d   1      59.301  -5.646  28.557  0.00  0.00     0.002 A 
ATOM     28  C   UNL d   1      60.624  -5.127  28.684  0.00  0.00     0.003 A 
ATOM     29  C   UNL d   1      59.613  -6.402  28.458  0.00  0.00     0.000 A 
ATOM     30  C   UNL d   1      60.432  -6.517  28.472  0.00  0.00     0.000 A 
ATOM     31  C   UNL d   1      60.933  -5.876  28.585  0.00  0.00     0.000 A 
ATOM     32  C   UNL d   1      61.131  -4.478  28.798  0.00  0.00     0.020 A 
ATOM     33  C   UNL d   1      60.819  -3.721  28.898  0.00  0.00     0.092 A 
ENDBRANCH  21  24
ENDBRANCH   1  21
TORSDOF 5
ENDMDL
