MODEL 1
REMARK VINA RESULT:       0.3      0.000      0.000
REMARK  4 active torsions:
REMARK  status: ('A' for Active; 'I' for Inactive)
REMARK    1  A    between atoms: C_8  and  C_1 
REMARK    2  A    between atoms: C_10  and  C_7 
REMARK    3  A    between atoms: N_9  and  C_10 
REMARK    4  A    between atoms: O_23  and  C_15 
ROOT
ATOM      1  C   UNL d   1      32.785  21.849 -21.818  0.00  0.00     0.064 A 
ATOM      2  C   UNL d   1      32.934  20.628 -22.925  0.00  0.00     0.107 A 
ATOM      3  C   UNL d   1      32.940  22.024 -22.609  0.00  0.00     0.199 A 
ATOM      4  C   UNL d   1      33.015  21.415 -23.167  0.00  0.00     0.062 A 
ATOM      5  C   UNL d   1      32.704  21.054 -21.573  0.00  0.00     0.103 A 
ATOM      6  O   UNL d   1      32.778  20.440 -22.131  0.00  0.00    -0.307 OA
ATOM      7  C   UNL d   1      33.007  20.017 -23.476  0.00  0.00     0.079 A 
ATOM      8  C   UNL d   1      33.169  21.586 -23.958  0.00  0.00     0.009 A 
ATOM      9  C   UNL d   1      33.160  20.195 -24.259  0.00  0.00     0.199 A 
ATOM     10  O   UNL d   1      33.020  22.802 -22.848  0.00  0.00    -0.286 OA
ATOM     11  C   UNL d   1      33.241  20.982 -24.500  0.00  0.00     0.042 A 
ATOM     12  C   UNL d   1      32.550  20.878 -20.782  0.00  0.00     0.027 C 
ATOM     13  O   UNL d   1      33.235  19.582 -24.816  0.00  0.00    -0.286 OA
ENDROOT
BRANCH   1  14
ATOM     14  C   UNL d   1      32.712  22.459 -21.268  0.00  0.00     0.027 A 
ATOM     15  C   UNL d   1      32.116  23.026 -21.355  0.00  0.00     0.094 A 
ATOM     16  C   UNL d   1      32.050  23.633 -20.801  0.00  0.00     0.024 A 
ATOM     17  C   UNL d   1      32.572  23.677 -20.164  0.00  0.00     0.002 A 
ATOM     18  C   UNL d   1      33.167  23.110 -20.081  0.00  0.00     0.000 A 
ATOM     19  C   UNL d   1      33.241  22.498 -20.630  0.00  0.00     0.002 A 
BRANCH  15  20
ATOM     20  O   UNL d   1      31.594  22.981 -21.992  0.00  0.00    -0.328 OA
ATOM     21  C   UNL d   1      31.063  23.600 -22.133  0.00  0.00     0.181 C 
ENDBRANCH  15  20
ENDBRANCH   1  14
BRANCH   7  22
ATOM     22  C   UNL d   1      32.926  19.230 -23.234  0.00  0.00     0.086 C 
BRANCH  22  23
ATOM     23  N   UNL d   1      32.377  18.739 -23.603  0.00  0.00    -0.300 N 
ATOM     24  C   UNL d   1      32.555  17.943 -23.724  0.00  0.00     0.100 A 
ATOM     25  C   UNL d   1      32.002  17.439 -24.098  0.00  0.00     0.100 A 
ATOM     26  N   UNL d   1      31.281  17.741 -24.344  0.00  0.00    -0.299 N 
ATOM     27  C   UNL d   1      31.107  18.549 -24.219  0.00  0.00     0.100 A 
ATOM     28  C   UNL d   1      30.727  17.259 -24.713  0.00  0.00     0.100 C 
ATOM     29  C   UNL d   1      31.657  19.041 -23.849  0.00  0.00     0.100 A 
ENDBRANCH  22  23
ENDBRANCH   7  22
TORSDOF 4
ENDMDL
MODEL 2
REMARK VINA RESULT:       0.9      1.128      1.881
REMARK  4 active torsions:
REMARK  status: ('A' for Active; 'I' for Inactive)
REMARK    1  A    between atoms: C_8  and  C_1 
REMARK    2  A    between atoms: C_10  and  C_7 
REMARK    3  A    between atoms: N_9  and  C_10 
REMARK    4  A    between atoms: O_23  and  C_15 
ROOT
ATOM      1  C   UNL d   1      32.763  21.115 -21.819  0.00  0.00     0.064 A 
ATOM      2  C   UNL d   1      32.921  19.653 -22.577  0.00  0.00     0.107 A 
ATOM      3  C   UNL d   1      32.923  20.436 -21.379  0.00  0.00     0.199 A 
ATOM      4  C   UNL d   1      33.003  19.701 -21.756  0.00  0.00     0.062 A 
ATOM      5  C   UNL d   1      32.679  21.066 -22.649  0.00  0.00     0.103 A 
ATOM      6  O   UNL d   1      32.759  20.330 -23.030  0.00  0.00    -0.307 OA
ATOM      7  C   UNL d   1      32.999  18.924 -22.958  0.00  0.00     0.079 A 
ATOM      8  C   UNL d   1      33.164  19.020 -21.320  0.00  0.00     0.009 A 
ATOM      9  C   UNL d   1      33.158  18.254 -22.519  0.00  0.00     0.199 A 
ATOM     10  O   UNL d   1      33.005  20.484 -20.567  0.00  0.00    -0.286 OA
ATOM     11  C   UNL d   1      33.241  18.302 -21.697  0.00  0.00     0.042 A 
ATOM     12  C   UNL d   1      32.518  21.745 -23.089  0.00  0.00     0.027 C 
ATOM     13  O   UNL d   1      33.237  17.518 -22.899  0.00  0.00    -0.286 OA
ENDROOT
BRANCH   1  14
ATOM     14  C   UNL d   1      32.685  21.843 -21.438  0.00  0.00     0.027 A 
ATOM     15  C   UNL d   1      32.056  21.971 -20.916  0.00  0.00     0.094 A 
ATOM     16  C   UNL d   1      31.986  22.701 -20.539  0.00  0.00     0.024 A 
ATOM     17  C   UNL d   1      32.536  23.300 -20.681  0.00  0.00     0.002 A 
ATOM     18  C   UNL d   1      33.162  23.168 -21.203  0.00  0.00     0.000 A 
ATOM     19  C   UNL d   1      33.241  22.440 -21.584  0.00  0.00     0.002 A 
BRANCH  15  20
ATOM     20  O   UNL d   1      31.507  21.372 -20.775  0.00  0.00    -0.328 OA
ATOM     21  C   UNL d   1      31.078  21.366 -20.068  0.00  0.00     0.181 C 
ENDBRANCH  15  20
ENDBRANCH   1  14
BRANCH   7  22
ATOM     22  C   UNL d   1      32.916  18.876 -23.780  0.00  0.00     0.086 C 
BRANCH  22  23
ATOM     23  N   UNL d   1      32.309  18.425 -24.108  0.00  0.00    -0.300 N 
ATOM     24  C   UNL d   1      31.523  18.632 -23.971  0.00  0.00     0.100 A 
ATOM     25  C   UNL d   1      30.903  18.179 -24.301  0.00  0.00     0.100 A 
ATOM     26  N   UNL d   1      31.080  17.526 -24.762  0.00  0.00    -0.299 N 
ATOM     27  C   UNL d   1      31.879  17.321 -24.897  0.00  0.00     0.100 A 
ATOM     28  C   UNL d   1      30.482  17.070 -25.094  0.00  0.00     0.100 C 
ATOM     29  C   UNL d   1      32.487  17.772 -24.569  0.00  0.00     0.100 A 
ENDBRANCH  22  23
ENDBRANCH   7  22
TORSDOF 4
ENDMDL
MODEL 3
REMARK VINA RESULT:       0.9      2.011      4.046
REMARK  4 active torsions:
REMARK  status: ('A' for Active; 'I' for Inactive)
REMARK    1  A    between atoms: C_8  and  C_1 
REMARK    2  A    between atoms: C_10  and  C_7 
REMARK    3  A    between atoms: N_9  and  C_10 
REMARK    4  A    between atoms: O_23  and  C_15 
ROOT
ATOM      1  C   UNL d   1      32.218  18.989 -24.061  0.00  0.00     0.064 A 
ATOM      2  C   UNL d   1      31.539  17.487 -23.916  0.00  0.00     0.107 A 
ATOM      3  C   UNL d   1      32.517  18.451 -23.512  0.00  0.00     0.199 A 
ATOM      4  C   UNL d   1      32.179  17.697 -23.436  0.00  0.00     0.062 A 
ATOM      5  C   UNL d   1      31.572  18.777 -24.546  0.00  0.00     0.103 A 
ATOM      6  O   UNL d   1      31.231  18.020 -24.473  0.00  0.00    -0.307 OA
ATOM      7  C   UNL d   1      31.199  16.738 -23.846  0.00  0.00     0.079 A 
ATOM      8  C   UNL d   1      32.474  17.157 -22.888  0.00  0.00     0.009 A 
ATOM      9  C   UNL d   1      31.498  16.208 -23.300  0.00  0.00     0.199 A 
ATOM     10  O   UNL d   1      33.149  18.660 -23.037  0.00  0.00    -0.286 OA
ATOM     11  C   UNL d   1      32.137  16.418 -22.820  0.00  0.00     0.042 A 
ATOM     12  C   UNL d   1      31.273  19.315 -25.096  0.00  0.00     0.027 C 
ATOM     13  O   UNL d   1      31.157  15.453 -23.226  0.00  0.00    -0.286 OA
ENDROOT
BRANCH   1  14
ATOM     14  C   UNL d   1      32.559  19.737 -24.131  0.00  0.00     0.027 A 
ATOM     15  C   UNL d   1      32.585  20.243 -23.477  0.00  0.00     0.094 A 
ATOM     16  C   UNL d   1      32.927  20.989 -23.556  0.00  0.00     0.024 A 
ATOM     17  C   UNL d   1      33.241  21.231 -24.280  0.00  0.00     0.002 A 
ATOM     18  C   UNL d   1      33.213  20.723 -24.930  0.00  0.00     0.000 A 
ATOM     19  C   UNL d   1      32.873  19.975 -24.861  0.00  0.00     0.002 A 
BRANCH  15  20
ATOM     20  O   UNL d   1      32.271  20.000 -22.754  0.00  0.00    -0.328 OA
ATOM     21  C   UNL d   1      32.187  20.546 -22.139  0.00  0.00     0.181 C 
ENDBRANCH  15  20
ENDBRANCH   1  14
BRANCH   7  22
ATOM     22  C   UNL d   1      30.559  16.527 -24.326  0.00  0.00     0.086 C 
BRANCH  22  23
ATOM     23  N   UNL d   1      29.810  16.432 -23.997  0.00  0.00    -0.300 N 
ATOM     24  C   UNL d   1      29.240  17.019 -24.096  0.00  0.00     0.100 A 
ATOM     25  C   UNL d   1      28.477  16.929 -23.765  0.00  0.00     0.100 A 
ATOM     26  N   UNL d   1      28.299  16.252 -23.340  0.00  0.00    -0.299 N 
ATOM     27  C   UNL d   1      28.881  15.660 -23.243  0.00  0.00     0.100 A 
ATOM     28  C   UNL d   1      27.554  16.147 -23.008  0.00  0.00     0.100 C 
ATOM     29  C   UNL d   1      29.631  15.755 -23.572  0.00  0.00     0.100 A 
ENDBRANCH  22  23
ENDBRANCH   7  22
TORSDOF 4
ENDMDL
MODEL 4
REMARK VINA RESULT:       2.1      2.069      5.363
REMARK  4 active torsions:
REMARK  status: ('A' for Active; 'I' for Inactive)
REMARK    1  A    between atoms: C_8  and  C_1 
REMARK    2  A    between atoms: C_10  and  C_7 
REMARK    3  A    between atoms: N_9  and  C_10 
REMARK    4  A    between atoms: O_23  and  C_15 
ROOT
ATOM      1  C   UNL d   1      30.241  17.377 -23.924  0.00  0.00     0.064 A 
ATOM      2  C   UNL d   1      31.639  18.263 -23.933  0.00  0.00     0.107 A 
ATOM      3  C   UNL d   1      30.366  17.948 -24.507  0.00  0.00     0.199 A 
ATOM      4  C   UNL d   1      31.065  18.394 -24.515  0.00  0.00     0.062 A 
ATOM      5  C   UNL d   1      30.820  17.245 -23.336  0.00  0.00     0.103 A 
ATOM      6  O   UNL d   1      31.523  17.692 -23.342  0.00  0.00    -0.307 OA
ATOM      7  C   UNL d   1      32.337  18.704 -23.935  0.00  0.00     0.079 A 
ATOM      8  C   UNL d   1      31.194  18.964 -25.095  0.00  0.00     0.009 A 
ATOM      9  C   UNL d   1      32.457  19.268 -24.514  0.00  0.00     0.199 A 
ATOM     10  O   UNL d   1      29.799  18.077 -25.082  0.00  0.00    -0.286 OA
ATOM     11  C   UNL d   1      31.884  19.398 -25.096  0.00  0.00     0.042 A 
ATOM     12  C   UNL d   1      30.695  16.675 -22.753  0.00  0.00     0.027 C 
ATOM     13  O   UNL d   1      33.159  19.714 -24.519  0.00  0.00    -0.286 OA
ENDROOT
BRANCH   1  14
ATOM     14  C   UNL d   1      29.543  16.937 -23.922  0.00  0.00     0.027 A 
ATOM     15  C   UNL d   1      29.437  16.327 -24.470  0.00  0.00     0.094 A 
ATOM     16  C   UNL d   1      28.737  15.892 -24.461  0.00  0.00     0.024 A 
ATOM     17  C   UNL d   1      28.145  16.063 -23.912  0.00  0.00     0.002 A 
ATOM     18  C   UNL d   1      28.255  16.673 -23.366  0.00  0.00     0.000 A 
ATOM     19  C   UNL d   1      28.952  17.114 -23.367  0.00  0.00     0.002 A 
BRANCH  15  20
ATOM     20  O   UNL d   1      30.029  16.157 -25.019  0.00  0.00    -0.328 OA
ATOM     21  C   UNL d   1      30.457  15.453 -24.956  0.00  0.00     0.181 C 
ENDBRANCH  15  20
ENDBRANCH   1  14
BRANCH   7  22
ATOM     22  C   UNL d   1      32.910  18.574 -23.354  0.00  0.00     0.086 C 
BRANCH  22  23
ATOM     23  N   UNL d   1      32.964  19.080 -22.706  0.00  0.00    -0.300 N 
ATOM     24  C   UNL d   1      32.858  19.892 -22.809  0.00  0.00     0.100 A 
ATOM     25  C   UNL d   1      32.912  20.411 -22.156  0.00  0.00     0.100 A 
ATOM     26  N   UNL d   1      33.071  20.110 -21.412  0.00  0.00    -0.299 N 
ATOM     27  C   UNL d   1      33.178  19.287 -21.314  0.00  0.00     0.100 A 
ATOM     28  C   UNL d   1      33.127  20.607 -20.760  0.00  0.00     0.100 C 
ATOM     29  C   UNL d   1      33.124  18.779 -21.961  0.00  0.00     0.100 A 
ENDBRANCH  22  23
ENDBRANCH   7  22
TORSDOF 4
ENDMDL
