MODEL 1
REMARK VINA RESULT:     -10.0      0.000      0.000
REMARK  5 active torsions:
REMARK  status: ('A' for Active; 'I' for Inactive)
REMARK    1  A    between atoms: S_2  and  N_1 
REMARK    2  A    between atoms: C_10  and  S_2 
REMARK    3  A    between atoms: N_7  and  C_3 
REMARK    4  A    between atoms: C_12  and  C_6 
REMARK    5  A    between atoms: C_13  and  N_7 
ROOT
ATOM      1  N   UNL d   1      52.568  33.214  53.346  0.00  0.00    -0.176 N 
ATOM      2  C   UNL d   1      52.805  32.428  53.316  0.00  0.00     0.191 A 
ATOM      3  C   UNL d   1      53.104  33.640  53.790  0.00  0.00     0.281 A 
ATOM      4  S   UNL d   1      53.503  32.375  53.753  0.00  0.00    -0.044 SA
ATOM      5  C   UNL d   1      53.671  33.146  54.040  0.00  0.00     0.089 A 
ATOM      6  O   UNL d   1      53.091  34.465  53.973  0.00  0.00    -0.265 OA
ENDROOT
BRANCH   1   7
ATOM      7  S   UNL d   1      51.900  33.533  52.991  0.00  0.00     0.275 S 
ATOM      8  O   UNL d   1      52.293  33.641  52.263  0.00  0.00    -0.199 OA
ATOM      9  O   UNL d   1      51.470  33.443  53.699  0.00  0.00    -0.199 OA
BRANCH   7  10
ATOM     10  C   UNL d   1      51.232  33.850  52.644  0.00  0.00     0.104 A 
ATOM     11  C   UNL d   1      51.241  34.050  51.836  0.00  0.00     0.013 A 
ATOM     12  C   UNL d   1      50.573  34.374  51.460  0.00  0.00     0.001 A 
ATOM     13  C   UNL d   1      49.860  34.506  51.912  0.00  0.00     0.000 A 
ATOM     14  C   UNL d   1      49.888  34.301  52.690  0.00  0.00     0.001 A 
ATOM     15  C   UNL d   1      50.537  33.986  53.055  0.00  0.00     0.013 A 
ENDBRANCH   7  10
ENDBRANCH   1   7
BRANCH   2  16
ATOM     16  N   UNL d   1      52.368  31.881  52.908  0.00  0.00    -0.222 NA
BRANCH  16  17
ATOM     17  C   UNL d   1      52.543  31.071  52.990  0.00  0.00     0.084 A 
ATOM     18  C   UNL d   1      53.133  30.734  52.529  0.00  0.00     0.019 A 
ATOM     19  C   UNL d   1      53.316  29.932  52.601  0.00  0.00     0.002 A 
ATOM     20  C   UNL d   1      52.886  29.465  53.157  0.00  0.00     0.000 A 
ATOM     21  C   UNL d   1      52.296  29.804  53.617  0.00  0.00     0.002 A 
ATOM     22  C   UNL d   1      52.128  30.611  53.530  0.00  0.00     0.019 A 
ENDBRANCH  16  17
ENDBRANCH   2  16
BRANCH   5  23
ATOM     23  C   UNL d   1      54.301  33.391  54.503  0.00  0.00     0.011 A 
ATOM     24  C   UNL d   1      54.990  33.634  54.153  0.00  0.00     0.001 A 
ATOM     25  C   UNL d   1      55.629  33.883  54.615  0.00  0.00     0.000 A 
ATOM     26  C   UNL d   1      55.580  33.888  55.432  0.00  0.00     0.000 A 
ATOM     27  C   UNL d   1      54.870  33.637  55.789  0.00  0.00     0.000 A 
ATOM     28  C   UNL d   1      54.226  33.387  55.330  0.00  0.00     0.001 A 
ENDBRANCH   5  23
TORSDOF 5
ENDMDL
MODEL 2
REMARK VINA RESULT:      -9.6      0.824      3.225
REMARK  5 active torsions:
REMARK  status: ('A' for Active; 'I' for Inactive)
REMARK    1  A    between atoms: S_2  and  N_1 
REMARK    2  A    between atoms: C_10  and  S_2 
REMARK    3  A    between atoms: N_7  and  C_3 
REMARK    4  A    between atoms: C_12  and  C_6 
REMARK    5  A    between atoms: C_13  and  N_7 
ROOT
ATOM      1  N   UNL d   1      52.574  32.411  53.356  0.00  0.00    -0.176 N 
ATOM      2  C   UNL d   1      53.287  32.590  53.721  0.00  0.00     0.191 A 
ATOM      3  C   UNL d   1      52.478  31.601  53.331  0.00  0.00     0.281 A 
ATOM      4  S   UNL d   1      53.634  31.869  53.924  0.00  0.00    -0.044 SA
ATOM      5  C   UNL d   1      53.110  31.264  53.670  0.00  0.00     0.089 A 
ATOM      6  O   UNL d   1      51.832  31.161  53.009  0.00  0.00    -0.265 OA
ENDROOT
BRANCH   1   7
ATOM      7  S   UNL d   1      52.033  32.953  53.058  0.00  0.00     0.275 S 
ATOM      8  O   UNL d   1      52.395  32.959  52.307  0.00  0.00    -0.199 OA
ATOM      9  O   UNL d   1      51.639  32.977  53.793  0.00  0.00    -0.199 OA
BRANCH   7  10
ATOM     10  C   UNL d   1      51.491  33.491  52.768  0.00  0.00     0.104 A 
ATOM     11  C   UNL d   1      50.817  33.682  53.217  0.00  0.00     0.013 A 
ATOM     12  C   UNL d   1      50.251  34.227  52.944  0.00  0.00     0.001 A 
ATOM     13  C   UNL d   1      50.362  34.602  52.185  0.00  0.00     0.000 A 
ATOM     14  C   UNL d   1      51.026  34.394  51.778  0.00  0.00     0.001 A 
ATOM     15  C   UNL d   1      51.575  33.864  52.044  0.00  0.00     0.013 A 
ENDBRANCH   7  10
ENDBRANCH   1   7
BRANCH   2  16
ATOM     16  N   UNL d   1      53.520  33.359  53.818  0.00  0.00    -0.222 NA
BRANCH  16  17
ATOM     17  C   UNL d   1      54.180  33.532  54.296  0.00  0.00     0.084 A 
ATOM     18  C   UNL d   1      54.073  33.694  55.093  0.00  0.00     0.019 A 
ATOM     19  C   UNL d   1      54.718  33.867  55.578  0.00  0.00     0.002 A 
ATOM     20  C   UNL d   1      55.491  33.874  55.239  0.00  0.00     0.000 A 
ATOM     21  C   UNL d   1      55.597  33.711  54.441  0.00  0.00     0.002 A 
ATOM     22  C   UNL d   1      54.935  33.540  53.971  0.00  0.00     0.019 A 
ENDBRANCH  16  17
ENDBRANCH   2  16
BRANCH   5  23
ATOM     23  C   UNL d   1      53.196  30.452  53.740  0.00  0.00     0.011 A 
ATOM     24  C   UNL d   1      53.297  29.997  53.078  0.00  0.00     0.001 A 
ATOM     25  C   UNL d   1      53.385  29.177  53.143  0.00  0.00     0.000 A 
ATOM     26  C   UNL d   1      53.371  28.810  53.874  0.00  0.00     0.000 A 
ATOM     27  C   UNL d   1      53.267  29.281  54.554  0.00  0.00     0.000 A 
ATOM     28  C   UNL d   1      53.179  30.104  54.494  0.00  0.00     0.001 A 
ENDBRANCH   5  23
TORSDOF 5
ENDMDL
MODEL 3
REMARK VINA RESULT:      -9.1      0.699      3.706
REMARK  5 active torsions:
REMARK  status: ('A' for Active; 'I' for Inactive)
REMARK    1  A    between atoms: S_2  and  N_1 
REMARK    2  A    between atoms: C_10  and  S_2 
REMARK    3  A    between atoms: N_7  and  C_3 
REMARK    4  A    between atoms: C_12  and  C_6 
REMARK    5  A    between atoms: C_13  and  N_7 
ROOT
ATOM      1  N   UNL d   1      53.127  33.168  53.690  0.00  0.00    -0.176 N 
ATOM      2  C   UNL d   1      52.936  32.419  53.410  0.00  0.00     0.191 A 
ATOM      3  C   UNL d   1      52.550  33.697  53.460  0.00  0.00     0.281 A 
ATOM      4  S   UNL d   1      52.224  32.497  52.999  0.00  0.00    -0.044 SA
ATOM      5  C   UNL d   1      52.002  33.305  53.043  0.00  0.00     0.089 A 
ATOM      6  O   UNL d   1      52.510  34.527  53.618  0.00  0.00    -0.265 OA
ENDROOT
BRANCH   1   7
ATOM      7  S   UNL d   1      53.790  33.365  54.132  0.00  0.00     0.275 S 
ATOM      8  O   UNL d   1      54.268  33.439  53.453  0.00  0.00    -0.199 OA
ATOM      9  O   UNL d   1      53.349  33.303  54.837  0.00  0.00    -0.199 OA
BRANCH   7  10
ATOM     10  C   UNL d   1      54.445  33.561  54.579  0.00  0.00     0.104 A 
ATOM     11  C   UNL d   1      54.397  33.551  55.409  0.00  0.00     0.013 A 
ATOM     12  C   UNL d   1      55.051  33.747  55.886  0.00  0.00     0.001 A 
ATOM     13  C   UNL d   1      55.790  33.963  55.516  0.00  0.00     0.000 A 
ATOM     14  C   UNL d   1      55.799  33.962  54.710  0.00  0.00     0.001 A 
ATOM     15  C   UNL d   1      55.165  33.772  54.248  0.00  0.00     0.013 A 
ENDBRANCH   7  10
ENDBRANCH   1   7
BRANCH   2  16
ATOM     16  N   UNL d   1      53.418  31.787  53.560  0.00  0.00    -0.222 NA
BRANCH  16  17
ATOM     17  C   UNL d   1      53.156  31.018  53.380  0.00  0.00     0.084 A 
ATOM     18  C   UNL d   1      52.881  30.531  53.981  0.00  0.00     0.019 A 
ATOM     19  C   UNL d   1      52.618  29.766  53.817  0.00  0.00     0.002 A 
ATOM     20  C   UNL d   1      52.637  29.493  53.018  0.00  0.00     0.000 A 
ATOM     21  C   UNL d   1      52.913  29.981  52.418  0.00  0.00     0.002 A 
ATOM     22  C   UNL d   1      53.173  30.746  52.605  0.00  0.00     0.019 A 
ENDBRANCH  16  17
ENDBRANCH   2  16
BRANCH   5  23
ATOM     23  C   UNL d   1      51.340  33.670  52.726  0.00  0.00     0.011 A 
ATOM     24  C   UNL d   1      50.667  33.746  53.169  0.00  0.00     0.001 A 
ATOM     25  C   UNL d   1      49.997  34.113  52.854  0.00  0.00     0.000 A 
ATOM     26  C   UNL d   1      49.998  34.406  52.090  0.00  0.00     0.000 A 
ATOM     27  C   UNL d   1      50.693  34.327  51.636  0.00  0.00     0.000 A 
ATOM     28  C   UNL d   1      51.368  33.959  51.948  0.00  0.00     0.001 A 
ENDBRANCH   5  23
TORSDOF 5
ENDMDL
MODEL 4
REMARK VINA RESULT:      -8.9      1.175      4.275
REMARK  5 active torsions:
REMARK  status: ('A' for Active; 'I' for Inactive)
REMARK    1  A    between atoms: S_2  and  N_1 
REMARK    2  A    between atoms: C_10  and  S_2 
REMARK    3  A    between atoms: N_7  and  C_3 
REMARK    4  A    between atoms: C_12  and  C_6 
REMARK    5  A    between atoms: C_13  and  N_7 
ROOT
ATOM      1  N   UNL d   1      52.898  31.878  53.546  0.00  0.00    -0.176 N 
ATOM      2  C   UNL d   1      53.410  32.484  53.760  0.00  0.00     0.191 A 
ATOM      3  C   UNL d   1      52.225  32.198  53.215  0.00  0.00     0.281 A 
ATOM      4  S   UNL d   1      53.037  33.191  53.554  0.00  0.00    -0.044 SA
ATOM      5  C   UNL d   1      52.297  32.988  53.214  0.00  0.00     0.089 A 
ATOM      6  O   UNL d   1      51.547  31.792  52.913  0.00  0.00    -0.265 OA
ENDROOT
BRANCH   1   7
ATOM      7  S   UNL d   1      53.031  31.074  53.644  0.00  0.00     0.275 S 
ATOM      8  O   UNL d   1      53.381  31.001  52.891  0.00  0.00    -0.199 OA
ATOM      9  O   UNL d   1      52.688  31.101  54.403  0.00  0.00    -0.199 OA
BRANCH   7  10
ATOM     10  C   UNL d   1      53.160  30.274  53.749  0.00  0.00     0.104 A 
ATOM     11  C   UNL d   1      53.146  29.950  54.514  0.00  0.00     0.013 A 
ATOM     12  C   UNL d   1      53.274  29.138  54.647  0.00  0.00     0.001 A 
ATOM     13  C   UNL d   1      53.424  28.623  53.982  0.00  0.00     0.000 A 
ATOM     14  C   UNL d   1      53.431  28.972  53.255  0.00  0.00     0.001 A 
ATOM     15  C   UNL d   1      53.306  29.760  53.127  0.00  0.00     0.013 A 
ENDBRANCH   7  10
ENDBRANCH   1   7
BRANCH   2  16
ATOM     16  N   UNL d   1      54.124  32.319  54.104  0.00  0.00    -0.222 NA
BRANCH  16  17
ATOM     17  C   UNL d   1      54.560  32.931  54.461  0.00  0.00     0.084 A 
ATOM     18  C   UNL d   1      55.137  33.324  54.028  0.00  0.00     0.019 A 
ATOM     19  C   UNL d   1      55.578  33.933  54.369  0.00  0.00     0.002 A 
ATOM     20  C   UNL d   1      55.424  34.146  55.171  0.00  0.00     0.000 A 
ATOM     21  C   UNL d   1      54.846  33.752  55.603  0.00  0.00     0.002 A 
ATOM     22  C   UNL d   1      54.415  33.143  55.241  0.00  0.00     0.019 A 
ENDBRANCH  16  17
ENDBRANCH   2  16
BRANCH   5  23
ATOM     23  C   UNL d   1      51.717  33.486  52.919  0.00  0.00     0.011 A 
ATOM     24  C   UNL d   1      51.050  33.633  53.353  0.00  0.00     0.001 A 
ATOM     25  C   UNL d   1      50.462  34.135  53.060  0.00  0.00     0.000 A 
ATOM     26  C   UNL d   1      50.541  34.494  52.329  0.00  0.00     0.000 A 
ATOM     27  C   UNL d   1      51.230  34.341  51.884  0.00  0.00     0.000 A 
ATOM     28  C   UNL d   1      51.822  33.838  52.174  0.00  0.00     0.001 A 
ENDBRANCH   5  23
TORSDOF 5
ENDMDL
MODEL 5
REMARK VINA RESULT:      -8.4      1.081      4.149
REMARK  5 active torsions:
REMARK  status: ('A' for Active; 'I' for Inactive)
REMARK    1  A    between atoms: S_2  and  N_1 
REMARK    2  A    between atoms: C_10  and  S_2 
REMARK    3  A    between atoms: N_7  and  C_3 
REMARK    4  A    between atoms: C_12  and  C_6 
REMARK    5  A    between atoms: C_13  and  N_7 
ROOT
ATOM      1  N   UNL d   1      53.490  32.384  53.787  0.00  0.00    -0.176 N 
ATOM      2  C   UNL d   1      52.814  32.655  53.406  0.00  0.00     0.191 A 
ATOM      3  C   UNL d   1      53.531  31.572  53.719  0.00  0.00     0.281 A 
ATOM      4  S   UNL d   1      52.434  31.990  53.099  0.00  0.00    -0.044 SA
ATOM      5  C   UNL d   1      52.901  31.324  53.307  0.00  0.00     0.089 A 
ATOM      6  O   UNL d   1      54.125  31.052  54.022  0.00  0.00    -0.265 OA
ENDROOT
BRANCH   1   7
ATOM      7  S   UNL d   1      54.045  32.847  54.178  0.00  0.00     0.275 S 
ATOM      8  O   UNL d   1      54.488  32.970  53.482  0.00  0.00    -0.199 OA
ATOM      9  O   UNL d   1      53.632  32.750  54.896  0.00  0.00    -0.199 OA
BRANCH   7  10
ATOM     10  C   UNL d   1      54.593  33.306  54.573  0.00  0.00     0.104 A 
ATOM     11  C   UNL d   1      55.260  33.592  54.168  0.00  0.00     0.013 A 
ATOM     12  C   UNL d   1      55.833  34.062  54.549  0.00  0.00     0.001 A 
ATOM     13  C   UNL d   1      55.735  34.256  55.375  0.00  0.00     0.000 A 
ATOM     14  C   UNL d   1      55.076  33.961  55.734  0.00  0.00     0.001 A 
ATOM     15  C   UNL d   1      54.521  33.505  55.364  0.00  0.00     0.013 A 
ENDBRANCH   7  10
ENDBRANCH   1   7
BRANCH   2  16
ATOM     16  N   UNL d   1      52.639  33.446  53.390  0.00  0.00    -0.222 NA
BRANCH  16  17
ATOM     17  C   UNL d   1      51.932  33.702  53.033  0.00  0.00     0.084 A 
ATOM     18  C   UNL d   1      51.947  33.996  52.267  0.00  0.00     0.019 A 
ATOM     19  C   UNL d   1      51.253  34.254  51.901  0.00  0.00     0.002 A 
ATOM     20  C   UNL d   1      50.528  34.211  52.330  0.00  0.00     0.000 A 
ATOM     21  C   UNL d   1      50.514  33.917  53.096  0.00  0.00     0.002 A 
ATOM     22  C   UNL d   1      51.222  33.663  53.445  0.00  0.00     0.019 A 
ENDBRANCH  16  17
ENDBRANCH   2  16
BRANCH   5  23
ATOM     23  C   UNL d   1      52.766  30.534  53.135  0.00  0.00     0.011 A 
ATOM     24  C   UNL d   1      52.967  30.237  52.409  0.00  0.00     0.001 A 
ATOM     25  C   UNL d   1      52.833  29.441  52.230  0.00  0.00     0.000 A 
ATOM     26  C   UNL d   1      52.497  28.937  52.781  0.00  0.00     0.000 A 
ATOM     27  C   UNL d   1      52.292  29.245  53.528  0.00  0.00     0.000 A 
ATOM     28  C   UNL d   1      52.424  30.043  53.711  0.00  0.00     0.001 A 
ENDBRANCH   5  23
TORSDOF 5
ENDMDL
MODEL 6
REMARK VINA RESULT:      -7.3      1.144      3.320
REMARK  5 active torsions:
REMARK  status: ('A' for Active; 'I' for Inactive)
REMARK    1  A    between atoms: S_2  and  N_1 
REMARK    2  A    between atoms: C_10  and  S_2 
REMARK    3  A    between atoms: N_7  and  C_3 
REMARK    4  A    between atoms: C_12  and  C_6 
REMARK    5  A    between atoms: C_13  and  N_7 
ROOT
ATOM      1  N   UNL d   1      53.241  31.963  53.606  0.00  0.00    -0.176 N 
ATOM      2  C   UNL d   1      52.791  32.623  53.416  0.00  0.00     0.191 A 
ATOM      3  C   UNL d   1      53.898  32.197  54.030  0.00  0.00     0.281 A 
ATOM      4  S   UNL d   1      53.185  33.276  53.732  0.00  0.00    -0.044 SA
ATOM      5  C   UNL d   1      53.875  32.985  54.112  0.00  0.00     0.089 A 
ATOM      6  O   UNL d   1      54.517  31.713  54.343  0.00  0.00    -0.265 OA
ENDROOT
BRANCH   1   7
ATOM      7  S   UNL d   1      53.069  31.185  53.408  0.00  0.00     0.275 S 
ATOM      8  O   UNL d   1      53.382  31.271  52.640  0.00  0.00    -0.199 OA
ATOM      9  O   UNL d   1      52.746  31.054  54.165  0.00  0.00    -0.199 OA
BRANCH   7  10
ATOM     10  C   UNL d   1      52.894  30.409  53.218  0.00  0.00     0.104 A 
ATOM     11  C   UNL d   1      52.698  29.871  53.820  0.00  0.00     0.013 A 
ATOM     12  C   UNL d   1      52.517  29.076  53.652  0.00  0.00     0.001 A 
ATOM     13  C   UNL d   1      52.531  28.805  52.842  0.00  0.00     0.000 A 
ATOM     14  C   UNL d   1      52.725  29.354  52.286  0.00  0.00     0.001 A 
ATOM     15  C   UNL d   1      52.901  30.126  52.449  0.00  0.00     0.013 A 
ENDBRANCH   7  10
ENDBRANCH   1   7
BRANCH   2  16
ATOM     16  N   UNL d   1      52.105  32.546  52.993  0.00  0.00    -0.222 NA
BRANCH  16  17
ATOM     17  C   UNL d   1      51.616  33.210  52.880  0.00  0.00     0.084 A 
ATOM     18  C   UNL d   1      51.764  33.722  52.255  0.00  0.00     0.019 A 
ATOM     19  C   UNL d   1      51.288  34.385  52.131  0.00  0.00     0.002 A 
ATOM     20  C   UNL d   1      50.644  34.526  52.658  0.00  0.00     0.000 A 
ATOM     21  C   UNL d   1      50.496  34.013  53.282  0.00  0.00     0.002 A 
ATOM     22  C   UNL d   1      50.987  33.354  53.389  0.00  0.00     0.019 A 
ENDBRANCH  16  17
ENDBRANCH   2  16
BRANCH   5  23
ATOM     23  C   UNL d   1      54.454  33.407  54.511  0.00  0.00     0.011 A 
ATOM     24  C   UNL d   1      55.131  33.630  54.127  0.00  0.00     0.001 A 
ATOM     25  C   UNL d   1      55.717  34.056  54.525  0.00  0.00     0.000 A 
ATOM     26  C   UNL d   1      55.627  34.260  55.312  0.00  0.00     0.000 A 
ATOM     27  C   UNL d   1      54.929  34.029  55.705  0.00  0.00     0.000 A 
ATOM     28  C   UNL d   1      54.338  33.602  55.310  0.00  0.00     0.001 A 
ENDBRANCH   5  23
TORSDOF 5
ENDMDL
