MODEL 1
REMARK VINA RESULT:      -4.6      0.000      0.000
REMARK  0 active torsions:
REMARK  status: ('A' for Active; 'I' for Inactive)
ROOT
ATOM      1  N   UNL d   1      53.714  32.028  54.032  0.00  0.00    -0.219 NA
ATOM      2  C   UNL d   1      53.175  32.082  53.403  0.00  0.00     0.215 A 
ATOM      3  S   UNL d   1      52.942  32.876  53.334  0.00  0.00    -0.045 SA
ATOM      4  C   UNL d   1      53.814  32.785  54.351  0.00  0.00     0.090 A 
ATOM      5  C   UNL d   1      53.339  33.306  53.922  0.00  0.00     0.058 A 
ATOM      6  N   UNL d   1      52.912  31.464  52.926  0.00  0.00    -0.120 N 
ATOM      7  C   UNL d   1      54.301  32.975  54.983  0.00  0.00     0.021 C 
ENDROOT
TORSDOF 0
ENDMDL
MODEL 2
REMARK VINA RESULT:      -4.6      0.996      1.925
REMARK  0 active torsions:
REMARK  status: ('A' for Active; 'I' for Inactive)
ROOT
ATOM      1  N   UNL d   1      53.782  31.419  53.699  0.00  0.00    -0.219 NA
ATOM      2  C   UNL d   1      53.788  32.249  53.704  0.00  0.00     0.215 A 
ATOM      3  S   UNL d   1      53.141  32.511  53.254  0.00  0.00    -0.045 SA
ATOM      4  C   UNL d   1      53.135  31.169  53.249  0.00  0.00     0.090 A 
ATOM      5  C   UNL d   1      52.741  31.841  52.975  0.00  0.00     0.058 A 
ATOM      6  N   UNL d   1      54.334  32.735  54.085  0.00  0.00    -0.120 N 
ATOM      7  C   UNL d   1      52.928  30.389  53.104  0.00  0.00     0.021 C 
ENDROOT
TORSDOF 0
ENDMDL
MODEL 3
REMARK VINA RESULT:      -4.5      1.269      1.375
REMARK  0 active torsions:
REMARK  status: ('A' for Active; 'I' for Inactive)
ROOT
ATOM      1  N   UNL d   1      53.542  33.656  54.639  0.00  0.00    -0.219 NA
ATOM      2  C   UNL d   1      53.128  33.310  54.008  0.00  0.00     0.215 A 
ATOM      3  S   UNL d   1      53.643  32.785  53.622  0.00  0.00    -0.045 SA
ATOM      4  C   UNL d   1      54.309  33.347  54.644  0.00  0.00     0.090 A 
ATOM      5  C   UNL d   1      54.371  32.811  54.019  0.00  0.00     0.058 A 
ATOM      6  N   UNL d   1      52.345  33.455  53.794  0.00  0.00    -0.120 N 
ATOM      7  C   UNL d   1      54.898  33.543  55.179  0.00  0.00     0.021 C 
ENDROOT
TORSDOF 0
ENDMDL
MODEL 4
REMARK VINA RESULT:      -4.4      1.296      1.731
REMARK  0 active torsions:
REMARK  status: ('A' for Active; 'I' for Inactive)
ROOT
ATOM      1  N   UNL d   1      52.524  31.632  52.733  0.00  0.00    -0.219 NA
ATOM      2  C   UNL d   1      53.012  31.060  53.084  0.00  0.00     0.215 A 
ATOM      3  S   UNL d   1      53.536  31.451  53.596  0.00  0.00    -0.045 SA
ATOM      4  C   UNL d   1      52.746  32.373  53.026  0.00  0.00     0.090 A 
ATOM      5  C   UNL d   1      53.368  32.262  53.557  0.00  0.00     0.058 A 
ATOM      6  N   UNL d   1      52.988  30.246  52.955  0.00  0.00    -0.120 N 
ATOM      7  C   UNL d   1      52.402  33.089  52.820  0.00  0.00     0.021 C 
ENDROOT
TORSDOF 0
ENDMDL
MODEL 5
REMARK VINA RESULT:      -4.3      1.145      1.693
REMARK  0 active torsions:
REMARK  status: ('A' for Active; 'I' for Inactive)
ROOT
ATOM      1  N   UNL d   1      52.231  32.587  52.710  0.00  0.00    -0.219 NA
ATOM      2  C   UNL d   1      52.785  32.037  52.992  0.00  0.00     0.215 A 
ATOM      3  S   UNL d   1      53.333  32.445  53.464  0.00  0.00    -0.045 SA
ATOM      4  C   UNL d   1      52.436  33.332  53.005  0.00  0.00     0.090 A 
ATOM      5  C   UNL d   1      53.113  33.245  53.469  0.00  0.00     0.058 A 
ATOM      6  N   UNL d   1      52.797  31.227  52.838  0.00  0.00    -0.120 N 
ATOM      7  C   UNL d   1      52.031  34.030  52.858  0.00  0.00     0.021 C 
ENDROOT
TORSDOF 0
ENDMDL
MODEL 6
REMARK VINA RESULT:      -3.7      2.471      2.713
REMARK  0 active torsions:
REMARK  status: ('A' for Active; 'I' for Inactive)
ROOT
ATOM      1  N   UNL d   1      51.639  34.789  53.204  0.00  0.00    -0.219 NA
ATOM      2  C   UNL d   1      51.155  34.141  53.014  0.00  0.00     0.215 A 
ATOM      3  S   UNL d   1      51.593  33.448  53.149  0.00  0.00    -0.045 SA
ATOM      4  C   UNL d   1      52.371  34.498  53.455  0.00  0.00     0.090 A 
ATOM      5  C   UNL d   1      52.343  33.674  53.421  0.00  0.00     0.058 A 
ATOM      6  N   UNL d   1      50.379  34.170  52.740  0.00  0.00    -0.120 N 
ATOM      7  C   UNL d   1      53.008  34.956  53.693  0.00  0.00     0.021 C 
ENDROOT
TORSDOF 0
ENDMDL
MODEL 7
REMARK VINA RESULT:      -3.0     14.905     15.285
REMARK  0 active torsions:
REMARK  status: ('A' for Active; 'I' for Inactive)
ROOT
ATOM      1  N   UNL d   1      48.913  28.049  67.345  0.00  0.00    -0.219 NA
ATOM      2  C   UNL d   1      49.730  28.077  67.487  0.00  0.00     0.215 A 
ATOM      3  S   UNL d   1      49.951  27.360  67.845  0.00  0.00    -0.045 SA
ATOM      4  C   UNL d   1      48.630  27.319  67.614  0.00  0.00     0.090 A 
ATOM      5  C   UNL d   1      49.268  26.896  67.921  0.00  0.00     0.058 A 
ATOM      6  N   UNL d   1      50.240  28.699  67.309  0.00  0.00    -0.120 N 
ATOM      7  C   UNL d   1      47.850  27.069  67.577  0.00  0.00     0.021 C 
ENDROOT
TORSDOF 0
ENDMDL
MODEL 8
REMARK VINA RESULT:      -2.9      9.969     10.106
REMARK  0 active torsions:
REMARK  status: ('A' for Active; 'I' for Inactive)
ROOT
ATOM      1  N   UNL d   1      45.477  28.723  58.522  0.00  0.00    -0.219 NA
ATOM      2  C   UNL d   1      45.161  29.472  58.355  0.00  0.00     0.215 A 
ATOM      3  S   UNL d   1      44.778  29.428  57.619  0.00  0.00    -0.045 SA
ATOM      4  C   UNL d   1      45.291  28.219  57.894  0.00  0.00     0.090 A 
ATOM      5  C   UNL d   1      44.861  28.652  57.338  0.00  0.00     0.058 A 
ATOM      6  N   UNL d   1      45.212  30.146  58.827  0.00  0.00    -0.120 N 
ATOM      7  C   UNL d   1      45.500  27.428  57.840  0.00  0.00     0.021 C 
ENDROOT
TORSDOF 0
ENDMDL
MODEL 9
REMARK VINA RESULT:      -2.9      9.954     10.010
REMARK  0 active torsions:
REMARK  status: ('A' for Active; 'I' for Inactive)
ROOT
ATOM      1  N   UNL d   1      45.472  28.539  58.404  0.00  0.00    -0.219 NA
ATOM      2  C   UNL d   1      45.382  27.953  57.823  0.00  0.00     0.215 A 
ATOM      3  S   UNL d   1      44.990  28.294  57.175  0.00  0.00    -0.045 SA
ATOM      4  C   UNL d   1      45.137  29.238  58.117  0.00  0.00     0.090 A 
ATOM      5  C   UNL d   1      44.841  29.088  57.362  0.00  0.00     0.058 A 
ATOM      6  N   UNL d   1      45.634  27.169  57.870  0.00  0.00    -0.120 N 
ATOM      7  C   UNL d   1      45.109  29.952  58.520  0.00  0.00     0.021 C 
ENDROOT
TORSDOF 0
ENDMDL
