MODEL 1
REMARK VINA RESULT:      -9.1      0.000      0.000
REMARK  2 active torsions:
REMARK  status: ('A' for Active; 'I' for Inactive)
REMARK    1  A    between atoms: C_8  and  C_6 
REMARK    2  A    between atoms: C_9  and  C_8 
ROOT
ATOM      1  N   UNL d   1     -49.079  12.890  23.413  0.00  0.00    -0.207 NA
ATOM      2  N   UNL d   1     -48.324  14.313  22.966  0.00  0.00    -0.240 NA
ATOM      3  C   UNL d   1     -49.364  13.647  23.267  0.00  0.00     0.297 A 
ATOM      4  C   UNL d   1     -48.306  12.611  23.377  0.00  0.00     0.086 A 
ATOM      5  C   UNL d   1     -47.659  13.830  22.994  0.00  0.00     0.083 A 
ATOM      6  C   UNL d   1     -49.104  14.114  23.119  0.00  0.00     0.144 A 
ATOM      7  C   UNL d   1     -47.616  13.026  23.183  0.00  0.00     0.035 A 
ATOM      8  O   UNL d   1     -50.133  13.704  23.357  0.00  0.00    -0.264 OA
ATOM      9  C   UNL d   1     -46.890  12.641  23.179  0.00  0.00     0.003 A 
ATOM     10  C   UNL d   1     -46.977  14.245  22.801  0.00  0.00     0.019 A 
ATOM     11  C   UNL d   1     -48.262  11.803  23.567  0.00  0.00     0.019 A 
ATOM     12  C   UNL d   1     -47.528  11.418  23.562  0.00  0.00     0.002 A 
ATOM     13  C   UNL d   1     -46.251  13.861  22.797  0.00  0.00     0.002 A 
ATOM     14  C   UNL d   1     -46.208  13.057  22.987  0.00  0.00     0.000 A 
ATOM     15  C   UNL d   1     -46.846  11.841  23.368  0.00  0.00     0.000 A 
ENDROOT
BRANCH   6  16
ATOM     16  C   UNL d   1     -49.834  14.499  23.123  0.00  0.00     0.088 C 
BRANCH  16  17
ATOM     17  C   UNL d   1     -49.885  15.323  22.992  0.00  0.00     0.299 C 
ATOM     18  O   UNL d   1     -49.923  15.604  22.221  0.00  0.00    -0.264 OA
ATOM     19  N   UNL d   1     -49.897  15.853  23.629  0.00  0.00    -0.102 N 
ENDBRANCH  16  17
ENDBRANCH   6  16
TORSDOF 2
ENDMDL
MODEL 2
REMARK VINA RESULT:      -8.9      1.387      1.715
REMARK  2 active torsions:
REMARK  status: ('A' for Active; 'I' for Inactive)
REMARK    1  A    between atoms: C_8  and  C_6 
REMARK    2  A    between atoms: C_9  and  C_8 
ROOT
ATOM      1  N   UNL d   1     -48.584  11.494  23.477  0.00  0.00    -0.207 NA
ATOM      2  N   UNL d   1     -48.936  13.056  22.992  0.00  0.00    -0.240 NA
ATOM      3  C   UNL d   1     -49.291  11.876  23.303  0.00  0.00     0.297 A 
ATOM      4  C   UNL d   1     -47.817  11.792  23.460  0.00  0.00     0.086 A 
ATOM      5  C   UNL d   1     -48.119  13.129  23.045  0.00  0.00     0.083 A 
ATOM      6  C   UNL d   1     -49.398  12.395  23.142  0.00  0.00     0.144 A 
ATOM      7  C   UNL d   1     -47.564  12.556  23.261  0.00  0.00     0.035 A 
ATOM      8  O   UNL d   1     -49.911  11.414  23.381  0.00  0.00    -0.264 OA
ATOM      9  C   UNL d   1     -46.764  12.742  23.279  0.00  0.00     0.003 A 
ATOM     10  C   UNL d   1     -47.871  13.887  22.847  0.00  0.00     0.019 A 
ATOM     11  C   UNL d   1     -47.259  11.215  23.678  0.00  0.00     0.019 A 
ATOM     12  C   UNL d   1     -46.453  11.408  23.695  0.00  0.00     0.002 A 
ATOM     13  C   UNL d   1     -47.072  14.074  22.865  0.00  0.00     0.002 A 
ATOM     14  C   UNL d   1     -46.517  13.501  23.082  0.00  0.00     0.000 A 
ATOM     15  C   UNL d   1     -46.212  12.172  23.495  0.00  0.00     0.000 A 
ENDROOT
BRANCH   6  16
ATOM     16  C   UNL d   1     -50.201  12.206  23.125  0.00  0.00     0.088 C 
BRANCH  16  17
ATOM     17  C   UNL d   1     -50.776  12.791  22.969  0.00  0.00     0.299 C 
ATOM     18  O   UNL d   1     -51.064  13.246  23.590  0.00  0.00    -0.264 OA
ATOM     19  N   UNL d   1     -51.054  12.916  22.198  0.00  0.00    -0.102 N 
ENDBRANCH  16  17
ENDBRANCH   6  16
TORSDOF 2
ENDMDL
MODEL 3
REMARK VINA RESULT:      -8.9      2.032      3.086
REMARK  2 active torsions:
REMARK  status: ('A' for Active; 'I' for Inactive)
REMARK    1  A    between atoms: C_8  and  C_6 
REMARK    2  A    between atoms: C_9  and  C_8 
ROOT
ATOM      1  N   UNL d   1     -47.757  12.085  23.526  0.00  0.00    -0.207 NA
ATOM      2  N   UNL d   1     -47.582  13.119  22.224  0.00  0.00    -0.240 NA
ATOM      3  C   UNL d   1     -47.116  12.512  23.238  0.00  0.00     0.297 A 
ATOM      4  C   UNL d   1     -48.527  12.048  23.238  0.00  0.00     0.086 A 
ATOM      5  C   UNL d   1     -48.377  12.934  22.122  0.00  0.00     0.083 A 
ATOM      6  C   UNL d   1     -47.068  12.854  22.804  0.00  0.00     0.144 A 
ATOM      7  C   UNL d   1     -48.851  12.435  22.580  0.00  0.00     0.035 A 
ATOM      8  O   UNL d   1     -46.471  12.409  23.658  0.00  0.00    -0.264 OA
ATOM      9  C   UNL d   1     -49.641  12.322  22.384  0.00  0.00     0.003 A 
ATOM     10  C   UNL d   1     -48.695  13.319  21.470  0.00  0.00     0.019 A 
ATOM     11  C   UNL d   1     -49.003  11.546  23.698  0.00  0.00     0.019 A 
ATOM     12  C   UNL d   1     -49.800  11.435  23.497  0.00  0.00     0.002 A 
ATOM     13  C   UNL d   1     -49.485  13.207  21.273  0.00  0.00     0.002 A 
ATOM     14  C   UNL d   1     -49.959  12.707  21.731  0.00  0.00     0.000 A 
ATOM     15  C   UNL d   1     -50.113  11.825  22.839  0.00  0.00     0.000 A 
ENDROOT
BRANCH   6  16
ATOM     16  C   UNL d   1     -46.275  12.965  23.003  0.00  0.00     0.088 C 
BRANCH  16  17
ATOM     17  C   UNL d   1     -45.803  13.517  22.589  0.00  0.00     0.299 C 
ATOM     18  O   UNL d   1     -45.823  14.308  22.811  0.00  0.00    -0.264 OA
ATOM     19  N   UNL d   1     -45.320  13.273  21.961  0.00  0.00    -0.102 N 
ENDBRANCH  16  17
ENDBRANCH   6  16
TORSDOF 2
ENDMDL
MODEL 4
REMARK VINA RESULT:      -8.8      1.887      3.517
REMARK  2 active torsions:
REMARK  status: ('A' for Active; 'I' for Inactive)
REMARK    1  A    between atoms: C_8  and  C_6 
REMARK    2  A    between atoms: C_9  and  C_8 
ROOT
ATOM      1  N   UNL d   1     -47.842  14.682  22.871  0.00  0.00    -0.207 NA
ATOM      2  N   UNL d   1     -47.579  13.171  22.206  0.00  0.00    -0.240 NA
ATOM      3  C   UNL d   1     -47.172  14.209  22.815  0.00  0.00     0.297 A 
ATOM      4  C   UNL d   1     -48.605  14.534  22.601  0.00  0.00     0.086 A 
ATOM      5  C   UNL d   1     -48.379  13.239  22.031  0.00  0.00     0.083 A 
ATOM      6  C   UNL d   1     -47.094  13.708  22.592  0.00  0.00     0.144 A 
ATOM      7  C   UNL d   1     -48.891  13.866  22.202  0.00  0.00     0.035 A 
ATOM      8  O   UNL d   1     -46.544  14.535  23.136  0.00  0.00    -0.264 OA
ATOM      9  C   UNL d   1     -49.681  13.826  21.978  0.00  0.00     0.003 A 
ATOM     10  C   UNL d   1     -48.660  12.576  21.636  0.00  0.00     0.019 A 
ATOM     11  C   UNL d   1     -49.120  15.164  22.773  0.00  0.00     0.019 A 
ATOM     12  C   UNL d   1     -49.915  15.120  22.545  0.00  0.00     0.002 A 
ATOM     13  C   UNL d   1     -49.448  12.535  21.412  0.00  0.00     0.002 A 
ATOM     14  C   UNL d   1     -49.960  13.162  21.584  0.00  0.00     0.000 A 
ATOM     15  C   UNL d   1     -50.190  14.450  22.149  0.00  0.00     0.000 A 
ENDROOT
BRANCH   6  16
ATOM     16  C   UNL d   1     -46.302  13.750  22.817  0.00  0.00     0.088 C 
BRANCH  16  17
ATOM     17  C   UNL d   1     -45.780  13.115  22.668  0.00  0.00     0.299 C 
ATOM     18  O   UNL d   1     -45.721  12.506  23.217  0.00  0.00    -0.264 OA
ATOM     19  N   UNL d   1     -45.325  13.096  21.975  0.00  0.00    -0.102 N 
ENDBRANCH  16  17
ENDBRANCH   6  16
TORSDOF 2
ENDMDL
MODEL 5
REMARK VINA RESULT:      -7.6      1.676      3.225
REMARK  2 active torsions:
REMARK  status: ('A' for Active; 'I' for Inactive)
REMARK    1  A    between atoms: C_8  and  C_6 
REMARK    2  A    between atoms: C_9  and  C_8 
ROOT
ATOM      1  N   UNL d   1     -50.205  13.044  23.332  0.00  0.00    -0.207 NA
ATOM      2  N   UNL d   1     -48.592  13.122  22.898  0.00  0.00    -0.240 NA
ATOM      3  C   UNL d   1     -49.615  12.474  23.282  0.00  0.00     0.297 A 
ATOM      4  C   UNL d   1     -50.161  13.851  23.173  0.00  0.00     0.086 A 
ATOM      5  C   UNL d   1     -48.779  13.917  22.801  0.00  0.00     0.083 A 
ATOM      6  C   UNL d   1     -49.081  12.510  23.137  0.00  0.00     0.144 A 
ATOM      7  C   UNL d   1     -49.506  14.292  22.922  0.00  0.00     0.035 A 
ATOM      8  O   UNL d   1     -49.864  11.764  23.477  0.00  0.00    -0.264 OA
ATOM      9  C   UNL d   1     -49.578  15.101  22.793  0.00  0.00     0.003 A 
ATOM     10  C   UNL d   1     -48.128  14.351  22.552  0.00  0.00     0.019 A 
ATOM     11  C   UNL d   1     -50.891  14.228  23.294  0.00  0.00     0.019 A 
ATOM     12  C   UNL d   1     -50.961  15.044  23.164  0.00  0.00     0.002 A 
ATOM     13  C   UNL d   1     -48.200  15.159  22.424  0.00  0.00     0.002 A 
ATOM     14  C   UNL d   1     -48.927  15.535  22.544  0.00  0.00     0.000 A 
ATOM     15  C   UNL d   1     -50.302  15.474  22.914  0.00  0.00     0.000 A 
ENDROOT
BRANCH   6  16
ATOM     16  C   UNL d   1     -49.010  11.698  23.267  0.00  0.00     0.088 C 
BRANCH  16  17
ATOM     17  C   UNL d   1     -48.294  11.299  23.106  0.00  0.00     0.299 C 
ATOM     18  O   UNL d   1     -48.162  11.002  22.351  0.00  0.00    -0.264 OA
ATOM     19  N   UNL d   1     -47.722  11.203  23.696  0.00  0.00    -0.102 N 
ENDBRANCH  16  17
ENDBRANCH   6  16
TORSDOF 2
ENDMDL
