MODEL 1
REMARK VINA RESULT:      -6.7      0.000      0.000
REMARK  3 active torsions:
REMARK  status: ('A' for Active; 'I' for Inactive)
REMARK    1  A    between atoms: C_6  and  C_2 
REMARK    2  A    between atoms: O_7  and  C_6 
REMARK    3  A    between atoms: C_8  and  O_7 
ROOT
ATOM      1  N   UNL d   1     -49.690  13.626  23.329  0.00  0.00    -0.224 NA
ATOM      2  C   UNL d   1     -48.903  13.759  23.120  0.00  0.00     0.188 A 
ATOM      3  N   UNL d   1     -48.808  14.592  23.003  0.00  0.00    -0.224 NA
ATOM      4  C   UNL d   1     -50.079  14.372  23.343  0.00  0.00     0.101 A 
ATOM      5  C   UNL d   1     -49.539  14.965  23.143  0.00  0.00     0.101 A 
ATOM      6  C   UNL d   1     -50.862  14.570  23.515  0.00  0.00     0.021 A 
ATOM      7  C   UNL d   1     -49.782  15.753  23.116  0.00  0.00     0.021 A 
ATOM      8  C   UNL d   1     -51.064  15.318  23.482  0.00  0.00     0.002 A 
ATOM      9  C   UNL d   1     -50.524  15.911  23.282  0.00  0.00     0.002 A 
ENDROOT
BRANCH   2  10
ATOM     10  C   UNL d   1     -48.676  12.990  23.149  0.00  0.00     0.161 C 
BRANCH  10  11
ATOM     11  O   UNL d   1     -47.877  12.806  23.219  0.00  0.00    -0.302 OA
BRANCH  11  12
ATOM     12  C   UNL d   1     -47.278  12.251  23.335  0.00  0.00     0.100 A 
ATOM     13  C   UNL d   1     -46.491  12.460  23.203  0.00  0.00     0.026 A 
ATOM     14  C   UNL d   1     -45.895  11.908  23.317  0.00  0.00     0.013 A 
ATOM     15  C   UNL d   1     -46.079  11.141  23.566  0.00  0.00     0.058 A 
ATOM     16  C   UNL d   1     -46.871  10.933  23.698  0.00  0.00     0.013 A 
ATOM     17 CL   UNL d   1     -45.484  10.589  23.681  0.00  0.00    -0.082 Cl
ATOM     18  C   UNL d   1     -47.467  11.485  23.583  0.00  0.00     0.026 A 
ENDBRANCH  11  12
ENDBRANCH  10  11
ENDBRANCH   2  10
TORSDOF 3
ENDMDL
MODEL 2
REMARK VINA RESULT:      -5.9      1.591      2.263
REMARK  3 active torsions:
REMARK  status: ('A' for Active; 'I' for Inactive)
REMARK    1  A    between atoms: C_6  and  C_2 
REMARK    2  A    between atoms: O_7  and  C_6 
REMARK    3  A    between atoms: C_8  and  O_7 
ROOT
ATOM      1  N   UNL d   1     -48.933  13.390  23.305  0.00  0.00    -0.224 NA
ATOM      2  C   UNL d   1     -48.415  12.748  23.277  0.00  0.00     0.188 A 
ATOM      3  N   UNL d   1     -48.874  12.046  23.396  0.00  0.00    -0.224 NA
ATOM      4  C   UNL d   1     -49.706  13.087  23.441  0.00  0.00     0.101 A 
ATOM      5  C   UNL d   1     -49.670  12.264  23.496  0.00  0.00     0.101 A 
ATOM      6  C   UNL d   1     -50.431  13.474  23.518  0.00  0.00     0.021 A 
ATOM      7  C   UNL d   1     -50.359  11.829  23.629  0.00  0.00     0.021 A 
ATOM      8  C   UNL d   1     -51.064  13.041  23.643  0.00  0.00     0.002 A 
ATOM      9  C   UNL d   1     -51.028  12.218  23.698  0.00  0.00     0.002 A 
ENDROOT
BRANCH   2  10
ATOM     10  C   UNL d   1     -47.751  13.179  23.148  0.00  0.00     0.161 C 
BRANCH  10  11
ATOM     11  O   UNL d   1     -47.039  12.793  23.003  0.00  0.00    -0.302 OA
BRANCH  11  12
ATOM     12  C   UNL d   1     -46.268  12.799  22.710  0.00  0.00     0.100 A 
ATOM     13  C   UNL d   1     -46.009  13.429  22.243  0.00  0.00     0.026 A 
ATOM     14  C   UNL d   1     -45.242  13.435  21.952  0.00  0.00     0.013 A 
ATOM     15  C   UNL d   1     -44.726  12.813  22.123  0.00  0.00     0.058 A 
ATOM     16  C   UNL d   1     -44.988  12.181  22.592  0.00  0.00     0.013 A 
ATOM     17 CL   UNL d   1     -43.959  12.819  21.832  0.00  0.00    -0.082 Cl
ATOM     18  C   UNL d   1     -45.755  12.174  22.884  0.00  0.00     0.026 A 
ENDBRANCH  11  12
ENDBRANCH  10  11
ENDBRANCH   2  10
TORSDOF 3
ENDMDL
MODEL 3
REMARK VINA RESULT:      -5.7      1.319      1.878
REMARK  3 active torsions:
REMARK  status: ('A' for Active; 'I' for Inactive)
REMARK    1  A    between atoms: C_6  and  C_2 
REMARK    2  A    between atoms: O_7  and  C_6 
REMARK    3  A    between atoms: C_8  and  O_7 
ROOT
ATOM      1  N   UNL d   1     -47.298  14.078  22.746  0.00  0.00    -0.224 NA
ATOM      2  C   UNL d   1     -47.363  13.257  22.696  0.00  0.00     0.188 A 
ATOM      3  N   UNL d   1     -48.171  13.076  22.517  0.00  0.00    -0.224 NA
ATOM      4  C   UNL d   1     -48.060  14.403  22.600  0.00  0.00     0.101 A 
ATOM      5  C   UNL d   1     -48.595  13.790  22.460  0.00  0.00     0.101 A 
ATOM      6  C   UNL d   1     -48.318  15.187  22.580  0.00  0.00     0.021 A 
ATOM      7  C   UNL d   1     -49.386  13.961  22.300  0.00  0.00     0.021 A 
ATOM      8  C   UNL d   1     -49.067  15.320  22.428  0.00  0.00     0.002 A 
ATOM      9  C   UNL d   1     -49.602  14.707  22.288  0.00  0.00     0.002 A 
ENDROOT
BRANCH   2  10
ATOM     10  C   UNL d   1     -46.592  13.100  22.851  0.00  0.00     0.161 C 
BRANCH  10  11
ATOM     11  O   UNL d   1     -46.372  12.344  23.092  0.00  0.00    -0.302 OA
BRANCH  11  12
ATOM     12  C   UNL d   1     -45.793  11.766  23.195  0.00  0.00     0.100 A 
ATOM     13  C   UNL d   1     -45.033  11.886  22.900  0.00  0.00     0.026 A 
ATOM     14  C   UNL d   1     -44.457  11.311  23.002  0.00  0.00     0.013 A 
ATOM     15  C   UNL d   1     -44.635  10.609  23.402  0.00  0.00     0.058 A 
ATOM     16  C   UNL d   1     -45.401  10.490  23.698  0.00  0.00     0.013 A 
ATOM     17 CL   UNL d   1     -44.060  10.034  23.504  0.00  0.00    -0.082 Cl
ATOM     18  C   UNL d   1     -45.976  11.065  23.595  0.00  0.00     0.026 A 
ENDBRANCH  11  12
ENDBRANCH  10  11
ENDBRANCH   2  10
TORSDOF 3
ENDMDL
MODEL 4
REMARK VINA RESULT:      -5.7      2.292      4.891
REMARK  3 active torsions:
REMARK  status: ('A' for Active; 'I' for Inactive)
REMARK    1  A    between atoms: C_6  and  C_2 
REMARK    2  A    between atoms: O_7  and  C_6 
REMARK    3  A    between atoms: C_8  and  O_7 
ROOT
ATOM      1  N   UNL d   1     -46.209  13.820  22.282  0.00  0.00    -0.224 NA
ATOM      2  C   UNL d   1     -46.764  13.581  22.843  0.00  0.00     0.188 A 
ATOM      3  N   UNL d   1     -46.483  12.861  23.189  0.00  0.00    -0.224 NA
ATOM      4  C   UNL d   1     -45.588  13.252  22.281  0.00  0.00     0.101 A 
ATOM      5  C   UNL d   1     -45.756  12.664  22.836  0.00  0.00     0.101 A 
ATOM      6  C   UNL d   1     -44.895  13.211  21.834  0.00  0.00     0.021 A 
ATOM      7  C   UNL d   1     -45.231  12.037  22.944  0.00  0.00     0.021 A 
ATOM      8  C   UNL d   1     -44.418  12.611  21.956  0.00  0.00     0.002 A 
ATOM      9  C   UNL d   1     -44.586  12.023  22.512  0.00  0.00     0.002 A 
ENDROOT
BRANCH   2  10
ATOM     10  C   UNL d   1     -47.269  14.194  22.731  0.00  0.00     0.161 C 
BRANCH  10  11
ATOM     11  O   UNL d   1     -48.059  14.114  22.946  0.00  0.00    -0.302 OA
BRANCH  11  12
ATOM     12  C   UNL d   1     -48.812  14.438  23.042  0.00  0.00     0.100 A 
ATOM     13  C   UNL d   1     -49.431  13.970  23.321  0.00  0.00     0.026 A 
ATOM     14  C   UNL d   1     -50.179  14.292  23.417  0.00  0.00     0.013 A 
ATOM     15  C   UNL d   1     -50.317  15.087  23.234  0.00  0.00     0.058 A 
ATOM     16  C   UNL d   1     -49.693  15.556  22.953  0.00  0.00     0.013 A 
ATOM     17 CL   UNL d   1     -51.064  15.409  23.329  0.00  0.00    -0.082 Cl
ATOM     18  C   UNL d   1     -48.945  15.234  22.858  0.00  0.00     0.026 A 
ENDBRANCH  11  12
ENDBRANCH  10  11
ENDBRANCH   2  10
TORSDOF 3
ENDMDL
MODEL 5
REMARK VINA RESULT:      -5.4      9.369      9.761
REMARK  3 active torsions:
REMARK  status: ('A' for Active; 'I' for Inactive)
REMARK    1  A    between atoms: C_6  and  C_2 
REMARK    2  A    between atoms: O_7  and  C_6 
REMARK    3  A    between atoms: C_8  and  O_7 
ROOT
ATOM      1  N   UNL d   1     -40.411  15.240  19.218  0.00  0.00    -0.224 NA
ATOM      2  C   UNL d   1     -40.000  14.531  19.313  0.00  0.00     0.188 A 
ATOM      3  N   UNL d   1     -39.923  14.177  18.547  0.00  0.00    -0.224 NA
ATOM      4  C   UNL d   1     -40.587  15.324  18.399  0.00  0.00     0.101 A 
ATOM      5  C   UNL d   1     -40.288  14.673  17.988  0.00  0.00     0.101 A 
ATOM      6  C   UNL d   1     -40.985  15.922  17.992  0.00  0.00     0.021 A 
ATOM      7  C   UNL d   1     -40.388  14.621  17.170  0.00  0.00     0.021 A 
ATOM      8  C   UNL d   1     -41.064  15.848  17.223  0.00  0.00     0.002 A 
ATOM      9  C   UNL d   1     -40.765  15.197  16.812  0.00  0.00     0.002 A 
ENDROOT
BRANCH   2  10
ATOM     10  C   UNL d   1     -39.909  14.590  20.107  0.00  0.00     0.161 C 
BRANCH  10  11
ATOM     11  O   UNL d   1     -39.404  14.071  20.497  0.00  0.00    -0.302 OA
BRANCH  11  12
ATOM     12  C   UNL d   1     -39.037  13.813  21.190  0.00  0.00     0.100 A 
ATOM     13  C   UNL d   1     -38.315  13.416  21.152  0.00  0.00     0.026 A 
ATOM     14  C   UNL d   1     -37.951  13.160  21.841  0.00  0.00     0.013 A 
ATOM     15  C   UNL d   1     -38.304  13.298  22.575  0.00  0.00     0.058 A 
ATOM     16  C   UNL d   1     -39.030  13.697  22.611  0.00  0.00     0.013 A 
ATOM     17 CL   UNL d   1     -37.940  13.042  23.264  0.00  0.00    -0.082 Cl
ATOM     18  C   UNL d   1     -39.395  13.953  21.923  0.00  0.00     0.026 A 
ENDBRANCH  11  12
ENDBRANCH  10  11
ENDBRANCH   2  10
TORSDOF 3
ENDMDL
MODEL 6
REMARK VINA RESULT:      -5.1      9.468     10.910
REMARK  3 active torsions:
REMARK  status: ('A' for Active; 'I' for Inactive)
REMARK    1  A    between atoms: C_6  and  C_2 
REMARK    2  A    between atoms: O_7  and  C_6 
REMARK    3  A    between atoms: C_8  and  O_7 
ROOT
ATOM      1  N   UNL d   1     -40.176  15.517  19.186  0.00  0.00    -0.224 NA
ATOM      2  C   UNL d   1     -39.387  15.397  18.979  0.00  0.00     0.188 A 
ATOM      3  N   UNL d   1     -38.925  15.466  19.685  0.00  0.00    -0.224 NA
ATOM      4  C   UNL d   1     -40.203  15.659  20.016  0.00  0.00     0.101 A 
ATOM      5  C   UNL d   1     -39.436  15.628  20.321  0.00  0.00     0.101 A 
ATOM      6  C   UNL d   1     -40.840  15.811  20.517  0.00  0.00     0.021 A 
ATOM      7  C   UNL d   1     -39.309  15.749  21.128  0.00  0.00     0.021 A 
ATOM      8  C   UNL d   1     -40.693  15.922  21.271  0.00  0.00     0.002 A 
ATOM      9  C   UNL d   1     -39.926  15.891  21.577  0.00  0.00     0.002 A 
ENDROOT
BRANCH   2  10
ATOM     10  C   UNL d   1     -39.521  15.280  18.197  0.00  0.00     0.161 C 
BRANCH  10  11
ATOM     11  O   UNL d   1     -38.932  14.942  17.731  0.00  0.00    -0.302 OA
BRANCH  11  12
ATOM     12  C   UNL d   1     -38.684  14.622  17.012  0.00  0.00     0.100 A 
ATOM     13  C   UNL d   1     -38.535  13.814  16.950  0.00  0.00     0.026 A 
ATOM     14  C   UNL d   1     -38.287  13.496  16.236  0.00  0.00     0.013 A 
ATOM     15  C   UNL d   1     -38.187  13.982  15.575  0.00  0.00     0.058 A 
ATOM     16  C   UNL d   1     -38.337  14.796  15.640  0.00  0.00     0.013 A 
ATOM     17 CL   UNL d   1     -37.940  13.664  14.861  0.00  0.00    -0.082 Cl
ATOM     18  C   UNL d   1     -38.584  15.114  16.354  0.00  0.00     0.026 A 
ENDBRANCH  11  12
ENDBRANCH  10  11
ENDBRANCH   2  10
TORSDOF 3
ENDMDL
