MODEL 1
REMARK VINA RESULT:      78.0      0.000      0.000
REMARK  3 active torsions:
REMARK  status: ('A' for Active; 'I' for Inactive)
REMARK       I    between atoms: N_3  and  C_8 
REMARK    1  A    between atoms: S_12  and  C_6 
REMARK    2  A    between atoms: C_8  and  C_14 
REMARK    3  A    between atoms: C_14  and  S_12 
ROOT
ATOM      1  S   UNL d   1      59.749  49.000  51.239  0.00  0.00    -0.060 SA
ENDROOT
BRANCH   1   2
ATOM      2  C   UNL d   1      60.400  48.985  50.736  0.00  0.00     0.137 A 
ATOM      3  C   UNL d   1      60.753  48.275  50.537  0.00  0.00     0.141 A 
ATOM      4  O   UNL d   1      60.586  47.497  50.748  0.00  0.00    -0.303 OA
ATOM      5  C   UNL d   1      61.403  48.272  50.034  0.00  0.00     0.110 A 
ATOM      6  C   UNL d   1      61.136  47.018  50.372  0.00  0.00     0.102 A 
ATOM      7  C   UNL d   1      61.248  46.194  50.371  0.00  0.00     0.025 A 
ATOM      8  C   UNL d   1      61.638  47.494  49.934  0.00  0.00     0.043 A 
ATOM      9  C   UNL d   1      61.857  45.861  49.935  0.00  0.00     0.002 A 
ATOM     10  C   UNL d   1      62.358  46.338  49.497  0.00  0.00     0.000 A 
ATOM     11  C   UNL d   1      62.252  47.155  49.494  0.00  0.00     0.004 A 
ATOM     12  N   UNL d   1      61.699  48.976  49.732  0.00  0.00    -0.222 NA
ATOM     13  C   UNL d   1      61.346  49.684  49.931  0.00  0.00     0.200 A 
ATOM     14  N   UNL d   1      60.694  49.700  50.434  0.00  0.00    -0.215 NA
ENDBRANCH   1   2
BRANCH   1  15
ATOM     15  C   UNL d   1      59.072  49.395  51.022  0.00  0.00     0.098 C 
BRANCH  15  16
ATOM     16  C   UNL d   1      58.435  49.467  51.550  0.00  0.00     0.271 C 
ATOM     17  N   UNL d   1      57.661  49.541  51.265  0.00  0.00    -0.273 N 
ATOM     18  C   UNL d   1      57.519  49.544  50.458  0.00  0.00     0.067 A 
ATOM     19  C   UNL d   1      57.024  49.614  51.796  0.00  0.00     0.083 A 
ATOM     20  C   UNL d   1      56.749  49.618  50.169  0.00  0.00     0.016 A 
ATOM     21  C   UNL d   1      58.151  49.473  49.931  0.00  0.00     0.018 A 
ATOM     22  C   UNL d   1      56.597  49.622  49.352  0.00  0.00     0.001 A 
ATOM     23  C   UNL d   1      56.117  49.690  50.696  0.00  0.00     0.003 A 
ATOM     24  C   UNL d   1      57.239  49.550  48.831  0.00  0.00     0.000 A 
ATOM     25  C   UNL d   1      58.009  49.476  49.115  0.00  0.00     0.002 A 
ATOM     26  C   UNL d   1      56.254  49.687  51.503  0.00  0.00     0.019 A 
ATOM     27  O   UNL d   1      58.578  49.464  52.365  0.00  0.00    -0.266 OA
ENDBRANCH  15  16
ENDBRANCH   1  15
TORSDOF 3
ENDMDL
MODEL 2
REMARK VINA RESULT:      79.9      1.657      2.574
REMARK  3 active torsions:
REMARK  status: ('A' for Active; 'I' for Inactive)
REMARK       I    between atoms: N_3  and  C_8 
REMARK    1  A    between atoms: S_12  and  C_6 
REMARK    2  A    between atoms: C_8  and  C_14 
REMARK    3  A    between atoms: C_14  and  S_12 
ROOT
ATOM      1  S   UNL d   1      59.368  48.963  51.008  0.00  0.00    -0.060 SA
ENDROOT
BRANCH   1   2
ATOM      2  C   UNL d   1      60.186  48.888  50.964  0.00  0.00     0.137 A 
ATOM      3  C   UNL d   1      60.655  49.070  51.609  0.00  0.00     0.141 A 
ATOM      4  O   UNL d   1      60.472  49.337  52.365  0.00  0.00    -0.303 OA
ATOM      5  C   UNL d   1      61.471  48.990  51.553  0.00  0.00     0.110 A 
ATOM      6  C   UNL d   1      61.179  49.422  52.773  0.00  0.00     0.102 A 
ATOM      7  C   UNL d   1      61.350  49.669  53.548  0.00  0.00     0.025 A 
ATOM      8  C   UNL d   1      61.793  49.208  52.273  0.00  0.00     0.043 A 
ATOM      9  C   UNL d   1      62.126  49.700  53.810  0.00  0.00     0.002 A 
ATOM     10  C   UNL d   1      62.738  49.486  53.310  0.00  0.00     0.000 A 
ATOM     11  C   UNL d   1      62.576  49.240  52.540  0.00  0.00     0.004 A 
ATOM     12  N   UNL d   1      61.817  48.731  50.855  0.00  0.00    -0.222 NA
ATOM     13  C   UNL d   1      61.348  48.549  50.212  0.00  0.00     0.200 A 
ATOM     14  N   UNL d   1      60.530  48.624  50.255  0.00  0.00    -0.215 NA
ENDBRANCH   1   2
BRANCH   1  15
ATOM     15  C   UNL d   1      59.002  49.636  50.734  0.00  0.00     0.098 C 
BRANCH  15  16
ATOM     16  C   UNL d   1      58.646  49.650  49.984  0.00  0.00     0.271 C 
ATOM     17  N   UNL d   1      57.821  49.667  49.912  0.00  0.00    -0.273 N 
ATOM     18  C   UNL d   1      57.350  49.671  50.582  0.00  0.00     0.067 A 
ATOM     19  C   UNL d   1      57.466  49.681  49.159  0.00  0.00     0.083 A 
ATOM     20  C   UNL d   1      56.527  49.688  50.516  0.00  0.00     0.016 A 
ATOM     21  C   UNL d   1      57.702  49.657  51.330  0.00  0.00     0.018 A 
ATOM     22  C   UNL d   1      56.044  49.692  51.191  0.00  0.00     0.001 A 
ATOM     23  C   UNL d   1      56.175  49.702  49.769  0.00  0.00     0.003 A 
ATOM     24  C   UNL d   1      56.407  49.678  51.938  0.00  0.00     0.000 A 
ATOM     25  C   UNL d   1      57.228  49.660  52.009  0.00  0.00     0.002 A 
ATOM     26  C   UNL d   1      56.642  49.699  49.096  0.00  0.00     0.019 A 
ATOM     27  O   UNL d   1      59.121  49.646  49.306  0.00  0.00    -0.266 OA
ENDBRANCH  15  16
ENDBRANCH   1  15
TORSDOF 3
ENDMDL
