MODEL 1
REMARK VINA RESULT:      -2.8      0.000      0.000
REMARK  3 active torsions:
REMARK  status: ('A' for Active; 'I' for Inactive)
REMARK    1  A    between atoms: N_6  and  C_2 
REMARK    2  A    between atoms: C_8  and  C_5 
REMARK    3  A    between atoms: C_9  and  N_7 
ROOT
ATOM      1  N   UNL d   1      33.031  19.491 -22.839  0.00  0.00    -0.281 N 
ATOM      2  N   UNL d   1      33.100  20.834 -21.900  0.00  0.00    -0.301 N 
ATOM      3  C   UNL d   1      33.078  19.413 -22.018  0.00  0.00     0.101 A 
ATOM      4  C   UNL d   1      33.019  20.245 -23.188  0.00  0.00     0.101 A 
ATOM      5  C   UNL d   1      33.053  20.904 -22.712  0.00  0.00     0.100 A 
ATOM      6  C   UNL d   1      33.112  20.081 -21.555  0.00  0.00     0.100 A 
ENDROOT
BRANCH   1   7
ATOM      7  C   UNL d   1      32.996  18.813 -23.310  0.00  0.00     0.183 A 
ATOM      8  N   UNL d   1      33.206  18.756 -24.101  0.00  0.00    -0.183 NA
ATOM      9  C   UNL d   1      33.083  17.977 -24.348  0.00  0.00     0.287 A 
ATOM     10  C   UNL d   1      32.794  17.554 -23.698  0.00  0.00     0.090 A 
ATOM     11  O   UNL d   1      33.222  17.681 -25.096  0.00  0.00    -0.265 OA
ATOM     12  S   UNL d   1      32.739  18.063 -23.057  0.00  0.00    -0.045 SA
BRANCH  10  13
ATOM     13  C   UNL d   1      32.596  16.753 -23.701  0.00  0.00     0.011 C 
ATOM     14  C   UNL d   1      31.827  16.509 -23.882  0.00  0.00     0.001 C 
ATOM     15  C   UNL d   1      33.170  16.188 -23.522  0.00  0.00     0.001 C 
ENDBRANCH  10  13
ENDBRANCH   1   7
BRANCH   2  16
ATOM     16  C   UNL d   1      33.135  21.511 -21.424  0.00  0.00     0.064 A 
ATOM     17  C   UNL d   1      33.102  21.433 -20.604  0.00  0.00     0.018 A 
ATOM     18  C   UNL d   1      33.137  22.111 -20.131  0.00  0.00     0.002 A 
ATOM     19  C   UNL d   1      33.204  22.856 -20.474  0.00  0.00     0.000 A 
ATOM     20  C   UNL d   1      33.236  22.925 -21.300  0.00  0.00     0.002 A 
ATOM     21  C   UNL d   1      33.239  23.531 -20.002  0.00  0.00     0.000 C 
ATOM     22  C   UNL d   1      33.202  22.248 -21.777  0.00  0.00     0.018 A 
ENDBRANCH   2  16
TORSDOF 3
ENDMDL
MODEL 2
REMARK VINA RESULT:      -2.7      1.832      5.127
REMARK  3 active torsions:
REMARK  status: ('A' for Active; 'I' for Inactive)
REMARK    1  A    between atoms: N_6  and  C_2 
REMARK    2  A    between atoms: C_8  and  C_5 
REMARK    3  A    between atoms: C_9  and  N_7 
ROOT
ATOM      1  N   UNL d   1      33.071  20.810 -22.272  0.00  0.00    -0.281 N 
ATOM      2  N   UNL d   1      33.118  19.327 -22.972  0.00  0.00    -0.301 N 
ATOM      3  C   UNL d   1      32.946  20.137 -21.810  0.00  0.00     0.101 A 
ATOM      4  C   UNL d   1      33.220  20.738 -23.087  0.00  0.00     0.101 A 
ATOM      5  C   UNL d   1      33.241  19.997 -23.423  0.00  0.00     0.100 A 
ATOM      6  C   UNL d   1      32.971  19.403 -22.161  0.00  0.00     0.100 A 
ENDROOT
BRANCH   1   7
ATOM      7  C   UNL d   1      33.047  21.556 -21.918  0.00  0.00     0.183 A 
ATOM      8  N   UNL d   1      33.221  22.273 -22.275  0.00  0.00    -0.183 NA
ATOM      9  C   UNL d   1      33.124  22.874 -21.716  0.00  0.00     0.287 A 
ATOM     10  C   UNL d   1      32.887  22.517 -21.008  0.00  0.00     0.090 A 
ATOM     11  O   UNL d   1      33.241  23.673 -21.841  0.00  0.00    -0.265 OA
ATOM     12  S   UNL d   1      32.838  21.706 -21.126  0.00  0.00    -0.045 SA
BRANCH  10  13
ATOM     13  C   UNL d   1      32.729  22.916 -20.303  0.00  0.00     0.011 C 
ATOM     14  C   UNL d   1      33.233  22.840 -19.653  0.00  0.00     0.001 C 
ATOM     15  C   UNL d   1      32.060  23.396 -20.246  0.00  0.00     0.001 C 
ENDBRANCH  10  13
ENDBRANCH   1   7
BRANCH   2  16
ATOM     16  C   UNL d   1      33.142  18.578 -23.323  0.00  0.00     0.064 A 
ATOM     17  C   UNL d   1      33.203  18.516 -24.144  0.00  0.00     0.018 A 
ATOM     18  C   UNL d   1      33.226  17.765 -24.492  0.00  0.00     0.002 A 
ATOM     19  C   UNL d   1      33.189  17.088 -24.027  0.00  0.00     0.000 A 
ATOM     20  C   UNL d   1      33.127  17.160 -23.203  0.00  0.00     0.002 A 
ATOM     21  C   UNL d   1      33.212  16.340 -24.375  0.00  0.00     0.000 C 
ATOM     22  C   UNL d   1      33.104  17.909 -22.850  0.00  0.00     0.018 A 
ENDBRANCH   2  16
TORSDOF 3
ENDMDL
MODEL 3
REMARK VINA RESULT:      -2.4      0.852      1.453
REMARK  3 active torsions:
REMARK  status: ('A' for Active; 'I' for Inactive)
REMARK    1  A    between atoms: N_6  and  C_2 
REMARK    2  A    between atoms: C_8  and  C_5 
REMARK    3  A    between atoms: C_9  and  N_7 
ROOT
ATOM      1  N   UNL d   1      32.650  18.544 -23.134  0.00  0.00    -0.281 N 
ATOM      2  N   UNL d   1      32.844  19.864 -22.181  0.00  0.00    -0.301 N 
ATOM      3  C   UNL d   1      32.246  19.240 -23.316  0.00  0.00     0.101 A 
ATOM      4  C   UNL d   1      33.152  18.510 -22.473  0.00  0.00     0.101 A 
ATOM      5  C   UNL d   1      33.241  19.171 -22.007  0.00  0.00     0.100 A 
ATOM      6  C   UNL d   1      32.345  19.894 -22.840  0.00  0.00     0.100 A 
ENDROOT
BRANCH   1   7
ATOM      7  C   UNL d   1      32.551  17.879 -23.616  0.00  0.00     0.183 A 
ATOM      8  N   UNL d   1      33.121  17.529 -24.090  0.00  0.00    -0.183 NA
ATOM      9  C   UNL d   1      32.780  16.881 -24.473  0.00  0.00     0.287 A 
ATOM     10  C   UNL d   1      31.990  16.836 -24.228  0.00  0.00     0.090 A 
ATOM     11  O   UNL d   1      33.155  16.379 -24.997  0.00  0.00    -0.265 OA
ATOM     12  S   UNL d   1      31.844  17.448 -23.701  0.00  0.00    -0.045 SA
BRANCH  10  13
ATOM     13  C   UNL d   1      31.446  16.268 -24.478  0.00  0.00     0.011 C 
ATOM     14  C   UNL d   1      30.833  16.469 -24.994  0.00  0.00     0.001 C 
ATOM     15  C   UNL d   1      31.514  15.491 -24.209  0.00  0.00     0.001 C 
ENDBRANCH  10  13
ENDBRANCH   1   7
BRANCH   2  16
ATOM     16  C   UNL d   1      32.941  20.532 -21.701  0.00  0.00     0.064 A 
ATOM     17  C   UNL d   1      33.067  21.268 -22.050  0.00  0.00     0.018 A 
ATOM     18  C   UNL d   1      33.164  21.934 -21.568  0.00  0.00     0.002 A 
ATOM     19  C   UNL d   1      33.134  21.863 -20.749  0.00  0.00     0.000 A 
ATOM     20  C   UNL d   1      33.007  21.118 -20.406  0.00  0.00     0.002 A 
ATOM     21  C   UNL d   1      33.231  22.527 -20.268  0.00  0.00     0.000 C 
ATOM     22  C   UNL d   1      32.910  20.450 -20.885  0.00  0.00     0.018 A 
ENDBRANCH   2  16
TORSDOF 3
ENDMDL
MODEL 4
REMARK VINA RESULT:      -1.2      2.113      5.244
REMARK  3 active torsions:
REMARK  status: ('A' for Active; 'I' for Inactive)
REMARK    1  A    between atoms: N_6  and  C_2 
REMARK    2  A    between atoms: C_8  and  C_5 
REMARK    3  A    between atoms: C_9  and  N_7 
ROOT
ATOM      1  N   UNL d   1      32.897  20.895 -21.235  0.00  0.00    -0.281 N 
ATOM      2  N   UNL d   1      32.911  19.568 -22.198  0.00  0.00    -0.301 N 
ATOM      3  C   UNL d   1      33.236  20.195 -20.959  0.00  0.00     0.101 A 
ATOM      4  C   UNL d   1      32.565  20.930 -21.996  0.00  0.00     0.101 A 
ATOM      5  C   UNL d   1      32.577  20.265 -22.465  0.00  0.00     0.100 A 
ATOM      6  C   UNL d   1      33.241  19.538 -21.440  0.00  0.00     0.100 A 
ENDROOT
BRANCH   1   7
ATOM      7  C   UNL d   1      32.892  21.564 -20.748  0.00  0.00     0.183 A 
ATOM      8  N   UNL d   1      32.775  22.340 -20.984  0.00  0.00    -0.183 NA
ATOM      9  C   UNL d   1      32.814  22.825 -20.316  0.00  0.00     0.287 A 
ATOM     10  C   UNL d   1      32.956  22.335 -19.663  0.00  0.00     0.090 A 
ATOM     11  O   UNL d   1      32.728  23.637 -20.303  0.00  0.00    -0.265 OA
ATOM     12  S   UNL d   1      33.004  21.559 -19.923  0.00  0.00    -0.045 SA
BRANCH  10  13
ATOM     13  C   UNL d   1      33.034  22.593 -18.883  0.00  0.00     0.011 C 
ATOM     14  C   UNL d   1      33.241  22.064 -18.283  0.00  0.00     0.001 C 
ATOM     15  C   UNL d   1      32.906  23.387 -18.699  0.00  0.00     0.001 C 
ENDBRANCH  10  13
ENDBRANCH   1   7
BRANCH   2  16
ATOM     16  C   UNL d   1      32.918  18.897 -22.683  0.00  0.00     0.064 A 
ATOM     17  C   UNL d   1      32.616  18.946 -23.449  0.00  0.00     0.018 A 
ATOM     18  C   UNL d   1      32.624  18.274 -23.931  0.00  0.00     0.002 A 
ATOM     19  C   UNL d   1      32.932  17.564 -23.651  0.00  0.00     0.000 A 
ATOM     20  C   UNL d   1      33.234  17.524 -22.880  0.00  0.00     0.002 A 
ATOM     21  C   UNL d   1      32.941  16.894 -24.133  0.00  0.00     0.000 C 
ATOM     22  C   UNL d   1      33.227  18.195 -22.394  0.00  0.00     0.018 A 
ENDBRANCH   2  16
TORSDOF 3
ENDMDL
MODEL 5
REMARK VINA RESULT:      -1.0      2.838      4.164
REMARK  3 active torsions:
REMARK  status: ('A' for Active; 'I' for Inactive)
REMARK    1  A    between atoms: N_6  and  C_2 
REMARK    2  A    between atoms: C_8  and  C_5 
REMARK    3  A    between atoms: C_9  and  N_7 
ROOT
ATOM      1  N   UNL d   1      32.889  22.274 -20.826  0.00  0.00    -0.281 N 
ATOM      2  N   UNL d   1      32.868  22.647 -19.229  0.00  0.00    -0.301 N 
ATOM      3  C   UNL d   1      32.542  22.981 -20.577  0.00  0.00     0.101 A 
ATOM      4  C   UNL d   1      33.226  21.754 -20.272  0.00  0.00     0.101 A 
ATOM      5  C   UNL d   1      33.210  21.950 -19.482  0.00  0.00     0.100 A 
ATOM      6  C   UNL d   1      32.533  23.162 -19.784  0.00  0.00     0.100 A 
ENDROOT
BRANCH   1   7
ATOM      7  C   UNL d   1      32.899  22.088 -21.632  0.00  0.00     0.183 A 
ATOM      8  N   UNL d   1      32.967  21.340 -21.959  0.00  0.00    -0.183 NA
ATOM      9  C   UNL d   1      32.952  21.413 -22.783  0.00  0.00     0.287 A 
ATOM     10  C   UNL d   1      32.874  22.219 -22.957  0.00  0.00     0.090 A 
ATOM     11  O   UNL d   1      33.005  20.802 -23.322  0.00  0.00    -0.265 OA
ATOM     12  S   UNL d   1      32.841  22.638 -22.253  0.00  0.00    -0.045 SA
BRANCH  10  13
ATOM     13  C   UNL d   1      32.837  22.539 -23.717  0.00  0.00     0.011 C 
ATOM     14  C   UNL d   1      33.121  22.116 -24.368  0.00  0.00     0.001 C 
ATOM     15  C   UNL d   1      32.513  23.290 -23.829  0.00  0.00     0.001 C 
ENDBRANCH  10  13
ENDBRANCH   1   7
BRANCH   2  16
ATOM     16  C   UNL d   1      32.856  22.837 -18.423  0.00  0.00     0.064 A 
ATOM     17  C   UNL d   1      32.458  23.515 -18.172  0.00  0.00     0.018 A 
ATOM     18  C   UNL d   1      32.448  23.702 -17.365  0.00  0.00     0.002 A 
ATOM     19  C   UNL d   1      32.830  23.218 -16.820  0.00  0.00     0.000 A 
ATOM     20  C   UNL d   1      33.227  22.539 -17.082  0.00  0.00     0.002 A 
ATOM     21  C   UNL d   1      32.819  23.406 -16.017  0.00  0.00     0.000 C 
ATOM     22  C   UNL d   1      33.239  22.348 -17.888  0.00  0.00     0.018 A 
ENDBRANCH   2  16
TORSDOF 3
ENDMDL
MODEL 6
REMARK VINA RESULT:      -0.8      1.412      2.181
REMARK  3 active torsions:
REMARK  status: ('A' for Active; 'I' for Inactive)
REMARK    1  A    between atoms: N_6  and  C_2 
REMARK    2  A    between atoms: C_8  and  C_5 
REMARK    3  A    between atoms: C_9  and  N_7 
ROOT
ATOM      1  N   UNL d   1      32.950  20.473 -21.564  0.00  0.00    -0.281 N 
ATOM      2  N   UNL d   1      32.954  21.541 -20.319  0.00  0.00    -0.301 N 
ATOM      3  C   UNL d   1      32.669  21.240 -21.684  0.00  0.00     0.101 A 
ATOM      4  C   UNL d   1      33.233  20.242 -20.818  0.00  0.00     0.101 A 
ATOM      5  C   UNL d   1      33.231  20.781 -20.207  0.00  0.00     0.100 A 
ATOM      6  C   UNL d   1      32.673  21.768 -21.064  0.00  0.00     0.100 A 
ENDROOT
BRANCH   1   7
ATOM      7  C   UNL d   1      32.947  19.936 -22.193  0.00  0.00     0.183 A 
ATOM      8  N   UNL d   1      32.980  19.119 -22.137  0.00  0.00    -0.183 NA
ATOM      9  C   UNL d   1      32.963  18.805 -22.902  0.00  0.00     0.287 A 
ATOM     10  C   UNL d   1      32.921  19.441 -23.430  0.00  0.00     0.090 A 
ATOM     11  O   UNL d   1      32.986  18.012 -23.098  0.00  0.00    -0.265 OA
ATOM     12  S   UNL d   1      32.910  20.139 -22.998  0.00  0.00    -0.045 SA
BRANCH  10  13
ATOM     13  C   UNL d   1      32.893  19.376 -24.252  0.00  0.00     0.011 C 
ATOM     14  C   UNL d   1      33.240  18.732 -24.636  0.00  0.00     0.001 C 
ATOM     15  C   UNL d   1      32.516  19.960 -24.696  0.00  0.00     0.001 C 
ENDBRANCH  10  13
ENDBRANCH   1   7
BRANCH   2  16
ATOM     16  C   UNL d   1      32.956  22.082 -19.692  0.00  0.00     0.064 A 
ATOM     17  C   UNL d   1      33.031  21.806 -18.919  0.00  0.00     0.018 A 
ATOM     18  C   UNL d   1      33.032  22.349 -18.294  0.00  0.00     0.002 A 
ATOM     19  C   UNL d   1      32.959  23.155 -18.442  0.00  0.00     0.000 A 
ATOM     20  C   UNL d   1      32.884  23.423 -19.223  0.00  0.00     0.002 A 
ATOM     21  C   UNL d   1      32.960  23.696 -17.818  0.00  0.00     0.000 C 
ATOM     22  C   UNL d   1      32.883  22.883 -19.851  0.00  0.00     0.018 A 
ENDBRANCH   2  16
TORSDOF 3
ENDMDL
