MODEL 1
REMARK VINA RESULT:      53.4      0.000      0.000
REMARK  7 active torsions:
REMARK  status: ('A' for Active; 'I' for Inactive)
REMARK    1  A    between atoms: N_2  and  S_1 
REMARK    2  A    between atoms: C_5  and  S_1 
REMARK    3  A    between atoms: C_3  and  N_2 
REMARK    4  A    between atoms: C_4  and  C_3 
REMARK    5  A    between atoms: C_13  and  C_3 
REMARK    6  A    between atoms: C_9  and  C_8 
REMARK    7  A    between atoms: O_22  and  C_19 
ROOT
ATOM      1  C   UNL d   1     -55.111-101.787 -41.323  0.00  0.00     0.105 A 
ATOM      2  C   UNL d   1     -55.113-100.779 -42.625  0.00  0.00     0.000 A 
ATOM      3  C   UNL d   1     -54.782-101.035 -41.259  0.00  0.00     0.013 A 
ATOM      4  C   UNL d   1     -55.440-102.035 -42.038  0.00  0.00     0.013 A 
ATOM      5  C   UNL d   1     -55.441-101.531 -42.688  0.00  0.00     0.001 A 
ATOM      6  C   UNL d   1     -54.783-100.531 -41.911  0.00  0.00     0.001 A 
ENDROOT
BRANCH   1   7
ATOM      7  S   UNL d   1     -55.111-102.301 -40.663  0.00  0.00     0.285 S 
ATOM      8  O   UNL d   1     -55.509-102.877 -41.116  0.00  0.00    -0.198 OA
ATOM      9  O   UNL d   1     -54.712-101.719 -40.216  0.00  0.00    -0.198 OA
BRANCH   7  10
ATOM     10  N   UNL d   1     -55.110-102.809 -40.010  0.00  0.00    -0.152 NA
BRANCH  10  11
ATOM     11  C   UNL d   1     -55.737-102.789 -39.464  0.00  0.00     0.158 C 
BRANCH  11  12
ATOM     12  C   UNL d   1     -56.516-102.811 -39.733  0.00  0.00     0.230 C 
ATOM     13  O   UNL d   1     -56.672-102.878 -40.538  0.00  0.00    -0.643 OA
ATOM     14  O   UNL d   1     -57.139-102.766 -39.196  0.00  0.00    -0.643 OA
ENDBRANCH  11  12
BRANCH  11  15
ATOM     15  C   UNL d   1     -55.579-102.747 -38.657  0.00  0.00     0.025 C 
ATOM     16  C   UNL d   1     -54.794-102.783 -38.382  0.00  0.00     0.002 C 
ATOM     17  C   UNL d   1     -56.201-102.670 -38.122  0.00  0.00     0.002 C 
ENDBRANCH  11  15
ENDBRANCH  10  11
ENDBRANCH   7  10
ENDBRANCH   1   7
BRANCH   2  18
ATOM     18  C   UNL d   1     -55.114-100.275 -43.275  0.00  0.00     0.000 A 
ATOM     19  C   UNL d   1     -55.414 -99.512 -43.203  0.00  0.00     0.002 A 
ATOM     20  C   UNL d   1     -55.417 -99.000 -43.857  0.00  0.00     0.024 A 
ATOM     21  C   UNL d   1     -55.115 -99.262 -44.588  0.00  0.00     0.094 A 
ATOM     22  C   UNL d   1     -54.813-100.032 -44.658  0.00  0.00     0.024 A 
ATOM     23  C   UNL d   1     -54.812-100.537 -44.006  0.00  0.00     0.002 A 
BRANCH  21  24
ATOM     24  O   UNL d   1     -55.115 -98.756 -45.244  0.00  0.00    -0.328 OA
ATOM     25  C   UNL d   1     -54.715 -98.976 -45.943  0.00  0.00     0.181 C 
ENDBRANCH  21  24
ENDBRANCH   2  18
TORSDOF 7
ENDMDL
