MODEL 1
REMARK VINA RESULT:      -3.1      0.000      0.000
REMARK  5 active torsions:
REMARK  status: ('A' for Active; 'I' for Inactive)
REMARK       I    between atoms: N_2  and  C_5 
REMARK    1  A    between atoms: C_3  and  N_2 
REMARK    2  A    between atoms: C_14  and  C_4 
REMARK    3  A    between atoms: C_5  and  C_13 
REMARK    4  A    between atoms: C_17  and  C_6 
REMARK    5  A    between atoms: C_13  and  C_14 
ROOT
ATOM      1  N   UNL d   1      31.179  15.734 -24.123  0.00  0.00    -0.208 NA
ATOM      2  C   UNL d   1      31.920  16.001 -23.910  0.00  0.00     0.279 C 
ATOM      3  O   UNL d   1      32.531  15.459 -23.763  0.00  0.00    -0.265 OA
ENDROOT
BRANCH   2   4
ATOM      4  C   UNL d   1      32.064  16.810 -23.840  0.00  0.00     0.065 C 
BRANCH   4   5
ATOM      5  C   UNL d   1      32.811  17.081 -23.617  0.00  0.00     0.030 C 
BRANCH   5   6
ATOM      6  C   UNL d   1      32.925  17.874 -23.437  0.00  0.00     0.100 A 
ATOM      7  O   UNL d   1      32.774  18.242 -22.707  0.00  0.00    -0.307 OA
ATOM      8  C   UNL d   1      32.965  19.033 -22.774  0.00  0.00     0.100 A 
ATOM      9  C   UNL d   1      33.235  19.169 -23.542  0.00  0.00     0.027 A 
ATOM     10  C   UNL d   1      33.209  18.452 -23.947  0.00  0.00     0.027 A 
BRANCH   8  11
ATOM     11  C   UNL d   1      32.898  19.593 -22.177  0.00  0.00     0.025 C 
ATOM     12  C   UNL d   1      33.239  20.341 -22.273  0.00  0.00     0.002 C 
ENDBRANCH   8  11
ENDBRANCH   5   6
ENDBRANCH   4   5
ENDBRANCH   2   4
BRANCH   1  13
ATOM     13  C   UNL d   1      30.571  16.274 -24.269  0.00  0.00     0.085 A 
ATOM     14  C   UNL d   1      29.898  16.268 -23.797  0.00  0.00     0.018 A 
ATOM     15  C   UNL d   1      29.294  16.805 -23.943  0.00  0.00     0.002 A 
ATOM     16  C   UNL d   1      29.833  15.721 -23.179  0.00  0.00     0.002 C 
ATOM     17  C   UNL d   1      29.365  17.347 -24.561  0.00  0.00     0.000 A 
ATOM     18  C   UNL d   1      30.038  17.354 -25.033  0.00  0.00     0.002 A 
ATOM     19  C   UNL d   1      28.754  17.889 -24.707  0.00  0.00     0.000 C 
ATOM     20  C   UNL d   1      30.647  16.807 -24.881  0.00  0.00     0.019 A 
ENDBRANCH   1  13
TORSDOF 5
ENDMDL
MODEL 2
REMARK VINA RESULT:      -2.3      1.326      3.727
REMARK  5 active torsions:
REMARK  status: ('A' for Active; 'I' for Inactive)
REMARK       I    between atoms: N_2  and  C_5 
REMARK    1  A    between atoms: C_3  and  N_2 
REMARK    2  A    between atoms: C_14  and  C_4 
REMARK    3  A    between atoms: C_5  and  C_13 
REMARK    4  A    between atoms: C_17  and  C_6 
REMARK    5  A    between atoms: C_13  and  C_14 
ROOT
ATOM      1  N   UNL d   1      33.241  16.894 -23.286  0.00  0.00    -0.208 NA
ATOM      2  C   UNL d   1      32.714  16.271 -23.253  0.00  0.00     0.279 C 
ATOM      3  O   UNL d   1      32.895  15.596 -22.806  0.00  0.00    -0.265 OA
ENDROOT
BRANCH   2   4
ATOM      4  C   UNL d   1      32.000  16.311 -23.664  0.00  0.00     0.065 C 
BRANCH   4   5
ATOM      5  C   UNL d   1      31.486  15.666 -23.667  0.00  0.00     0.030 C 
BRANCH   5   6
ATOM      6  C   UNL d   1      30.691  15.773 -23.843  0.00  0.00     0.100 A 
ATOM      7  O   UNL d   1      30.123  16.140 -23.359  0.00  0.00    -0.307 OA
ATOM      8  C   UNL d   1      29.406  16.126 -23.751  0.00  0.00     0.100 A 
ATOM      9  C   UNL d   1      29.516  15.755 -24.479  0.00  0.00     0.027 A 
ATOM     10  C   UNL d   1      30.310  15.539 -24.532  0.00  0.00     0.027 A 
BRANCH   8  11
ATOM     11  C   UNL d   1      28.700  16.432 -23.464  0.00  0.00     0.025 C 
ATOM     12  C   UNL d   1      27.980  16.103 -23.706  0.00  0.00     0.002 C 
ENDBRANCH   8  11
ENDBRANCH   5   6
ENDBRANCH   4   5
ENDBRANCH   2   4
BRANCH   1  13
ATOM     13  C   UNL d   1      33.060  17.566 -23.732  0.00  0.00     0.085 A 
ATOM     14  C   UNL d   1      32.958  18.289 -23.355  0.00  0.00     0.018 A 
ATOM     15  C   UNL d   1      32.778  18.957 -23.799  0.00  0.00     0.002 A 
ATOM     16  C   UNL d   1      33.036  18.341 -22.533  0.00  0.00     0.002 C 
ATOM     17  C   UNL d   1      32.701  18.898 -24.618  0.00  0.00     0.000 A 
ATOM     18  C   UNL d   1      32.803  18.175 -24.995  0.00  0.00     0.002 A 
ATOM     19  C   UNL d   1      32.519  19.574 -25.065  0.00  0.00     0.000 C 
ATOM     20  C   UNL d   1      32.985  17.502 -24.540  0.00  0.00     0.019 A 
ENDBRANCH   1  13
TORSDOF 5
ENDMDL
MODEL 3
REMARK VINA RESULT:      -1.3      2.214      4.950
REMARK  5 active torsions:
REMARK  status: ('A' for Active; 'I' for Inactive)
REMARK       I    between atoms: N_2  and  C_5 
REMARK    1  A    between atoms: C_3  and  N_2 
REMARK    2  A    between atoms: C_14  and  C_4 
REMARK    3  A    between atoms: C_5  and  C_13 
REMARK    4  A    between atoms: C_17  and  C_6 
REMARK    5  A    between atoms: C_13  and  C_14 
ROOT
ATOM      1  N   UNL d   1      33.006  20.776 -21.007  0.00  0.00    -0.208 NA
ATOM      2  C   UNL d   1      33.074  20.034 -21.341  0.00  0.00     0.279 C 
ATOM      3  O   UNL d   1      33.217  19.373 -20.860  0.00  0.00    -0.265 OA
ENDROOT
BRANCH   2   4
ATOM      4  C   UNL d   1      33.002  19.940 -22.157  0.00  0.00     0.065 C 
BRANCH   4   5
ATOM      5  C   UNL d   1      33.241  19.236 -22.516  0.00  0.00     0.030 C 
BRANCH   5   6
ATOM      6  C   UNL d   1      32.874  18.979 -23.204  0.00  0.00     0.100 A 
ATOM      7  O   UNL d   1      32.158  18.559 -23.254  0.00  0.00    -0.307 OA
ATOM      8  C   UNL d   1      31.999  18.417 -24.043  0.00  0.00     0.100 A 
ATOM      9  C   UNL d   1      32.608  18.745 -24.492  0.00  0.00     0.027 A 
ATOM     10  C   UNL d   1      33.145  19.090 -23.971  0.00  0.00     0.027 A 
BRANCH   8  11
ATOM     11  C   UNL d   1      31.343  18.017 -24.333  0.00  0.00     0.025 C 
ATOM     12  C   UNL d   1      31.406  17.573 -25.029  0.00  0.00     0.002 C 
ENDBRANCH   8  11
ENDBRANCH   5   6
ENDBRANCH   4   5
ENDBRANCH   2   4
BRANCH   1  13
ATOM     13  C   UNL d   1      32.864  21.434 -21.486  0.00  0.00     0.085 A 
ATOM     14  C   UNL d   1      32.347  22.020 -21.231  0.00  0.00     0.018 A 
ATOM     15  C   UNL d   1      32.207  22.674 -21.709  0.00  0.00     0.002 A 
ATOM     16  C   UNL d   1      31.972  21.948 -20.497  0.00  0.00     0.002 C 
ATOM     17  C   UNL d   1      32.584  22.739 -22.439  0.00  0.00     0.000 A 
ATOM     18  C   UNL d   1      33.102  22.153 -22.694  0.00  0.00     0.002 A 
ATOM     19  C   UNL d   1      32.441  23.401 -22.920  0.00  0.00     0.000 C 
ATOM     20  C   UNL d   1      33.240  21.493 -22.207  0.00  0.00     0.019 A 
ENDBRANCH   1  13
TORSDOF 5
ENDMDL
MODEL 4
REMARK VINA RESULT:      -0.2      1.322      3.981
REMARK  5 active torsions:
REMARK  status: ('A' for Active; 'I' for Inactive)
REMARK       I    between atoms: N_2  and  C_5 
REMARK    1  A    between atoms: C_3  and  N_2 
REMARK    2  A    between atoms: C_14  and  C_4 
REMARK    3  A    between atoms: C_5  and  C_13 
REMARK    4  A    between atoms: C_17  and  C_6 
REMARK    5  A    between atoms: C_13  and  C_14 
ROOT
ATOM      1  N   UNL d   1      33.195  18.452 -22.692  0.00  0.00    -0.208 NA
ATOM      2  C   UNL d   1      32.781  17.757 -22.806  0.00  0.00     0.279 C 
ATOM      3  O   UNL d   1      32.771  17.177 -22.214  0.00  0.00    -0.265 OA
ENDROOT
BRANCH   2   4
ATOM      4  C   UNL d   1      32.372  17.632 -23.511  0.00  0.00     0.065 C 
BRANCH   4   5
ATOM      5  C   UNL d   1      32.141  16.869 -23.727  0.00  0.00     0.030 C 
BRANCH   5   6
ATOM      6  C   UNL d   1      31.466  16.756 -24.180  0.00  0.00     0.100 A 
ATOM      7  O   UNL d   1      30.876  17.320 -24.336  0.00  0.00    -0.307 OA
ATOM      8  C   UNL d   1      30.307  16.972 -24.809  0.00  0.00     0.100 A 
ATOM      9  C   UNL d   1      30.533  16.192 -24.952  0.00  0.00     0.027 A 
ATOM     10  C   UNL d   1      31.247  16.063 -24.562  0.00  0.00     0.027 A 
BRANCH   8  11
ATOM     11  C   UNL d   1      29.630  17.341 -25.090  0.00  0.00     0.025 C 
ATOM     12  C   UNL d   1      28.886  17.011 -24.934  0.00  0.00     0.002 C 
ENDBRANCH   8  11
ENDBRANCH   5   6
ENDBRANCH   4   5
ENDBRANCH   2   4
BRANCH   1  13
ATOM     13  C   UNL d   1      33.205  19.030 -23.282  0.00  0.00     0.085 A 
ATOM     14  C   UNL d   1      33.204  19.825 -23.073  0.00  0.00     0.018 A 
ATOM     15  C   UNL d   1      33.213  20.400 -23.661  0.00  0.00     0.002 A 
ATOM     16  C   UNL d   1      33.193  20.042 -22.275  0.00  0.00     0.002 C 
ATOM     17  C   UNL d   1      33.223  20.176 -24.455  0.00  0.00     0.000 A 
ATOM     18  C   UNL d   1      33.224  19.381 -24.664  0.00  0.00     0.002 A 
ATOM     19  C   UNL d   1      33.233  20.758 -25.047  0.00  0.00     0.000 C 
ATOM     20  C   UNL d   1      33.215  18.804 -24.064  0.00  0.00     0.019 A 
ENDBRANCH   1  13
TORSDOF 5
ENDMDL
