MODEL 1
REMARK VINA RESULT:      -8.4      0.000      0.000
REMARK  3 active torsions:
REMARK  status: ('A' for Active; 'I' for Inactive)
REMARK       I    between atoms: N_2  and  C_1 
REMARK    1  A    between atoms: C_9  and  C_1 
REMARK    2  A    between atoms: C_6  and  N_5 
REMARK    3  A    between atoms: N_8  and  C_7 
ROOT
ATOM      1  C   UNL d   1     -48.622  15.051  22.726  0.00  0.00     0.265 C 
ATOM      2  N   UNL d   1     -48.059  14.456  22.819  0.00  0.00    -0.269 N 
ATOM      3  N   UNL d   1     -46.937  13.265  23.005  0.00  0.00    -0.285 N 
ATOM      4  C   UNL d   1     -48.308  13.681  22.983  0.00  0.00     0.102 A 
ATOM      5  C   UNL d   1     -47.257  14.630  22.749  0.00  0.00     0.102 A 
ATOM      6  C   UNL d   1     -47.742  13.083  23.077  0.00  0.00     0.101 A 
ATOM      7  C   UNL d   1     -46.689  14.042  22.840  0.00  0.00     0.101 A 
ATOM      8  O   UNL d   1     -48.383  15.830  22.561  0.00  0.00    -0.267 OA
ENDROOT
BRANCH   3   9
ATOM      9  C   UNL d   1     -46.371  12.668  23.098  0.00  0.00     0.170 A 
ATOM     10  N   UNL d   1     -45.652  12.722  22.706  0.00  0.00    -0.129 NA
ATOM     11  N   UNL d   1     -45.090  12.128  22.799  0.00  0.00    -0.129 NA
ATOM     12  C   UNL d   1     -45.243  11.472  23.287  0.00  0.00     0.170 A 
ATOM     13  C   UNL d   1     -45.969  11.428  23.677  0.00  0.00     0.042 A 
ATOM     14  C   UNL d   1     -46.532  12.022  23.584  0.00  0.00     0.042 A 
BRANCH  12  15
ATOM     15  N   UNL d   1     -44.680  10.878  23.380  0.00  0.00    -0.284 N 
ATOM     16  C   UNL d   1     -43.882  11.037  23.248  0.00  0.00     0.108 A 
ATOM     17  C   UNL d   1     -43.319  10.443  23.341  0.00  0.00     0.142 A 
ATOM     18  O   UNL d   1     -43.558   9.693  23.565  0.00  0.00    -0.300 OA
ATOM     19  C   UNL d   1     -44.349   9.528  23.698  0.00  0.00     0.142 A 
ATOM     20  C   UNL d   1     -44.923  10.116  23.608  0.00  0.00     0.108 A 
ENDBRANCH  12  15
ENDBRANCH   3   9
BRANCH   1  21
ATOM     21  C   UNL d   1     -49.430  14.883  22.795  0.00  0.00     0.057 A 
ATOM     22  C   UNL d   1     -49.854  14.573  22.154  0.00  0.00     0.005 A 
ATOM     23  C   UNL d   1     -50.653  14.407  22.226  0.00  0.00     0.000 A 
ATOM     24  C   UNL d   1     -51.064  14.100  21.582  0.00  0.00     0.000 C 
ATOM     25  C   UNL d   1     -51.028  14.555  22.947  0.00  0.00     0.000 A 
ATOM     26  C   UNL d   1     -50.613  14.864  23.593  0.00  0.00     0.000 A 
ATOM     27  C   UNL d   1     -49.815  15.025  23.508  0.00  0.00     0.005 A 
ENDBRANCH   1  21
TORSDOF 3
ENDMDL
MODEL 2
REMARK VINA RESULT:      -7.8      1.365      1.888
REMARK  3 active torsions:
REMARK  status: ('A' for Active; 'I' for Inactive)
REMARK       I    between atoms: N_2  and  C_1 
REMARK    1  A    between atoms: C_9  and  C_1 
REMARK    2  A    between atoms: C_6  and  N_5 
REMARK    3  A    between atoms: N_8  and  C_7 
ROOT
ATOM      1  C   UNL d   1     -50.373  12.938  23.300  0.00  0.00     0.265 C 
ATOM      2  N   UNL d   1     -49.595  12.664  23.309  0.00  0.00    -0.269 N 
ATOM      3  N   UNL d   1     -48.040  12.122  23.326  0.00  0.00    -0.285 N 
ATOM      4  C   UNL d   1     -48.999  13.115  22.945  0.00  0.00     0.102 A 
ATOM      5  C   UNL d   1     -49.410  11.951  23.676  0.00  0.00     0.102 A 
ATOM      6  C   UNL d   1     -48.218  12.841  22.954  0.00  0.00     0.101 A 
ATOM      7  C   UNL d   1     -48.636  11.671  23.690  0.00  0.00     0.101 A 
ATOM      8  O   UNL d   1     -50.975  12.494  23.662  0.00  0.00    -0.267 OA
ENDROOT
BRANCH   3   9
ATOM      9  C   UNL d   1     -47.259  11.848  23.335  0.00  0.00     0.170 A 
ATOM     10  N   UNL d   1     -46.638  12.384  23.337  0.00  0.00    -0.129 NA
ATOM     11  N   UNL d   1     -45.861  12.111  23.346  0.00  0.00    -0.129 NA
ATOM     12  C   UNL d   1     -45.699  11.295  23.354  0.00  0.00     0.170 A 
ATOM     13  C   UNL d   1     -46.331  10.764  23.352  0.00  0.00     0.042 A 
ATOM     14  C   UNL d   1     -47.108  11.037  23.342  0.00  0.00     0.042 A 
BRANCH  12  15
ATOM     15  N   UNL d   1     -44.922  11.022  23.363  0.00  0.00    -0.284 N 
ATOM     16  C   UNL d   1     -44.744  10.285  23.687  0.00  0.00     0.108 A 
ATOM     17  C   UNL d   1     -43.967  10.012  23.696  0.00  0.00     0.142 A 
ATOM     18  O   UNL d   1     -43.372  10.478  23.381  0.00  0.00    -0.300 OA
ATOM     19  C   UNL d   1     -43.542  11.211  23.058  0.00  0.00     0.142 A 
ATOM     20  C   UNL d   1     -44.318  11.496  23.043  0.00  0.00     0.108 A 
ENDBRANCH  12  15
ENDBRANCH   3   9
BRANCH   1  21
ATOM     21  C   UNL d   1     -50.564  13.654  22.933  0.00  0.00     0.057 A 
ATOM     22  C   UNL d   1     -50.539  14.366  23.355  0.00  0.00     0.005 A 
ATOM     23  C   UNL d   1     -50.729  15.074  22.988  0.00  0.00     0.000 A 
ATOM     24  C   UNL d   1     -50.700  15.776  23.418  0.00  0.00     0.000 C 
ATOM     25  C   UNL d   1     -50.947  15.065  22.191  0.00  0.00     0.000 A 
ATOM     26  C   UNL d   1     -50.975  14.358  21.762  0.00  0.00     0.000 A 
ATOM     27  C   UNL d   1     -50.783  13.659  22.139  0.00  0.00     0.005 A 
ENDBRANCH   1  21
TORSDOF 3
ENDMDL
