MODEL 1
REMARK VINA RESULT:      39.0      0.000      0.000
REMARK  4 active torsions:
REMARK  status: ('A' for Active; 'I' for Inactive)
REMARK    1  A    between atoms: C_8  and  C_1 
REMARK    2  A    between atoms: S_4  and  N_7 
REMARK    3  A    between atoms: C_14  and  S_4 
REMARK    4  A    between atoms: N_7  and  C_13 
ROOT
ATOM      1  C   UNL d   1     -51.763  24.719  33.549  0.00  0.00     0.025 A 
ATOM      2  C   UNL d   1     -52.572  24.623  33.465  0.00  0.00     0.022 A 
ATOM      3  C   UNL d   1     -52.905  23.872  33.467  0.00  0.00     0.094 A 
ATOM      4  C   UNL d   1     -51.264  24.064  33.639  0.00  0.00     0.002 A 
ATOM      5  C   UNL d   1     -51.585  23.311  33.642  0.00  0.00     0.002 A 
ATOM      6  C   UNL d   1     -52.414  23.215  33.556  0.00  0.00     0.020 A 
ENDROOT
BRANCH   1   7
ATOM      7  C   UNL d   1     -51.431  25.479  33.547  0.00  0.00     0.112 A 
ATOM      8  S   UNL d   1     -50.640  25.665  33.359  0.00  0.00    -0.047 SA
ATOM      9  C   UNL d   1     -50.534  26.490  33.423  0.00  0.00     0.130 A 
ATOM     10  N   UNL d   1     -49.893  26.985  33.310  0.00  0.00    -0.236 NA
ATOM     11  C   UNL d   1     -51.272  26.813  33.654  0.00  0.00     0.106 A 
ATOM     12  C   UNL d   1     -49.968  27.795  33.420  0.00  0.00     0.100 A 
ATOM     13  C   UNL d   1     -50.692  28.120  33.647  0.00  0.00     0.022 A 
ATOM     14  C   UNL d   1     -51.343  27.633  33.764  0.00  0.00     0.023 A 
ATOM     15  N   UNL d   1     -51.822  26.194  33.730  0.00  0.00    -0.237 NA
ENDBRANCH   1   7
BRANCH   3  16
ATOM     16  N   UNL d   1     -53.713  23.771  33.383  0.00  0.00    -0.158 NA
BRANCH  16  17
ATOM     17  S   UNL d   1     -54.173  23.559  34.035  0.00  0.00     0.286 S 
ATOM     18  O   UNL d   1     -53.489  23.482  34.495  0.00  0.00    -0.198 OA
ATOM     19  O   UNL d   1     -54.856  23.636  33.578  0.00  0.00    -0.198 OA
BRANCH  17  20
ATOM     20  C   UNL d   1     -54.636  23.349  34.679  0.00  0.00     0.117 C 
ATOM     21  C   UNL d   1     -54.284  23.195  35.411  0.00  0.00     0.014 C 
ENDBRANCH  17  20
ENDBRANCH  16  17
ENDBRANCH   3  16
TORSDOF 4
ENDMDL
