MODEL 1
REMARK VINA RESULT:      -5.5      0.000      0.000
REMARK  4 active torsions:
REMARK  status: ('A' for Active; 'I' for Inactive)
REMARK    1  A    between atoms: N_3  and  C_8 
REMARK    2  A    between atoms: S_11  and  C_4 
REMARK    3  A    between atoms: C_15  and  S_11 
REMARK    4  A    between atoms: C_16  and  C_15 
ROOT
ATOM      1  C   UNL d   1      57.209  -0.262  31.365  0.00  0.00     0.037 C 
ENDROOT
BRANCH   1   2
ATOM      2  S   UNL d   1      57.604   0.381  31.042  0.00  0.00    -0.067 SA
BRANCH   2   3
ATOM      3  C   UNL d   1      58.162   0.259  30.443  0.00  0.00     0.117 A 
ATOM      4  N   UNL d   1      57.948  -0.122  29.752  0.00  0.00    -0.184 NA
ATOM      5  C   UNL d   1      58.506  -0.244  29.153  0.00  0.00     0.369 A 
ATOM      6  N   UNL d   1      59.276   0.015  29.247  0.00  0.00    -0.191 NA
ATOM      7  O   UNL d   1      58.286  -0.628  28.457  0.00  0.00    -0.242 OA
ATOM      8  C   UNL d   1      59.495   0.399  29.943  0.00  0.00     0.088 A 
ATOM      9  C   UNL d   1      58.937   0.522  30.542  0.00  0.00     0.045 A 
ATOM     10  C   UNL d   1      60.276   0.665  30.046  0.00  0.00     0.021 C 
ENDBRANCH   2   3
ENDBRANCH   1   2
BRANCH   1  11
ATOM     11  C   UNL d   1      56.687  -0.165  31.991  0.00  0.00     0.007 A 
ATOM     12  C   UNL d   1      56.447   0.589  32.235  0.00  0.00     0.002 A 
ATOM     13  C   UNL d   1      55.930   0.682  32.856  0.00  0.00     0.024 A 
ATOM     14  C   UNL d   1      55.642   0.018  33.247  0.00  0.00     0.127 A 
ATOM     15  C   UNL d   1      55.871  -0.725  33.015  0.00  0.00     0.024 A 
ATOM     16  C   UNL d   1      56.396  -0.830  32.386  0.00  0.00     0.002 A 
BRANCH  14  17
ATOM     17  N   UNL d   1      55.118   0.102  33.877  0.00  0.00    -0.114 N 
ATOM     18  O   UNL d   1      54.316   0.229  33.739  0.00  0.00    -0.532 OA
ATOM     19  O   UNL d   1      55.402   0.059  34.650  0.00  0.00    -0.532 OA
ENDBRANCH  14  17
ENDBRANCH   1  11
TORSDOF 4
ENDMDL
MODEL 2
REMARK VINA RESULT:      -4.3      1.480      4.984
REMARK  4 active torsions:
REMARK  status: ('A' for Active; 'I' for Inactive)
REMARK    1  A    between atoms: N_3  and  C_8 
REMARK    2  A    between atoms: S_11  and  C_4 
REMARK    3  A    between atoms: C_15  and  S_11 
REMARK    4  A    between atoms: C_16  and  C_15 
ROOT
ATOM      1  C   UNL d   1      56.262  -0.020  32.657  0.00  0.00     0.037 C 
ENDROOT
BRANCH   1   2
ATOM      2  S   UNL d   1      56.160   0.681  33.072  0.00  0.00    -0.067 SA
BRANCH   2   3
ATOM      3  C   UNL d   1      55.719   0.682  33.771  0.00  0.00     0.117 A 
ATOM      4  N   UNL d   1      56.095   0.682  34.497  0.00  0.00    -0.184 NA
ATOM      5  C   UNL d   1      55.653   0.682  35.196  0.00  0.00     0.369 A 
ATOM      6  N   UNL d   1      54.836   0.682  35.169  0.00  0.00    -0.191 NA
ATOM      7  O   UNL d   1      56.036   0.682  35.927  0.00  0.00    -0.242 OA
ATOM      8  C   UNL d   1      54.453   0.682  34.438  0.00  0.00     0.088 A 
ATOM      9  C   UNL d   1      54.894   0.682  33.739  0.00  0.00     0.045 A 
ATOM     10  C   UNL d   1      53.622   0.682  34.402  0.00  0.00     0.021 C 
ENDBRANCH   2   3
ENDBRANCH   1   2
BRANCH   1  11
ATOM     11  C   UNL d   1      56.758  -0.055  32.004  0.00  0.00     0.007 A 
ATOM     12  C   UNL d   1      57.022   0.635  31.630  0.00  0.00     0.002 A 
ATOM     13  C   UNL d   1      57.514   0.596  30.983  0.00  0.00     0.024 A 
ATOM     14  C   UNL d   1      57.751  -0.137  30.697  0.00  0.00     0.127 A 
ATOM     15  C   UNL d   1      57.497  -0.818  31.056  0.00  0.00     0.024 A 
ATOM     16  C   UNL d   1      56.998  -0.791  31.713  0.00  0.00     0.002 A 
BRANCH  14  17
ATOM     17  N   UNL d   1      58.249  -0.186  30.042  0.00  0.00    -0.114 N 
ATOM     18  O   UNL d   1      59.048  -0.002  30.110  0.00  0.00    -0.532 OA
ATOM     19  O   UNL d   1      57.940  -0.420  29.314  0.00  0.00    -0.532 OA
ENDBRANCH  14  17
ENDBRANCH   1  11
TORSDOF 4
ENDMDL
MODEL 3
REMARK VINA RESULT:      -2.9      9.904     10.515
REMARK  4 active torsions:
REMARK  status: ('A' for Active; 'I' for Inactive)
REMARK    1  A    between atoms: N_3  and  C_8 
REMARK    2  A    between atoms: S_11  and  C_4 
REMARK    3  A    between atoms: C_15  and  S_11 
REMARK    4  A    between atoms: C_16  and  C_15 
ROOT
ATOM      1  C   UNL d   1      58.853  -9.818  33.300  0.00  0.00     0.037 C 
ENDROOT
BRANCH   1   2
ATOM      2  S   UNL d   1      59.455  -9.298  33.502  0.00  0.00    -0.067 SA
BRANCH   2   3
ATOM      3  C   UNL d   1      59.609  -9.142  34.300  0.00  0.00     0.117 A 
ATOM      4  N   UNL d   1      59.186  -9.527  34.884  0.00  0.00    -0.184 NA
ATOM      5  C   UNL d   1      59.339  -9.371  35.682  0.00  0.00     0.369 A 
ATOM      6  N   UNL d   1      59.916  -8.831  35.894  0.00  0.00    -0.191 NA
ATOM      7  O   UNL d   1      58.910  -9.761  36.269  0.00  0.00    -0.242 OA
ATOM      8  C   UNL d   1      60.344  -8.441  35.307  0.00  0.00     0.088 A 
ATOM      9  C   UNL d   1      60.191  -8.597  34.509  0.00  0.00     0.045 A 
ATOM     10  C   UNL d   1      60.932  -7.890  35.514  0.00  0.00     0.021 C 
ENDBRANCH   2   3
ENDBRANCH   1   2
BRANCH   1  11
ATOM     11  C   UNL d   1      58.528  -9.813  32.546  0.00  0.00     0.007 A 
ATOM     12  C   UNL d   1      59.009  -9.817  31.872  0.00  0.00     0.002 A 
ATOM     13  C   UNL d   1      58.684  -9.813  31.126  0.00  0.00     0.024 A 
ATOM     14  C   UNL d   1      57.866  -9.804  31.040  0.00  0.00     0.127 A 
ATOM     15  C   UNL d   1      57.386  -9.800  31.694  0.00  0.00     0.024 A 
ATOM     16  C   UNL d   1      57.706  -9.804  32.455  0.00  0.00     0.002 A 
BRANCH  14  17
ATOM     17  N   UNL d   1      57.528  -9.799  30.289  0.00  0.00    -0.114 N 
ATOM     18  O   UNL d   1      56.710  -9.814  30.199  0.00  0.00    -0.532 OA
ATOM     19  O   UNL d   1      58.017  -9.780  29.625  0.00  0.00    -0.532 OA
ENDBRANCH  14  17
ENDBRANCH   1  11
TORSDOF 4
ENDMDL
