MODEL 1
REMARK VINA RESULT:       9.3      0.000      0.000
REMARK  3 active torsions:
REMARK  status: ('A' for Active; 'I' for Inactive)
REMARK    1  A    between atoms: C_6  and  C_1 
REMARK    2  A    between atoms: O_10  and  C_6 
REMARK    3  A    between atoms: C_13  and  O_10 
ROOT
ATOM      1  C   UNL d   1      45.421 -14.866  44.663  0.00  0.00     0.121 A 
ATOM      2  C   UNL d   1      44.911 -14.407  44.205  0.00  0.00     0.204 A 
ATOM      3  C   UNL d   1      46.135 -14.547  44.932  0.00  0.00     0.107 A 
ATOM      4  C   UNL d   1      45.114 -13.630  44.016  0.00  0.00     0.057 A 
ATOM      5  N   UNL d   1      46.336 -13.764  44.740  0.00  0.00    -0.244 NA
ATOM      6  C   UNL d   1      45.826 -13.305  44.282  0.00  0.00     0.085 A 
ATOM      7  O   UNL d   1      44.198 -14.730  43.938  0.00  0.00    -0.286 OA
ATOM      8  C   UNL d   1      44.600 -13.173  43.557  0.00  0.00     0.005 A 
ATOM      9  C   UNL d   1      46.027 -12.536  44.096  0.00  0.00     0.019 A 
ATOM     10  C   UNL d   1      44.808 -12.399  43.372  0.00  0.00     0.000 A 
ATOM     11  C   UNL d   1      45.522 -12.080  43.641  0.00  0.00     0.002 A 
ENDROOT
BRANCH   1  12
ATOM     12  C   UNL d   1      45.226 -15.644  44.857  0.00  0.00     0.305 C 
ATOM     13  O   UNL d   1      44.432 -15.851  44.952  0.00  0.00    -0.259 OA
BRANCH  12  14
ATOM     14  O   UNL d   1      45.820 -16.210  44.954  0.00  0.00    -0.271 OA
BRANCH  14  15
ATOM     15  C   UNL d   1      45.635 -17.015  44.921  0.00  0.00     0.126 C 
ATOM     16  C   UNL d   1      46.190 -17.551  44.627  0.00  0.00     0.029 C 
ENDBRANCH  14  15
ENDBRANCH  12  14
ENDBRANCH   1  12
TORSDOF 3
ENDMDL
MODEL 2
REMARK VINA RESULT:      10.0      4.811      5.933
REMARK  3 active torsions:
REMARK  status: ('A' for Active; 'I' for Inactive)
REMARK    1  A    between atoms: C_6  and  C_1 
REMARK    2  A    between atoms: O_10  and  C_6 
REMARK    3  A    between atoms: C_13  and  O_10 
ROOT
ATOM      1  C   UNL d   1      46.562 -18.904  42.015  0.00  0.00     0.121 A 
ATOM      2  C   UNL d   1      46.522 -19.615  42.430  0.00  0.00     0.204 A 
ATOM      3  C   UNL d   1      46.601 -18.187  42.426  0.00  0.00     0.107 A 
ATOM      4  C   UNL d   1      46.521 -19.611  43.255  0.00  0.00     0.057 A 
ATOM      5  N   UNL d   1      46.599 -18.186  43.257  0.00  0.00    -0.244 NA
ATOM      6  C   UNL d   1      46.559 -18.898  43.672  0.00  0.00     0.085 A 
ATOM      7  O   UNL d   1      46.483 -20.330  42.015  0.00  0.00    -0.286 OA
ATOM      8  C   UNL d   1      46.480 -20.326  43.668  0.00  0.00     0.005 A 
ATOM      9  C   UNL d   1      46.558 -18.894  44.488  0.00  0.00     0.019 A 
ATOM     10  C   UNL d   1      46.479 -20.316  44.490  0.00  0.00     0.000 A 
ATOM     11  C   UNL d   1      46.518 -19.600  44.901  0.00  0.00     0.002 A 
ENDROOT
BRANCH   1  12
ATOM     12  C   UNL d   1      46.564 -18.898  41.190  0.00  0.00     0.305 C 
ATOM     13  O   UNL d   1      46.640 -19.611  40.780  0.00  0.00    -0.259 OA
BRANCH  12  14
ATOM     14  O   UNL d   1      46.491 -18.185  40.778  0.00  0.00    -0.271 OA
BRANCH  14  15
ATOM     15  C   UNL d   1      46.092 -18.164  40.054  0.00  0.00     0.126 C 
ATOM     16  C   UNL d   1      45.503 -17.600  39.927  0.00  0.00     0.029 C 
ENDBRANCH  14  15
ENDBRANCH  12  14
ENDBRANCH   1  12
TORSDOF 3
ENDMDL
MODEL 3
REMARK VINA RESULT:      10.5      7.599      8.178
REMARK  3 active torsions:
REMARK  status: ('A' for Active; 'I' for Inactive)
REMARK    1  A    between atoms: C_6  and  C_1 
REMARK    2  A    between atoms: O_10  and  C_6 
REMARK    3  A    between atoms: C_13  and  O_10 
ROOT
ATOM      1  C   UNL d   1      43.805 -15.433  36.651  0.00  0.00     0.121 A 
ATOM      2  C   UNL d   1      44.545 -15.788  36.574  0.00  0.00     0.204 A 
ATOM      3  C   UNL d   1      43.748 -14.643  36.891  0.00  0.00     0.107 A 
ATOM      4  C   UNL d   1      45.229 -15.355  36.737  0.00  0.00     0.057 A 
ATOM      5  N   UNL d   1      44.439 -14.210  37.054  0.00  0.00    -0.244 NA
ATOM      6  C   UNL d   1      45.179 -14.565  36.977  0.00  0.00     0.085 A 
ATOM      7  O   UNL d   1      44.598 -16.578  36.335  0.00  0.00    -0.286 OA
ATOM      8  C   UNL d   1      45.969 -15.715  36.659  0.00  0.00     0.005 A 
ATOM      9  C   UNL d   1      45.855 -14.137  37.138  0.00  0.00     0.019 A 
ATOM     10  C   UNL d   1      46.647 -15.278  36.822  0.00  0.00     0.000 A 
ATOM     11  C   UNL d   1      46.590 -14.489  37.062  0.00  0.00     0.002 A 
ENDROOT
BRANCH   1  12
ATOM     12  C   UNL d   1      43.117 -15.858  36.491  0.00  0.00     0.305 C 
ATOM     13  O   UNL d   1      43.168 -16.667  36.332  0.00  0.00    -0.259 OA
BRANCH  12  14
ATOM     14  O   UNL d   1      42.383 -15.477  36.490  0.00  0.00    -0.271 OA
BRANCH  14  15
ATOM     15  C   UNL d   1      41.690 -15.913  36.372  0.00  0.00     0.126 C 
ATOM     16  C   UNL d   1      40.963 -15.524  36.335  0.00  0.00     0.029 C 
ENDBRANCH  14  15
ENDBRANCH  12  14
ENDBRANCH   1  12
TORSDOF 3
ENDMDL
MODEL 4
REMARK VINA RESULT:      12.1      2.380      4.891
REMARK  3 active torsions:
REMARK  status: ('A' for Active; 'I' for Inactive)
REMARK    1  A    between atoms: C_6  and  C_1 
REMARK    2  A    between atoms: O_10  and  C_6 
REMARK    3  A    between atoms: C_13  and  O_10 
ROOT
ATOM      1  C   UNL d   1      46.183 -17.636  44.128  0.00  0.00     0.121 A 
ATOM      2  C   UNL d   1      46.281 -17.916  43.358  0.00  0.00     0.204 A 
ATOM      3  C   UNL d   1      46.200 -18.163  44.765  0.00  0.00     0.107 A 
ATOM      4  C   UNL d   1      46.395 -18.721  43.224  0.00  0.00     0.057 A 
ATOM      5  N   UNL d   1      46.316 -18.975  44.626  0.00  0.00    -0.244 NA
ATOM      6  C   UNL d   1      46.413 -19.255  43.856  0.00  0.00     0.085 A 
ATOM      7  O   UNL d   1      46.263 -17.385  42.724  0.00  0.00    -0.286 OA
ATOM      8  C   UNL d   1      46.492 -18.998  42.451  0.00  0.00     0.005 A 
ATOM      9  C   UNL d   1      46.526 -20.052  43.724  0.00  0.00     0.019 A 
ATOM     10  C   UNL d   1      46.606 -19.803  42.324  0.00  0.00     0.000 A 
ATOM     11  C   UNL d   1      46.623 -20.330  42.961  0.00  0.00     0.002 A 
ENDROOT
BRANCH   1  12
ATOM     12  C   UNL d   1      46.069 -16.832  44.271  0.00  0.00     0.305 C 
ATOM     13  O   UNL d   1      46.645 -16.291  44.031  0.00  0.00    -0.259 OA
BRANCH  12  14
ATOM     14  O   UNL d   1      45.383 -16.570  44.651  0.00  0.00    -0.271 OA
BRANCH  14  15
ATOM     15  C   UNL d   1      45.344 -15.802  44.955  0.00  0.00     0.126 C 
ATOM     16  C   UNL d   1      44.654 -15.360  44.863  0.00  0.00     0.029 C 
ENDBRANCH  14  15
ENDBRANCH  12  14
ENDBRANCH   1  12
TORSDOF 3
ENDMDL
