MODEL 1
REMARK VINA RESULT:      -8.1      0.000      0.000
REMARK  6 active torsions:
REMARK  status: ('A' for Active; 'I' for Inactive)
REMARK    1  A    between atoms: C_6  and  C_1 
REMARK    2  A    between atoms: C_8  and  C_4 
REMARK       I    between atoms: N_22  and  C_6 
REMARK    3  A    between atoms: N_9  and  C_23 
REMARK    4  A    between atoms: C_25  and  N_22 
REMARK    5  A    between atoms: C_23  and  C_24 
REMARK    6  A    between atoms: C_24  and  C_25 
ROOT
ATOM      1  C   UNL d   1      50.551  34.470  52.566  0.00  0.00     0.168 A 
ATOM      2  N   UNL d   1      50.947  34.311  51.872  0.00  0.00    -0.121 NA
ATOM      3  C   UNL d   1      50.995  34.149  53.191  0.00  0.00     0.053 A 
ATOM      4  C   UNL d   1      51.659  33.797  52.867  0.00  0.00     0.127 A 
ATOM      5  O   UNL d   1      51.625  33.900  52.051  0.00  0.00    -0.211 OA
ENDROOT
BRANCH   1   6
ATOM      6  C   UNL d   1      49.154  35.259  52.772  0.00  0.00     0.299 C 
ATOM      7  O   UNL d   1      48.972  35.673  53.455  0.00  0.00    -0.263 OA
ATOM      8  N   UNL d   1      48.577  35.244  52.137  0.00  0.00    -0.205 NA
BRANCH   8   9
ATOM      9  C   UNL d   1      47.820  35.662  52.228  0.00  0.00     0.104 C 
BRANCH   9  10
ATOM     10  C   UNL d   1      47.167  35.470  51.706  0.00  0.00     0.040 C 
BRANCH  10  11
ATOM     11  C   UNL d   1      46.460  35.956  51.696  0.00  0.00     0.083 C 
BRANCH  11  12
ATOM     12  N   UNL d   1      45.702  35.618  51.476  0.00  0.00    -0.285 N 
ATOM     13  C   UNL d   1      45.440  35.439  50.680  0.00  0.00     0.183 A 
ATOM     14  N   UNL d   1      44.637  35.107  50.744  0.00  0.00    -0.222 NA
ATOM     15  C   UNL d   1      44.419  35.086  51.550  0.00  0.00     0.120 A 
ATOM     16  C   UNL d   1      45.072  35.401  52.021  0.00  0.00     0.102 A 
ENDBRANCH  11  12
ENDBRANCH  10  11
ENDBRANCH   9  10
ENDBRANCH   8   9
ENDBRANCH   1   6
BRANCH   4  17
ATOM     17  C   UNL d   1      52.256  33.412  53.246  0.00  0.00     0.027 A 
ATOM     18  C   UNL d   1      52.699  33.799  53.818  0.00  0.00     0.028 A 
ATOM     19  C   UNL d   1      53.297  33.407  54.194  0.00  0.00     0.119 A 
ATOM     20  O   UNL d   1      53.818  33.645  54.774  0.00  0.00    -0.300 OA
ATOM     21  C   UNL d   1      53.473  32.632  54.020  0.00  0.00     0.119 A 
ATOM     22  C   UNL d   1      54.308  33.024  54.952  0.00  0.00     0.304 A 
ATOM     23  O   UNL d   1      54.096  32.393  54.486  0.00  0.00    -0.300 OA
ATOM     24  C   UNL d   1      53.033  32.236  53.446  0.00  0.00     0.026 A 
ATOM     25  C   UNL d   1      52.438  32.623  53.070  0.00  0.00     0.004 A 
ENDBRANCH   4  17
TORSDOF 6
ENDMDL
MODEL 2
REMARK VINA RESULT:      -8.0      1.881      2.420
REMARK  6 active torsions:
REMARK  status: ('A' for Active; 'I' for Inactive)
REMARK    1  A    between atoms: C_6  and  C_1 
REMARK    2  A    between atoms: C_8  and  C_4 
REMARK       I    between atoms: N_22  and  C_6 
REMARK    3  A    between atoms: N_9  and  C_23 
REMARK    4  A    between atoms: C_25  and  N_22 
REMARK    5  A    between atoms: C_23  and  C_24 
REMARK    6  A    between atoms: C_24  and  C_25 
ROOT
ATOM      1  C   UNL d   1      51.368  34.122  52.949  0.00  0.00     0.168 A 
ATOM      2  N   UNL d   1      52.046  34.534  53.133  0.00  0.00    -0.121 NA
ATOM      3  C   UNL d   1      51.549  33.311  52.976  0.00  0.00     0.053 A 
ATOM      4  C   UNL d   1      52.338  33.241  53.179  0.00  0.00     0.127 A 
ATOM      5  O   UNL d   1      52.642  33.999  53.275  0.00  0.00    -0.211 OA
ENDROOT
BRANCH   1   6
ATOM      6  C   UNL d   1      49.903  34.703  52.584  0.00  0.00     0.299 C 
ATOM      7  O   UNL d   1      49.513  34.523  51.886  0.00  0.00    -0.263 OA
ATOM      8  N   UNL d   1      49.517  35.224  53.145  0.00  0.00    -0.205 NA
BRANCH   8   9
ATOM      9  C   UNL d   1      48.730  35.546  52.968  0.00  0.00     0.104 C 
BRANCH   9  10
ATOM     10  C   UNL d   1      48.298  35.967  53.579  0.00  0.00     0.040 C 
BRANCH  10  11
ATOM     11  C   UNL d   1      47.635  36.472  53.375  0.00  0.00     0.083 C 
BRANCH  11  12
ATOM     12  N   UNL d   1      46.975  36.563  53.916  0.00  0.00    -0.285 N 
ATOM     13  C   UNL d   1      47.023  36.623  54.769  0.00  0.00     0.183 A 
ATOM     14  N   UNL d   1      46.208  36.708  55.066  0.00  0.00    -0.222 NA
ATOM     15  C   UNL d   1      45.684  36.699  54.416  0.00  0.00     0.120 A 
ATOM     16  C   UNL d   1      46.144  36.610  53.690  0.00  0.00     0.102 A 
ENDBRANCH  11  12
ENDBRANCH  10  11
ENDBRANCH   9  10
ENDBRANCH   8   9
ENDBRANCH   1   6
BRANCH   4  17
ATOM     17  C   UNL d   1      52.771  32.568  53.275  0.00  0.00     0.027 A 
ATOM     18  C   UNL d   1      52.461  31.842  53.055  0.00  0.00     0.028 A 
ATOM     19  C   UNL d   1      52.901  31.172  53.154  0.00  0.00     0.119 A 
ATOM     20  O   UNL d   1      52.739  30.390  52.989  0.00  0.00    -0.300 OA
ATOM     21  C   UNL d   1      53.650  31.198  53.470  0.00  0.00     0.119 A 
ATOM     22  C   UNL d   1      53.382  29.943  53.201  0.00  0.00     0.304 A 
ATOM     23  O   UNL d   1      53.949  30.442  53.499  0.00  0.00    -0.300 OA
ATOM     24  C   UNL d   1      53.970  31.924  53.694  0.00  0.00     0.026 A 
ATOM     25  C   UNL d   1      53.535  32.593  53.596  0.00  0.00     0.004 A 
ENDBRANCH   4  17
TORSDOF 6
ENDMDL
MODEL 3
REMARK VINA RESULT:      -7.3      1.920      3.058
REMARK  6 active torsions:
REMARK  status: ('A' for Active; 'I' for Inactive)
REMARK    1  A    between atoms: C_6  and  C_1 
REMARK    2  A    between atoms: C_8  and  C_4 
REMARK       I    between atoms: N_22  and  C_6 
REMARK    3  A    between atoms: N_9  and  C_23 
REMARK    4  A    between atoms: C_25  and  N_22 
REMARK    5  A    between atoms: C_23  and  C_24 
REMARK    6  A    between atoms: C_24  and  C_25 
ROOT
ATOM      1  C   UNL d   1      52.757  32.982  53.114  0.00  0.00     0.168 A 
ATOM      2  N   UNL d   1      53.564  32.967  53.223  0.00  0.00    -0.121 NA
ATOM      3  C   UNL d   1      52.474  32.206  53.207  0.00  0.00     0.053 A 
ATOM      4  C   UNL d   1      53.116  31.727  53.372  0.00  0.00     0.127 A 
ATOM      5  O   UNL d   1      53.788  32.202  53.381  0.00  0.00    -0.211 OA
ENDROOT
BRANCH   1   6
ATOM      6  C   UNL d   1      51.809  34.249  52.777  0.00  0.00     0.299 C 
ATOM      7  O   UNL d   1      52.104  34.998  52.622  0.00  0.00    -0.263 OA
ATOM      8  N   UNL d   1      50.960  34.132  52.758  0.00  0.00    -0.205 NA
BRANCH   8   9
ATOM      9  C   UNL d   1      50.433  34.800  52.579  0.00  0.00     0.104 C 
BRANCH   9  10
ATOM     10  C   UNL d   1      49.615  34.648  52.370  0.00  0.00     0.040 C 
BRANCH  10  11
ATOM     11  C   UNL d   1      48.997  35.198  52.598  0.00  0.00     0.083 C 
BRANCH  11  12
ATOM     12  N   UNL d   1      48.301  35.299  52.108  0.00  0.00    -0.285 N 
ATOM     13  C   UNL d   1      48.152  34.919  51.354  0.00  0.00     0.183 A 
ATOM     14  N   UNL d   1      47.374  35.197  51.076  0.00  0.00    -0.222 NA
ATOM     15  C   UNL d   1      47.062  35.728  51.641  0.00  0.00     0.120 A 
ATOM     16  C   UNL d   1      47.627  35.803  52.291  0.00  0.00     0.102 A 
ENDBRANCH  11  12
ENDBRANCH  10  11
ENDBRANCH   9  10
ENDBRANCH   8   9
ENDBRANCH   1   6
BRANCH   4  17
ATOM     17  C   UNL d   1      53.126  30.933  53.507  0.00  0.00     0.027 A 
ATOM     18  C   UNL d   1      53.295  30.643  54.256  0.00  0.00     0.028 A 
ATOM     19  C   UNL d   1      53.303  29.846  54.384  0.00  0.00     0.119 A 
ATOM     20  O   UNL d   1      53.449  29.408  55.056  0.00  0.00    -0.300 OA
ATOM     21  C   UNL d   1      53.146  29.317  53.785  0.00  0.00     0.119 A 
ATOM     22  C   UNL d   1      53.383  28.621  54.871  0.00  0.00     0.304 A 
ATOM     23  O   UNL d   1      53.195  28.562  54.083  0.00  0.00    -0.300 OA
ATOM     24  C   UNL d   1      52.975  29.600  53.030  0.00  0.00     0.026 A 
ATOM     25  C   UNL d   1      52.966  30.393  52.899  0.00  0.00     0.004 A 
ENDBRANCH   4  17
TORSDOF 6
ENDMDL
MODEL 4
REMARK VINA RESULT:      -7.2      1.957      7.299
REMARK  6 active torsions:
REMARK  status: ('A' for Active; 'I' for Inactive)
REMARK    1  A    between atoms: C_6  and  C_1 
REMARK    2  A    between atoms: C_8  and  C_4 
REMARK       I    between atoms: N_22  and  C_6 
REMARK    3  A    between atoms: N_9  and  C_23 
REMARK    4  A    between atoms: C_25  and  N_22 
REMARK    5  A    between atoms: C_23  and  C_24 
REMARK    6  A    between atoms: C_24  and  C_25 
ROOT
ATOM      1  C   UNL d   1      48.961  35.340  52.776  0.00  0.00     0.168 A 
ATOM      2  N   UNL d   1      48.791  35.874  53.366  0.00  0.00    -0.121 NA
ATOM      3  C   UNL d   1      48.298  35.294  52.277  0.00  0.00     0.053 A 
ATOM      4  C   UNL d   1      47.730  35.803  52.573  0.00  0.00     0.127 A 
ATOM      5  O   UNL d   1      48.039  36.160  53.247  0.00  0.00    -0.211 OA
ENDROOT
BRANCH   1   6
ATOM      6  C   UNL d   1      50.317  34.488  52.547  0.00  0.00     0.299 C 
ATOM      7  O   UNL d   1      50.490  34.106  51.843  0.00  0.00    -0.263 OA
ATOM      8  N   UNL d   1      50.880  34.431  53.192  0.00  0.00    -0.205 NA
BRANCH   8   9
ATOM      9  C   UNL d   1      51.614  33.978  53.089  0.00  0.00     0.104 C 
BRANCH   9  10
ATOM     10  C   UNL d   1      52.229  34.030  53.685  0.00  0.00     0.040 C 
BRANCH  10  11
ATOM     11  C   UNL d   1      52.851  33.440  53.723  0.00  0.00     0.083 C 
BRANCH  11  12
ATOM     12  N   UNL d   1      53.478  33.504  54.304  0.00  0.00    -0.285 N 
ATOM     13  C   UNL d   1      53.776  34.229  54.651  0.00  0.00     0.183 A 
ATOM     14  N   UNL d   1      54.408  34.006  55.208  0.00  0.00    -0.222 NA
ATOM     15  C   UNL d   1      54.491  33.174  55.199  0.00  0.00     0.120 A 
ATOM     16  C   UNL d   1      53.919  32.845  54.641  0.00  0.00     0.102 A 
ENDBRANCH  11  12
ENDBRANCH  10  11
ENDBRANCH   9  10
ENDBRANCH   8   9
ENDBRANCH   1   6
BRANCH   4  17
ATOM     17  C   UNL d   1      46.993  35.952  52.284  0.00  0.00     0.027 A 
ATOM     18  C   UNL d   1      46.719  35.550  51.624  0.00  0.00     0.028 A 
ATOM     19  C   UNL d   1      45.979  35.705  51.339  0.00  0.00     0.119 A 
ATOM     20  O   UNL d   1      45.569  35.397  50.705  0.00  0.00    -0.300 OA
ATOM     21  C   UNL d   1      45.494  36.254  51.693  0.00  0.00     0.119 A 
ATOM     22  C   UNL d   1      44.841  35.754  50.672  0.00  0.00     0.304 A 
ATOM     23  O   UNL d   1      44.792  36.286  51.283  0.00  0.00    -0.300 OA
ATOM     24  C   UNL d   1      45.761  36.663  52.357  0.00  0.00     0.026 A 
ATOM     25  C   UNL d   1      46.497  36.511  52.643  0.00  0.00     0.004 A 
ENDBRANCH   4  17
TORSDOF 6
ENDMDL
MODEL 5
REMARK VINA RESULT:      -6.9      2.010      6.998
REMARK  6 active torsions:
REMARK  status: ('A' for Active; 'I' for Inactive)
REMARK    1  A    between atoms: C_6  and  C_1 
REMARK    2  A    between atoms: C_8  and  C_4 
REMARK       I    between atoms: N_22  and  C_6 
REMARK    3  A    between atoms: N_9  and  C_23 
REMARK    4  A    between atoms: C_25  and  N_22 
REMARK    5  A    between atoms: C_23  and  C_24 
REMARK    6  A    between atoms: C_24  and  C_25 
ROOT
ATOM      1  C   UNL d   1      49.556  34.723  52.198  0.00  0.00     0.168 A 
ATOM      2  N   UNL d   1      49.254  34.518  51.470  0.00  0.00    -0.121 NA
ATOM      3  C   UNL d   1      48.980  35.172  52.594  0.00  0.00     0.053 A 
ATOM      4  C   UNL d   1      48.332  35.235  52.099  0.00  0.00     0.127 A 
ATOM      5  O   UNL d   1      48.506  34.829  51.405  0.00  0.00    -0.211 OA
ENDROOT
BRANCH   1   6
ATOM      6  C   UNL d   1      51.001  34.360  52.828  0.00  0.00     0.299 C 
ATOM      7  O   UNL d   1      51.470  34.910  53.214  0.00  0.00    -0.263 OA
ATOM      8  N   UNL d   1      51.291  33.556  52.754  0.00  0.00    -0.205 NA
BRANCH   8   9
ATOM      9  C   UNL d   1      52.065  33.341  53.086  0.00  0.00     0.104 C 
BRANCH   9  10
ATOM     10  C   UNL d   1      52.219  32.525  53.302  0.00  0.00     0.040 C 
BRANCH  10  11
ATOM     11  C   UNL d   1      52.870  32.095  52.944  0.00  0.00     0.083 C 
BRANCH  11  12
ATOM     12  N   UNL d   1      53.063  31.301  53.204  0.00  0.00    -0.285 N 
ATOM     13  C   UNL d   1      53.672  31.085  53.766  0.00  0.00     0.183 A 
ATOM     14  N   UNL d   1      53.652  30.218  53.847  0.00  0.00    -0.222 NA
ATOM     15  C   UNL d   1      53.051  29.917  53.350  0.00  0.00     0.120 A 
ATOM     16  C   UNL d   1      52.673  30.578  52.941  0.00  0.00     0.102 A 
ENDBRANCH  11  12
ENDBRANCH  10  11
ENDBRANCH   9  10
ENDBRANCH   8   9
ENDBRANCH   1   6
BRANCH   4  17
ATOM     17  C   UNL d   1      47.635  35.616  52.234  0.00  0.00     0.027 A 
ATOM     18  C   UNL d   1      47.031  35.578  51.681  0.00  0.00     0.028 A 
ATOM     19  C   UNL d   1      46.334  35.963  51.823  0.00  0.00     0.119 A 
ATOM     20  O   UNL d   1      45.651  36.022  51.382  0.00  0.00    -0.300 OA
ATOM     21  C   UNL d   1      46.215  36.390  52.505  0.00  0.00     0.119 A 
ATOM     22  C   UNL d   1      45.120  36.480  51.790  0.00  0.00     0.304 A 
ATOM     23  O   UNL d   1      45.467  36.709  52.487  0.00  0.00    -0.300 OA
ATOM     24  C   UNL d   1      46.818  36.432  53.066  0.00  0.00     0.026 A 
ATOM     25  C   UNL d   1      47.512  36.051  52.929  0.00  0.00     0.004 A 
ENDBRANCH   4  17
TORSDOF 6
ENDMDL
MODEL 6
REMARK VINA RESULT:      -5.9      9.884     10.822
REMARK  6 active torsions:
REMARK  status: ('A' for Active; 'I' for Inactive)
REMARK    1  A    between atoms: C_6  and  C_1 
REMARK    2  A    between atoms: C_8  and  C_4 
REMARK       I    between atoms: N_22  and  C_6 
REMARK    3  A    between atoms: N_9  and  C_23 
REMARK    4  A    between atoms: C_25  and  N_22 
REMARK    5  A    between atoms: C_23  and  C_24 
REMARK    6  A    between atoms: C_24  and  C_25 
ROOT
ATOM      1  C   UNL d   1      45.142  26.827  57.084  0.00  0.00     0.168 A 
ATOM      2  N   UNL d   1      45.616  27.013  57.719  0.00  0.00    -0.121 NA
ATOM      3  C   UNL d   1      44.827  27.536  56.786  0.00  0.00     0.053 A 
ATOM      4  C   UNL d   1      45.116  28.147  57.247  0.00  0.00     0.127 A 
ATOM      5  O   UNL d   1      45.604  27.819  57.823  0.00  0.00    -0.211 OA
ENDROOT
BRANCH   1   6
ATOM      6  C   UNL d   1      44.822  25.370  56.457  0.00  0.00     0.299 C 
ATOM      7  O   UNL d   1      44.598  24.727  56.913  0.00  0.00    -0.263 OA
ATOM      8  N   UNL d   1      44.889  25.265  55.608  0.00  0.00    -0.205 NA
BRANCH   8   9
ATOM      9  C   UNL d   1      44.721  24.490  55.252  0.00  0.00     0.104 C 
BRANCH   9  10
ATOM     10  C   UNL d   1      44.780  24.395  54.401  0.00  0.00     0.040 C 
BRANCH  10  11
ATOM     11  C   UNL d   1      44.725  23.617  54.045  0.00  0.00     0.083 C 
BRANCH  11  12
ATOM     12  N   UNL d   1      44.917  23.502  53.216  0.00  0.00    -0.285 N 
ATOM     13  C   UNL d   1      44.599  23.946  52.556  0.00  0.00     0.183 A 
ATOM     14  N   UNL d   1      44.963  23.624  51.832  0.00  0.00    -0.222 NA
ATOM     15  C   UNL d   1      45.483  23.006  52.046  0.00  0.00     0.120 A 
ATOM     16  C   UNL d   1      45.468  22.916  52.906  0.00  0.00     0.102 A 
ENDBRANCH  11  12
ENDBRANCH  10  11
ENDBRANCH   9  10
ENDBRANCH   8   9
ENDBRANCH   1   6
BRANCH   4  17
ATOM     17  C   UNL d   1      44.970  28.937  57.179  0.00  0.00     0.027 A 
ATOM     18  C   UNL d   1      44.989  29.418  57.842  0.00  0.00     0.028 A 
ATOM     19  C   UNL d   1      44.842  30.209  57.766  0.00  0.00     0.119 A 
ATOM     20  O   UNL d   1      44.823  30.811  58.317  0.00  0.00    -0.300 OA
ATOM     21  C   UNL d   1      44.675  30.544  57.044  0.00  0.00     0.119 A 
ATOM     22  C   UNL d   1      44.647  31.504  57.935  0.00  0.00     0.304 A 
ATOM     23  O   UNL d   1      44.554  31.341  57.145  0.00  0.00    -0.300 OA
ATOM     24  C   UNL d   1      44.654  30.066  56.372  0.00  0.00     0.026 A 
ATOM     25  C   UNL d   1      44.800  29.279  56.443  0.00  0.00     0.004 A 
ENDBRANCH   4  17
TORSDOF 6
ENDMDL
MODEL 7
REMARK VINA RESULT:      -5.2     10.790     11.368
REMARK  6 active torsions:
REMARK  status: ('A' for Active; 'I' for Inactive)
REMARK    1  A    between atoms: C_6  and  C_1 
REMARK    2  A    between atoms: C_8  and  C_4 
REMARK       I    between atoms: N_22  and  C_6 
REMARK    3  A    between atoms: N_9  and  C_23 
REMARK    4  A    between atoms: C_25  and  N_22 
REMARK    5  A    between atoms: C_23  and  C_24 
REMARK    6  A    between atoms: C_24  and  C_25 
ROOT
ATOM      1  C   UNL d   1      44.714  26.626  57.166  0.00  0.00     0.168 A 
ATOM      2  N   UNL d   1      44.556  26.015  57.681  0.00  0.00    -0.121 NA
ATOM      3  C   UNL d   1      44.776  26.305  56.402  0.00  0.00     0.053 A 
ATOM      4  C   UNL d   1      44.654  25.499  56.463  0.00  0.00     0.127 A 
ATOM      5  O   UNL d   1      44.518  25.323  57.255  0.00  0.00    -0.211 OA
ENDROOT
BRANCH   1   6
ATOM      6  C   UNL d   1      44.890  28.200  57.495  0.00  0.00     0.299 C 
ATOM      7  O   UNL d   1      44.988  28.769  56.913  0.00  0.00    -0.263 OA
ATOM      8  N   UNL d   1      44.880  28.452  58.315  0.00  0.00    -0.205 NA
BRANCH   8   9
ATOM      9  C   UNL d   1      44.973  29.294  58.512  0.00  0.00     0.104 C 
BRANCH   9  10
ATOM     10  C   UNL d   1      44.679  29.586  59.264  0.00  0.00     0.040 C 
BRANCH  10  11
ATOM     11  C   UNL d   1      45.086  30.220  59.673  0.00  0.00     0.083 C 
BRANCH  11  12
ATOM     12  N   UNL d   1      44.848  30.451  60.465  0.00  0.00    -0.285 N 
ATOM     13  C   UNL d   1      44.789  29.937  61.147  0.00  0.00     0.183 A 
ATOM     14  N   UNL d   1      44.526  30.428  61.817  0.00  0.00    -0.222 NA
ATOM     15  C   UNL d   1      44.429  31.214  61.551  0.00  0.00     0.120 A 
ATOM     16  C   UNL d   1      44.625  31.247  60.709  0.00  0.00     0.102 A 
ENDBRANCH  11  12
ENDBRANCH  10  11
ENDBRANCH   9  10
ENDBRANCH   8   9
ENDBRANCH   1   6
BRANCH   4  17
ATOM     17  C   UNL d   1      44.658  24.947  55.875  0.00  0.00     0.027 A 
ATOM     18  C   UNL d   1      45.006  24.215  56.000  0.00  0.00     0.028 A 
ATOM     19  C   UNL d   1      45.007  23.667  55.406  0.00  0.00     0.119 A 
ATOM     20  O   UNL d   1      45.305  22.908  55.372  0.00  0.00    -0.300 OA
ATOM     21  C   UNL d   1      44.669  23.822  54.683  0.00  0.00     0.119 A 
ATOM     22  C   UNL d   1      45.152  22.604  54.636  0.00  0.00     0.304 A 
ATOM     23  O   UNL d   1      44.757  23.169  54.206  0.00  0.00    -0.300 OA
ATOM     24  C   UNL d   1      44.317  24.556  54.550  0.00  0.00     0.026 A 
ATOM     25  C   UNL d   1      44.314  25.104  55.137  0.00  0.00     0.004 A 
ENDBRANCH   4  17
TORSDOF 6
ENDMDL
