MODEL 1
REMARK VINA RESULT:      17.4      0.000      0.000
REMARK  3 active torsions:
REMARK  status: ('A' for Active; 'I' for Inactive)
REMARK    1  A    between atoms: N_2  and  C_1 
REMARK    2  A    between atoms: N_4  and  C_1 
REMARK       I    between atoms: C_3  and  N_2 
REMARK    3  A    between atoms: C_5  and  C_3 
ROOT
ATOM      1  C   UNL d   1      14.006  12.440  -1.753  0.00  0.00     0.209 C 
ATOM      2  S   UNL d   1      13.969  11.779  -1.246  0.00  0.00    -0.038 SA
ENDROOT
BRANCH   1   3
ATOM      3  N   UNL d   1      14.335  13.140  -1.496  0.00  0.00    -0.179 NA
ATOM      4  C   UNL d   1      14.724  13.174  -0.772  0.00  0.00     0.287 C 
ATOM      5  O   UNL d   1      14.780  12.494  -0.305  0.00  0.00    -0.265 OA
BRANCH   4   6
ATOM      6  C   UNL d   1      15.058  13.881  -0.510  0.00  0.00     0.087 A 
ATOM      7  S   UNL d   1      15.795  14.055  -0.165  0.00  0.00    -0.082 SA
ATOM      8  C   UNL d   1      15.823  14.868  -0.016  0.00  0.00     0.036 A 
ATOM      9  C   UNL d   1      15.111  15.193  -0.266  0.00  0.00     0.008 A 
ATOM     10  C   UNL d   1      14.635  14.586  -0.572  0.00  0.00     0.012 A 
ENDBRANCH   4   6
ENDBRANCH   1   3
BRANCH   1  11
ATOM     11  N   UNL d   1      13.705  12.385  -2.526  0.00  0.00    -0.281 N 
ATOM     12  C   UNL d   1      13.113  11.834  -2.708  0.00  0.00     0.082 A 
ATOM     13  C   UNL d   1      12.817  11.779  -3.468  0.00  0.00     0.019 A 
ATOM     14  C   UNL d   1      13.109  12.276  -4.066  0.00  0.00     0.003 A 
ATOM     15  C   UNL d   1      13.699  12.822  -3.880  0.00  0.00     0.019 A 
ATOM     16  C   UNL d   1      12.813  12.226  -4.844  0.00  0.00     0.000 C 
ATOM     17  C   UNL d   1      13.996  12.877  -3.116  0.00  0.00     0.082 A 
ENDBRANCH   1  11
TORSDOF 3
ENDMDL
