MODEL 1
REMARK VINA RESULT:      26.8      0.000      0.000
REMARK  2 active torsions:
REMARK  status: ('A' for Active; 'I' for Inactive)
REMARK    1  A    between atoms: C_11  and  N_1 
REMARK    2  A    between atoms: C_15  and  C_11 
ROOT
ATOM      1  N   UNL d   1     -57.117 -98.755 -44.338  0.00  0.00    -0.244 N 
ATOM      2  C   UNL d   1     -57.745 -98.755 -43.799  0.00  0.00     0.246 A 
ATOM      3  C   UNL d   1     -58.457 -98.756 -44.224  0.00  0.00     0.095 A 
ATOM      4  C   UNL d   1     -57.442 -98.755 -45.106  0.00  0.00     0.260 A 
ATOM      5  C   UNL d   1     -58.269 -98.756 -45.035  0.00  0.00     0.024 A 
ATOM      6  C   UNL d   1     -59.241 -98.756 -43.985  0.00  0.00     0.034 A 
ATOM      7  C   UNL d   1     -58.868 -98.756 -45.595  0.00  0.00     0.045 A 
ATOM      8  C   UNL d   1     -59.841 -98.756 -44.545  0.00  0.00    -0.030 A 
ATOM      9  C   UNL d   1     -59.655 -98.756 -45.348  0.00  0.00    -0.027 A 
ATOM     10  C   UNL d   1     -58.853 -98.756 -44.716  0.00  0.00     0.014 A 
ATOM     11  O   UNL d   1     -57.677 -98.755 -42.969  0.00  0.00    -0.271 OA
ATOM     12  O   UNL d   1     -57.017 -98.755 -45.819  0.00  0.00    -0.267 OA
ATOM     13  C   UNL d   1     -58.426 -98.756 -43.393  0.00  0.00     0.014 C 
ENDROOT
BRANCH   1  14
ATOM     14  C   UNL d   1     -56.315 -98.755 -44.148  0.00  0.00     0.086 C 
BRANCH  14  15
ATOM     15  C   UNL d   1     -55.856 -99.414 -44.318  0.00  0.00     0.018 A 
ATOM     16  C   UNL d   1     -56.052-100.142 -44.003  0.00  0.00     0.002 A 
ATOM     17  C   UNL d   1     -55.594-100.801 -44.172  0.00  0.00     0.000 A 
ATOM     18  C   UNL d   1     -54.929-100.728 -44.665  0.00  0.00     0.000 A 
ATOM     19  C   UNL d   1     -54.734 -99.991 -44.982  0.00  0.00     0.000 A 
ATOM     20  C   UNL d   1     -55.199 -99.338 -44.806  0.00  0.00     0.002 A 
ENDBRANCH  14  15
ENDBRANCH   1  14
TORSDOF 2
ENDMDL
