MODEL 1
REMARK VINA RESULT:      -8.9      0.000      0.000
REMARK  3 active torsions:
REMARK  status: ('A' for Active; 'I' for Inactive)
REMARK    1  A    between atoms: C_2  and  S_1 
REMARK    2  A    between atoms: N_3  and  S_1 
REMARK    3  A    between atoms: C_9  and  N_3 
ROOT
ATOM      1  S   UNL d   1     -48.170  13.932  22.925  0.00  0.00     0.285 S 
ATOM      2  O   UNL d   1     -47.877  14.439  22.353  0.00  0.00    -0.198 OA
ATOM      3  O   UNL d   1     -48.470  13.421  23.501  0.00  0.00    -0.198 OA
ENDROOT
BRANCH   1   4
ATOM      4  C   UNL d   1     -48.894  13.903  22.527  0.00  0.00     0.105 A 
ATOM      5  C   UNL d   1     -49.086  13.249  22.065  0.00  0.00     0.013 A 
ATOM      6  C   UNL d   1     -49.801  13.217  21.670  0.00  0.00     0.001 A 
ATOM      7  C   UNL d   1     -49.995  12.560  21.205  0.00  0.00     0.000 C 
ATOM      8  C   UNL d   1     -50.337  13.843  21.731  0.00  0.00     0.000 A 
ATOM      9  C   UNL d   1     -50.147  14.500  22.194  0.00  0.00     0.001 A 
ATOM     10  C   UNL d   1     -51.062  13.818  21.334  0.00  0.00     0.000 C 
ATOM     11  C   UNL d   1     -49.423  14.532  22.594  0.00  0.00     0.012 A 
ATOM     12  C   UNL d   1     -49.236  15.187  23.054  0.00  0.00     0.001 C 
ENDBRANCH   1   4
BRANCH   1  13
ATOM     13  N   UNL d   1     -47.447  13.960  23.326  0.00  0.00    -0.159 NA
BRANCH  13  14
ATOM     14  C   UNL d   1     -46.854  13.429  23.134  0.00  0.00     0.089 A 
ATOM     15  C   UNL d   1     -46.874  12.658  23.429  0.00  0.00     0.015 A 
ATOM     16  C   UNL d   1     -46.282  12.124  23.239  0.00  0.00     0.100 A 
ATOM     17  C   UNL d   1     -45.956  11.372  23.302  0.00  0.00     0.029 C 
ATOM     18  C   UNL d   1     -46.657  11.550  23.694  0.00  0.00     0.029 C 
ATOM     19  N   UNL d   1     -45.664  12.356  22.752  0.00  0.00    -0.295 NA
ATOM     20  C   UNL d   1     -45.636  13.122  22.453  0.00  0.00     0.100 A 
ATOM     21  C   UNL d   1     -46.230  13.657  22.644  0.00  0.00     0.015 A 
ATOM     22  C   UNL d   1     -45.264  13.701  21.999  0.00  0.00     0.029 C 
ATOM     23  C   UNL d   1     -44.931  12.944  22.060  0.00  0.00     0.029 C 
ENDBRANCH  13  14
ENDBRANCH   1  13
TORSDOF 3
ENDMDL
MODEL 2
REMARK VINA RESULT:      -7.9      1.196      4.178
REMARK  3 active torsions:
REMARK  status: ('A' for Active; 'I' for Inactive)
REMARK    1  A    between atoms: C_2  and  S_1 
REMARK    2  A    between atoms: N_3  and  S_1 
REMARK    3  A    between atoms: C_9  and  N_3 
ROOT
ATOM      1  S   UNL d   1     -48.407  12.816  23.161  0.00  0.00     0.285 S 
ATOM      2  O   UNL d   1     -48.326  13.430  23.698  0.00  0.00    -0.198 OA
ATOM      3  O   UNL d   1     -48.486  12.198  22.619  0.00  0.00    -0.198 OA
ENDROOT
BRANCH   1   4
ATOM      4  C   UNL d   1     -47.594  12.838  23.015  0.00  0.00     0.105 A 
ATOM      5  C   UNL d   1     -47.254  13.503  22.669  0.00  0.00     0.013 A 
ATOM      6  C   UNL d   1     -46.449  13.527  22.523  0.00  0.00     0.001 A 
ATOM      7  C   UNL d   1     -46.105  14.196  22.175  0.00  0.00     0.000 C 
ATOM      8  C   UNL d   1     -45.972  12.883  22.721  0.00  0.00     0.000 A 
ATOM      9  C   UNL d   1     -46.311  12.214  23.068  0.00  0.00     0.001 A 
ATOM     10  C   UNL d   1     -45.158  12.900  22.576  0.00  0.00     0.000 C 
ATOM     11  C   UNL d   1     -47.125  12.190  23.216  0.00  0.00     0.012 A 
ATOM     12  C   UNL d   1     -47.461  11.524  23.561  0.00  0.00     0.001 C 
ENDBRANCH   1   4
BRANCH   1  13
ATOM     13  N   UNL d   1     -49.221  12.792  23.306  0.00  0.00    -0.159 NA
BRANCH  13  14
ATOM     14  C   UNL d   1     -49.711  13.358  22.974  0.00  0.00     0.089 A 
ATOM     15  C   UNL d   1     -49.846  14.073  23.366  0.00  0.00     0.015 A 
ATOM     16  C   UNL d   1     -50.336  14.642  23.037  0.00  0.00     0.100 A 
ATOM     17  C   UNL d   1     -50.694  15.381  23.076  0.00  0.00     0.029 C 
ATOM     18  C   UNL d   1     -50.200  15.130  23.685  0.00  0.00     0.029 C 
ATOM     19  N   UNL d   1     -50.696  14.502  22.313  0.00  0.00    -0.295 NA
ATOM     20  C   UNL d   1     -50.567  13.792  21.917  0.00  0.00     0.100 A 
ATOM     21  C   UNL d   1     -50.076  13.223  22.247  0.00  0.00     0.015 A 
ATOM     22  C   UNL d   1     -50.700  13.299  21.269  0.00  0.00     0.029 C 
ATOM     23  C   UNL d   1     -51.063  14.044  21.305  0.00  0.00     0.029 C 
ENDBRANCH  13  14
ENDBRANCH   1  13
TORSDOF 3
ENDMDL
MODEL 3
REMARK VINA RESULT:      -7.7      1.070      2.106
REMARK  3 active torsions:
REMARK  status: ('A' for Active; 'I' for Inactive)
REMARK    1  A    between atoms: C_2  and  S_1 
REMARK    2  A    between atoms: N_3  and  S_1 
REMARK    3  A    between atoms: C_9  and  N_3 
ROOT
ATOM      1  S   UNL d   1     -48.944  12.842  22.533  0.00  0.00     0.285 S 
ATOM      2  O   UNL d   1     -49.028  12.490  23.267  0.00  0.00    -0.198 OA
ATOM      3  O   UNL d   1     -48.863  13.200  21.793  0.00  0.00    -0.198 OA
ENDROOT
BRANCH   1   4
ATOM      4  C   UNL d   1     -49.474  13.436  22.758  0.00  0.00     0.105 A 
ATOM      5  C   UNL d   1     -49.193  14.173  22.992  0.00  0.00     0.013 A 
ATOM      6  C   UNL d   1     -49.715  14.762  23.215  0.00  0.00     0.001 A 
ATOM      7  C   UNL d   1     -49.434  15.505  23.450  0.00  0.00     0.000 C 
ATOM      8  C   UNL d   1     -50.528  14.621  23.209  0.00  0.00     0.000 A 
ATOM      9  C   UNL d   1     -50.812  13.881  22.975  0.00  0.00     0.001 A 
ATOM     10  C   UNL d   1     -51.062  15.211  23.434  0.00  0.00     0.000 C 
ATOM     11  C   UNL d   1     -50.285  13.285  22.749  0.00  0.00     0.012 A 
ATOM     12  C   UNL d   1     -50.569  12.550  22.517  0.00  0.00     0.001 C 
ENDBRANCH   1   4
BRANCH   1  13
ATOM     13  N   UNL d   1     -48.414  12.250  22.304  0.00  0.00    -0.159 NA
BRANCH  13  14
ATOM     14  C   UNL d   1     -47.633  12.286  22.547  0.00  0.00     0.089 A 
ATOM     15  C   UNL d   1     -47.151  12.911  22.305  0.00  0.00     0.015 A 
ATOM     16  C   UNL d   1     -46.368  12.951  22.546  0.00  0.00     0.100 A 
ATOM     17  C   UNL d   1     -45.642  13.336  22.543  0.00  0.00     0.029 C 
ATOM     18  C   UNL d   1     -46.276  13.650  22.123  0.00  0.00     0.029 C 
ATOM     19  N   UNL d   1     -46.061  12.365  23.031  0.00  0.00    -0.295 NA
ATOM     20  C   UNL d   1     -46.534  11.738  23.276  0.00  0.00     0.100 A 
ATOM     21  C   UNL d   1     -47.318  11.699  23.035  0.00  0.00     0.015 A 
ATOM     22  C   UNL d   1     -46.631  11.037  23.698  0.00  0.00     0.029 C 
ATOM     23  C   UNL d   1     -45.897  11.422  23.698  0.00  0.00     0.029 C 
ENDBRANCH  13  14
ENDBRANCH   1  13
TORSDOF 3
ENDMDL
MODEL 4
REMARK VINA RESULT:      -7.1      7.574      9.558
REMARK  3 active torsions:
REMARK  status: ('A' for Active; 'I' for Inactive)
REMARK    1  A    between atoms: C_2  and  S_1 
REMARK    2  A    between atoms: N_3  and  S_1 
REMARK    3  A    between atoms: C_9  and  N_3 
ROOT
ATOM      1  S   UNL d   1     -40.258  14.650  19.350  0.00  0.00     0.285 S 
ATOM      2  O   UNL d   1     -39.936  13.929  19.566  0.00  0.00    -0.198 OA
ATOM      3  O   UNL d   1     -40.581  15.379  19.136  0.00  0.00    -0.198 OA
ENDROOT
BRANCH   1   4
ATOM      4  C   UNL d   1     -40.034  14.967  20.080  0.00  0.00     0.105 A 
ATOM      5  C   UNL d   1     -39.282  15.286  20.180  0.00  0.00     0.013 A 
ATOM      6  C   UNL d   1     -39.058  15.600  20.901  0.00  0.00     0.001 A 
ATOM      7  C   UNL d   1     -38.301  15.922  21.002  0.00  0.00     0.000 C 
ATOM      8  C   UNL d   1     -39.586  15.600  21.536  0.00  0.00     0.000 A 
ATOM      9  C   UNL d   1     -40.342  15.280  21.438  0.00  0.00     0.001 A 
ATOM     10  C   UNL d   1     -39.367  15.916  22.268  0.00  0.00     0.000 C 
ATOM     11  C   UNL d   1     -40.568  14.962  20.709  0.00  0.00     0.012 A 
ATOM     12  C   UNL d   1     -41.320  14.644  20.614  0.00  0.00     0.001 C 
ENDBRANCH   1   4
BRANCH   1  13
ATOM     13  N   UNL d   1     -40.482  14.336  18.619  0.00  0.00    -0.159 NA
BRANCH  13  14
ATOM     14  C   UNL d   1     -39.949  14.327  17.997  0.00  0.00     0.089 A 
ATOM     15  C   UNL d   1     -39.448  13.680  17.888  0.00  0.00     0.015 A 
ATOM     16  C   UNL d   1     -38.913  13.668  17.267  0.00  0.00     0.100 A 
ATOM     17  C   UNL d   1     -38.317  13.286  16.850  0.00  0.00     0.029 C 
ATOM     18  C   UNL d   1     -38.651  12.927  17.511  0.00  0.00     0.029 C 
ATOM     19  N   UNL d   1     -38.875  14.303  16.749  0.00  0.00    -0.295 NA
ATOM     20  C   UNL d   1     -39.371  14.951  16.851  0.00  0.00     0.100 A 
ATOM     21  C   UNL d   1     -39.906  14.963  17.473  0.00  0.00     0.015 A 
ATOM     22  C   UNL d   1     -39.637  15.694  16.611  0.00  0.00     0.029 C 
ATOM     23  C   UNL d   1     -39.035  15.312  16.186  0.00  0.00     0.029 C 
ENDBRANCH  13  14
ENDBRANCH   1  13
TORSDOF 3
ENDMDL
MODEL 5
REMARK VINA RESULT:      -5.9      7.888      9.940
REMARK  3 active torsions:
REMARK  status: ('A' for Active; 'I' for Inactive)
REMARK    1  A    between atoms: C_2  and  S_1 
REMARK    2  A    between atoms: N_3  and  S_1 
REMARK    3  A    between atoms: C_9  and  N_3 
ROOT
ATOM      1  S   UNL d   1     -39.267  13.959  18.611  0.00  0.00     0.285 S 
ATOM      2  O   UNL d   1     -38.492  14.051  18.859  0.00  0.00    -0.198 OA
ATOM      3  O   UNL d   1     -40.048  13.867  18.356  0.00  0.00    -0.198 OA
ENDROOT
BRANCH   1   4
ATOM      4  C   UNL d   1     -39.035  14.110  17.832  0.00  0.00     0.105 A 
ATOM      5  C   UNL d   1     -39.125  14.863  17.512  0.00  0.00     0.013 A 
ATOM      6  C   UNL d   1     -38.896  15.015  16.742  0.00  0.00     0.001 A 
ATOM      7  C   UNL d   1     -38.986  15.773  16.419  0.00  0.00     0.000 C 
ATOM      8  C   UNL d   1     -38.571  14.413  16.279  0.00  0.00     0.000 A 
ATOM      9  C   UNL d   1     -38.479  13.657  16.598  0.00  0.00     0.001 A 
ATOM     10  C   UNL d   1     -38.336  14.560  15.499  0.00  0.00     0.000 C 
ATOM     11  C   UNL d   1     -38.711  13.503  17.377  0.00  0.00     0.012 A 
ATOM     12  C   UNL d   1     -38.619  12.750  17.693  0.00  0.00     0.001 C 
ENDBRANCH   1   4
BRANCH   1  13
ATOM     13  N   UNL d   1     -39.503  13.807  19.389  0.00  0.00    -0.159 NA
BRANCH  13  14
ATOM     14  C   UNL d   1     -39.636  14.430  19.903  0.00  0.00     0.089 A 
ATOM     15  C   UNL d   1     -40.392  14.754  19.978  0.00  0.00     0.015 A 
ATOM     16  C   UNL d   1     -40.529  15.378  20.492  0.00  0.00     0.100 A 
ATOM     17  C   UNL d   1     -41.045  15.922  20.829  0.00  0.00     0.029 C 
ATOM     18  C   UNL d   1     -41.321  15.382  20.272  0.00  0.00     0.029 C 
ATOM     19  N   UNL d   1     -39.911  15.683  20.937  0.00  0.00    -0.295 NA
ATOM     20  C   UNL d   1     -39.154  15.366  20.868  0.00  0.00     0.100 A 
ATOM     21  C   UNL d   1     -39.018  14.742  20.353  0.00  0.00     0.015 A 
ATOM     22  C   UNL d   1     -38.359  15.358  21.085  0.00  0.00     0.029 C 
ATOM     23  C   UNL d   1     -38.876  15.909  21.427  0.00  0.00     0.029 C 
ENDBRANCH  13  14
ENDBRANCH   1  13
TORSDOF 3
ENDMDL
