MODEL 1
REMARK VINA RESULT:      -4.4      0.000      0.000
REMARK  5 active torsions:
REMARK  status: ('A' for Active; 'I' for Inactive)
REMARK    1  A    between atoms: C_4  and  S_1 
REMARK    2  A    between atoms: N_6  and  S_1 
REMARK    3  A    between atoms: C_3  and  C_2 
REMARK    4  A    between atoms: C_10  and  N_6 
REMARK    5  A    between atoms: C_17  and  C_10 
ROOT
ATOM      1  C   UNL d   1      57.275  -0.166  31.491  0.00  0.00     0.083 A 
ATOM      2  C   UNL d   1      57.979   0.102  30.269  0.00  0.00     0.105 A 
ATOM      3  C   UNL d   1      57.361  -0.271  30.671  0.00  0.00     0.018 A 
ATOM      4  C   UNL d   1      57.809   0.312  31.903  0.00  0.00     0.062 A 
ATOM      5  C   UNL d   1      58.509   0.577  30.681  0.00  0.00     0.014 A 
ATOM      6  C   UNL d   1      58.423   0.682  31.502  0.00  0.00     0.012 A 
ATOM      7 CL   UNL d   1      57.724   0.416  32.716  0.00  0.00    -0.082 Cl
ENDROOT
BRANCH   2   8
ATOM      8  S   UNL d   1      58.070   0.003  29.457  0.00  0.00     0.285 S 
ATOM      9  O   UNL d   1      58.164  -0.102  28.654  0.00  0.00    -0.198 OA
ATOM     10  O   UNL d   1      57.641   0.682  29.317  0.00  0.00    -0.198 OA
BRANCH   8  11
ATOM     11  N   UNL d   1      58.504  -0.684  29.593  0.00  0.00    -0.155 NA
BRANCH  11  12
ATOM     12  C   UNL d   1      58.890  -1.064  28.964  0.00  0.00     0.137 C 
BRANCH  12  13
ATOM     13  C   UNL d   1      59.277  -1.779  29.094  0.00  0.00     0.120 A 
ATOM     14  O   UNL d   1      60.086  -1.890  29.236  0.00  0.00    -0.304 OA
ATOM     15  C   UNL d   1      60.219  -2.692  29.333  0.00  0.00     0.123 A 
ATOM     16  C   UNL d   1      59.505  -3.087  29.254  0.00  0.00     0.029 A 
ATOM     17  C   UNL d   1      58.919  -2.526  29.106  0.00  0.00     0.028 A 
ENDBRANCH  12  13
ENDBRANCH  11  12
ENDBRANCH   8  11
ENDBRANCH   2   8
BRANCH   1  18
ATOM     18  C   UNL d   1      56.661  -0.536  31.893  0.00  0.00     0.420 C 
ATOM     19  F   UNL d   1      56.586  -1.364  32.129  0.00  0.00    -0.166 F 
ATOM     20  F   UNL d   1      56.094  -0.879  32.263  0.00  0.00    -0.166 F 
ATOM     21  F   UNL d   1      55.924  -0.204  32.188  0.00  0.00    -0.166 F 
ENDBRANCH   1  18
TORSDOF 5
ENDMDL
MODEL 2
REMARK VINA RESULT:      -3.8      2.249      3.600
REMARK  5 active torsions:
REMARK  status: ('A' for Active; 'I' for Inactive)
REMARK    1  A    between atoms: C_4  and  S_1 
REMARK    2  A    between atoms: N_6  and  S_1 
REMARK    3  A    between atoms: C_3  and  C_2 
REMARK    4  A    between atoms: C_10  and  N_6 
REMARK    5  A    between atoms: C_17  and  C_10 
ROOT
ATOM      1  C   UNL d   1      59.157  -1.743  29.188  0.00  0.00     0.083 A 
ATOM      2  C   UNL d   1      58.678  -0.393  29.276  0.00  0.00     0.105 A 
ATOM      3  C   UNL d   1      58.525  -1.203  29.219  0.00  0.00     0.018 A 
ATOM      4  C   UNL d   1      59.936  -1.468  29.215  0.00  0.00     0.062 A 
ATOM      5  C   UNL d   1      59.453  -0.122  29.303  0.00  0.00     0.014 A 
ATOM      6  C   UNL d   1      60.085  -0.662  29.273  0.00  0.00     0.012 A 
ATOM      7 CL   UNL d   1      60.562  -2.003  29.184  0.00  0.00    -0.082 Cl
ENDROOT
BRANCH   2   8
ATOM      8  S   UNL d   1      58.057   0.148  29.308  0.00  0.00     0.285 S 
ATOM      9  O   UNL d   1      57.442   0.682  29.346  0.00  0.00    -0.198 OA
ATOM     10  O   UNL d   1      58.171   0.337  28.523  0.00  0.00    -0.198 OA
BRANCH   8  11
ATOM     11  N   UNL d   1      57.938  -0.040  30.101  0.00  0.00    -0.155 NA
BRANCH  11  12
ATOM     12  C   UNL d   1      57.421   0.415  30.563  0.00  0.00     0.137 C 
BRANCH  12  13
ATOM     13  C   UNL d   1      57.196   0.148  31.309  0.00  0.00     0.120 A 
ATOM     14  O   UNL d   1      56.763  -0.537  31.484  0.00  0.00    -0.304 OA
ATOM     15  C   UNL d   1      56.671  -0.578  32.297  0.00  0.00     0.123 A 
ATOM     16  C   UNL d   1      57.039   0.072  32.635  0.00  0.00     0.029 A 
ATOM     17  C   UNL d   1      57.366   0.525  32.028  0.00  0.00     0.028 A 
ENDBRANCH  12  13
ENDBRANCH  11  12
ENDBRANCH   8  11
ENDBRANCH   2   8
BRANCH   1  18
ATOM     18  C   UNL d   1      59.008  -2.549  29.130  0.00  0.00     0.420 C 
ATOM     19  F   UNL d   1      59.179  -3.176  29.699  0.00  0.00    -0.166 F 
ATOM     20  F   UNL d   1      58.871  -3.294  29.079  0.00  0.00    -0.166 F 
ATOM     21  F   UNL d   1      58.641  -2.991  28.490  0.00  0.00    -0.166 F 
ENDBRANCH   1  18
TORSDOF 5
ENDMDL
MODEL 3
REMARK VINA RESULT:      -2.7      2.352      3.792
REMARK  5 active torsions:
REMARK  status: ('A' for Active; 'I' for Inactive)
REMARK    1  A    between atoms: C_4  and  S_1 
REMARK    2  A    between atoms: N_6  and  S_1 
REMARK    3  A    between atoms: C_3  and  C_2 
REMARK    4  A    between atoms: C_10  and  N_6 
REMARK    5  A    between atoms: C_17  and  C_10 
ROOT
ATOM      1  C   UNL d   1      58.383  -0.885  29.831  0.00  0.00     0.083 A 
ATOM      2  C   UNL d   1      58.230   0.126  30.838  0.00  0.00     0.105 A 
ATOM      3  C   UNL d   1      58.410  -0.653  30.630  0.00  0.00     0.018 A 
ATOM      4  C   UNL d   1      58.176  -0.337  29.249  0.00  0.00     0.062 A 
ATOM      5  C   UNL d   1      58.024   0.670  30.258  0.00  0.00     0.014 A 
ATOM      6  C   UNL d   1      57.997   0.437  29.459  0.00  0.00     0.012 A 
ATOM      7 CL   UNL d   1      58.149  -0.567  28.459  0.00  0.00    -0.082 Cl
ENDROOT
BRANCH   2   8
ATOM      8  S   UNL d   1      58.254   0.364  31.627  0.00  0.00     0.285 S 
ATOM      9  O   UNL d   1      58.271   0.595  32.408  0.00  0.00    -0.198 OA
ATOM     10  O   UNL d   1      58.997   0.681  31.516  0.00  0.00    -0.198 OA
BRANCH   8  11
ATOM     11  N   UNL d   1      57.504   0.043  31.743  0.00  0.00    -0.155 NA
BRANCH  11  12
ATOM     12  C   UNL d   1      57.050   0.274  32.398  0.00  0.00     0.137 C 
BRANCH  12  13
ATOM     13  C   UNL d   1      56.456  -0.222  32.680  0.00  0.00     0.120 A 
ATOM     14  O   UNL d   1      56.467  -1.051  32.702  0.00  0.00    -0.304 OA
ATOM     15  C   UNL d   1      55.760  -1.305  33.026  0.00  0.00     0.123 A 
ATOM     16  C   UNL d   1      55.305  -0.649  33.209  0.00  0.00     0.029 A 
ATOM     17  C   UNL d   1      55.731   0.024  32.996  0.00  0.00     0.028 A 
ENDBRANCH  12  13
ENDBRANCH  11  12
ENDBRANCH   8  11
ENDBRANCH   2   8
BRANCH   1  18
ATOM     18  C   UNL d   1      58.562  -1.659  29.621  0.00  0.00     0.420 C 
ATOM     19  F   UNL d   1      58.061  -2.363  29.657  0.00  0.00    -0.166 F 
ATOM     20  F   UNL d   1      58.725  -2.375  29.428  0.00  0.00    -0.166 F 
ATOM     21  F   UNL d   1      59.295  -1.984  29.309  0.00  0.00    -0.166 F 
ENDBRANCH   1  18
TORSDOF 5
ENDMDL
MODEL 4
REMARK VINA RESULT:      -2.6      2.547      3.835
REMARK  5 active torsions:
REMARK  status: ('A' for Active; 'I' for Inactive)
REMARK    1  A    between atoms: C_4  and  S_1 
REMARK    2  A    between atoms: N_6  and  S_1 
REMARK    3  A    between atoms: C_3  and  C_2 
REMARK    4  A    between atoms: C_10  and  N_6 
REMARK    5  A    between atoms: C_17  and  C_10 
ROOT
ATOM      1  C   UNL d   1      59.765  -0.107  29.674  0.00  0.00     0.083 A 
ATOM      2  C   UNL d   1      58.330  -0.104  29.654  0.00  0.00     0.105 A 
ATOM      3  C   UNL d   1      59.044   0.300  29.756  0.00  0.00     0.018 A 
ATOM      4  C   UNL d   1      59.766  -0.912  29.491  0.00  0.00     0.062 A 
ATOM      5  C   UNL d   1      58.334  -0.905  29.472  0.00  0.00     0.014 A 
ATOM      6  C   UNL d   1      59.055  -1.311  29.390  0.00  0.00     0.012 A 
ATOM      7 CL   UNL d   1      60.481  -1.314  29.409  0.00  0.00    -0.082 Cl
ENDROOT
BRANCH   2   8
ATOM      8  S   UNL d   1      57.612   0.292  29.734  0.00  0.00     0.285 S 
ATOM      9  O   UNL d   1      56.901   0.682  29.821  0.00  0.00    -0.198 OA
ATOM     10  O   UNL d   1      57.582   0.417  28.929  0.00  0.00    -0.198 OA
BRANCH   8  11
ATOM     11  N   UNL d   1      57.638   0.168  30.548  0.00  0.00    -0.155 NA
BRANCH  11  12
ATOM     12  C   UNL d   1      56.980   0.351  31.018  0.00  0.00     0.137 C 
BRANCH  12  13
ATOM     13  C   UNL d   1      56.988   0.170  31.822  0.00  0.00     0.120 A 
ATOM     14  O   UNL d   1      57.514   0.460  32.394  0.00  0.00    -0.304 OA
ATOM     15  C   UNL d   1      57.312   0.129  33.115  0.00  0.00     0.123 A 
ATOM     16  C   UNL d   1      56.666  -0.364  33.005  0.00  0.00     0.029 A 
ATOM     17  C   UNL d   1      56.462  -0.342  32.206  0.00  0.00     0.028 A 
ENDBRANCH  12  13
ENDBRANCH  11  12
ENDBRANCH   8  11
ENDBRANCH   2   8
BRANCH   1  18
ATOM     18  C   UNL d   1      60.477   0.293  29.775  0.00  0.00     0.420 C 
ATOM     19  F   UNL d   1      60.790   0.678  30.483  0.00  0.00    -0.166 F 
ATOM     20  F   UNL d   1      61.133   0.662  29.870  0.00  0.00    -0.166 F 
ATOM     21  F   UNL d   1      61.106   0.438  29.206  0.00  0.00    -0.166 F 
ENDBRANCH   1  18
TORSDOF 5
ENDMDL
MODEL 5
REMARK VINA RESULT:      -2.1      2.411      2.859
REMARK  5 active torsions:
REMARK  status: ('A' for Active; 'I' for Inactive)
REMARK    1  A    between atoms: C_4  and  S_1 
REMARK    2  A    between atoms: N_6  and  S_1 
REMARK    3  A    between atoms: C_3  and  C_2 
REMARK    4  A    between atoms: C_10  and  N_6 
REMARK    5  A    between atoms: C_17  and  C_10 
ROOT
ATOM      1  C   UNL d   1      55.979  -0.211  33.036  0.00  0.00     0.083 A 
ATOM      2  C   UNL d   1      56.658  -0.171  31.772  0.00  0.00     0.105 A 
ATOM      3  C   UNL d   1      56.271   0.221  32.388  0.00  0.00     0.018 A 
ATOM      4  C   UNL d   1      56.078  -1.031  33.063  0.00  0.00     0.062 A 
ATOM      5  C   UNL d   1      56.754  -0.987  31.800  0.00  0.00     0.014 A 
ATOM      6  C   UNL d   1      56.463  -1.419  32.449  0.00  0.00     0.012 A 
ATOM      7 CL   UNL d   1      55.789  -1.459  33.705  0.00  0.00    -0.082 Cl
ENDROOT
BRANCH   2   8
ATOM      8  S   UNL d   1      56.949   0.250  31.126  0.00  0.00     0.285 S 
ATOM      9  O   UNL d   1      57.245   0.667  30.491  0.00  0.00    -0.198 OA
ATOM     10  O   UNL d   1      56.217   0.224  30.769  0.00  0.00    -0.198 OA
BRANCH   8  11
ATOM     11  N   UNL d   1      57.691   0.278  31.485  0.00  0.00    -0.155 NA
BRANCH  11  12
ATOM     12  C   UNL d   1      58.316   0.678  31.115  0.00  0.00     0.137 C 
BRANCH  12  13
ATOM     13  C   UNL d   1      59.080   0.613  31.417  0.00  0.00     0.120 A 
ATOM     14  O   UNL d   1      59.304   0.628  32.215  0.00  0.00    -0.304 OA
ATOM     15  C   UNL d   1      60.117   0.545  32.252  0.00  0.00     0.123 A 
ATOM     16  C   UNL d   1      60.408   0.478  31.489  0.00  0.00     0.029 A 
ATOM     17  C   UNL d   1      59.770   0.519  30.968  0.00  0.00     0.028 A 
ENDBRANCH  12  13
ENDBRANCH  11  12
ENDBRANCH   8  11
ENDBRANCH   2   8
BRANCH   1  18
ATOM     18  C   UNL d   1      55.594   0.176  33.650  0.00  0.00     0.420 C 
ATOM     19  F   UNL d   1      55.928   0.536  34.362  0.00  0.00    -0.166 F 
ATOM     20  F   UNL d   1      55.240   0.535  34.218  0.00  0.00    -0.166 F 
ATOM     21  F   UNL d   1      54.755   0.332  33.755  0.00  0.00    -0.166 F 
ENDBRANCH   1  18
TORSDOF 5
ENDMDL
