MODEL 1
REMARK VINA RESULT:      -7.2      0.000      0.000
REMARK  5 active torsions:
REMARK  status: ('A' for Active; 'I' for Inactive)
REMARK       I    between atoms: N_2  and  C_1 
REMARK    1  A    between atoms: C_4  and  C_1 
REMARK    2  A    between atoms: C_3  and  N_2 
REMARK    3  A    between atoms: N_5  and  C_3 
REMARK    4  A    between atoms: C_7  and  N_5 
REMARK    5  A    between atoms: O_14  and  C_11 
ROOT
ATOM      1  C   UNL d   1     -47.481  13.270  22.535  0.00  0.00     0.283 C 
ATOM      2  N   UNL d   1     -47.967  13.791  22.947  0.00  0.00    -0.179 NA
ATOM      3  O   UNL d   1     -47.333  13.402  21.733  0.00  0.00    -0.265 OA
ENDROOT
BRANCH   2   4
ATOM      4  C   UNL d   1     -48.307  14.437  22.574  0.00  0.00     0.224 C 
ATOM      5  S   UNL d   1     -47.863  15.136  22.478  0.00  0.00    -0.037 SA
BRANCH   4   6
ATOM      6  N   UNL d   1     -49.082  14.412  22.291  0.00  0.00    -0.215 NA
BRANCH   6   7
ATOM      7  C   UNL d   1     -49.683  14.834  22.664  0.00  0.00     0.112 A 
ATOM      8  C   UNL d   1     -50.463  14.797  22.371  0.00  0.00     0.156 A 
ATOM      9  N   UNL d   1     -51.064  15.219  22.744  0.00  0.00    -0.231 NA
ATOM     10 CL   UNL d   1     -50.631  14.334  21.701  0.00  0.00    -0.060 Cl
ATOM     11  C   UNL d   1     -50.894  15.677  23.407  0.00  0.00     0.100 A 
ATOM     12  C   UNL d   1     -50.121  15.713  23.698  0.00  0.00     0.022 A 
ATOM     13  C   UNL d   1     -49.512  15.291  23.327  0.00  0.00     0.023 A 
ENDBRANCH   6   7
ENDBRANCH   4   6
ENDBRANCH   2   4
BRANCH   1  14
ATOM     14  C   UNL d   1     -47.142  12.623  22.917  0.00  0.00     0.080 A 
ATOM     15  C   UNL d   1     -46.326  12.515  22.896  0.00  0.00     0.099 A 
ATOM     16  C   UNL d   1     -45.987  11.868  23.277  0.00  0.00     0.024 A 
ATOM     17  C   UNL d   1     -46.471  11.328  23.681  0.00  0.00     0.002 A 
ATOM     18  C   UNL d   1     -47.292  11.443  23.698  0.00  0.00     0.000 A 
ATOM     19  C   UNL d   1     -47.630  12.090  23.316  0.00  0.00     0.007 A 
BRANCH  15  20
ATOM     20  O   UNL d   1     -45.850  13.052  22.495  0.00  0.00    -0.328 OA
ATOM     21  C   UNL d   1     -45.034  12.938  22.463  0.00  0.00     0.181 C 
ENDBRANCH  15  20
ENDBRANCH   1  14
TORSDOF 5
ENDMDL
MODEL 2
REMARK VINA RESULT:      -7.2      2.030      4.296
REMARK  5 active torsions:
REMARK  status: ('A' for Active; 'I' for Inactive)
REMARK       I    between atoms: N_2  and  C_1 
REMARK    1  A    between atoms: C_4  and  C_1 
REMARK    2  A    between atoms: C_3  and  N_2 
REMARK    3  A    between atoms: N_5  and  C_3 
REMARK    4  A    between atoms: C_7  and  N_5 
REMARK    5  A    between atoms: O_14  and  C_11 
ROOT
ATOM      1  C   UNL d   1     -49.299  12.814  22.964  0.00  0.00     0.283 C 
ATOM      2  N   UNL d   1     -48.506  12.868  22.752  0.00  0.00    -0.179 NA
ATOM      3  O   UNL d   1     -49.502  12.492  23.697  0.00  0.00    -0.265 OA
ENDROOT
BRANCH   2   4
ATOM      4  C   UNL d   1     -47.915  12.609  23.257  0.00  0.00     0.224 C 
ATOM      5  S   UNL d   1     -47.933  11.826  23.544  0.00  0.00    -0.037 SA
BRANCH   4   6
ATOM      6  N   UNL d   1     -47.298  13.106  23.490  0.00  0.00    -0.215 NA
BRANCH   6   7
ATOM      7  C   UNL d   1     -46.569  13.085  23.107  0.00  0.00     0.112 A 
ATOM      8  C   UNL d   1     -46.208  13.794  22.857  0.00  0.00     0.156 A 
ATOM      9  N   UNL d   1     -45.479  13.773  22.474  0.00  0.00    -0.231 NA
ATOM     10 CL   UNL d   1     -46.586  14.521  22.998  0.00  0.00    -0.060 Cl
ATOM     11  C   UNL d   1     -45.108  13.051  22.337  0.00  0.00     0.100 A 
ATOM     12  C   UNL d   1     -45.466  12.348  22.583  0.00  0.00     0.022 A 
ATOM     13  C   UNL d   1     -46.199  12.362  22.970  0.00  0.00     0.023 A 
ENDBRANCH   6   7
ENDBRANCH   4   6
ENDBRANCH   2   4
BRANCH   1  14
ATOM     14  C   UNL d   1     -49.888  13.077  22.451  0.00  0.00     0.080 A 
ATOM     15  C   UNL d   1     -50.346  13.731  22.654  0.00  0.00     0.099 A 
ATOM     16  C   UNL d   1     -50.935  13.994  22.141  0.00  0.00     0.024 A 
ATOM     17  C   UNL d   1     -51.064  13.598  21.423  0.00  0.00     0.002 A 
ATOM     18  C   UNL d   1     -50.600  12.940  21.227  0.00  0.00     0.000 A 
ATOM     19  C   UNL d   1     -50.011  12.677  21.740  0.00  0.00     0.007 A 
BRANCH  15  20
ATOM     20  O   UNL d   1     -50.215  14.121  23.365  0.00  0.00    -0.328 OA
ATOM     21  C   UNL d   1     -50.601  14.832  23.524  0.00  0.00     0.181 C 
ENDBRANCH  15  20
ENDBRANCH   1  14
TORSDOF 5
ENDMDL
MODEL 3
REMARK VINA RESULT:      -6.8      1.624      2.102
REMARK  5 active torsions:
REMARK  status: ('A' for Active; 'I' for Inactive)
REMARK       I    between atoms: N_2  and  C_1 
REMARK    1  A    between atoms: C_4  and  C_1 
REMARK    2  A    between atoms: C_3  and  N_2 
REMARK    3  A    between atoms: N_5  and  C_3 
REMARK    4  A    between atoms: C_7  and  N_5 
REMARK    5  A    between atoms: O_14  and  C_11 
ROOT
ATOM      1  C   UNL d   1     -46.806  13.567  22.961  0.00  0.00     0.283 C 
ATOM      2  N   UNL d   1     -47.484  13.546  22.496  0.00  0.00    -0.179 NA
ATOM      3  O   UNL d   1     -46.829  13.948  23.694  0.00  0.00    -0.265 OA
ENDROOT
BRANCH   2   4
ATOM      4  C   UNL d   1     -48.181  13.897  22.747  0.00  0.00     0.224 C 
ATOM      5  S   UNL d   1     -48.249  14.728  22.738  0.00  0.00    -0.037 SA
BRANCH   4   6
ATOM      6  N   UNL d   1     -48.820  13.446  23.011  0.00  0.00    -0.215 NA
BRANCH   6   7
ATOM      7  C   UNL d   1     -49.463  13.296  22.519  0.00  0.00     0.112 A 
ATOM      8  C   UNL d   1     -50.043  12.741  22.747  0.00  0.00     0.156 A 
ATOM      9  N   UNL d   1     -50.686  12.591  22.255  0.00  0.00    -0.231 NA
ATOM     10 CL   UNL d   1     -49.969  12.342  23.472  0.00  0.00    -0.060 Cl
ATOM     11  C   UNL d   1     -50.756  12.989  21.537  0.00  0.00     0.100 A 
ATOM     12  C   UNL d   1     -50.182  13.538  21.311  0.00  0.00     0.022 A 
ATOM     13  C   UNL d   1     -49.533  13.694  21.801  0.00  0.00     0.023 A 
ENDBRANCH   6   7
ENDBRANCH   4   6
ENDBRANCH   2   4
BRANCH   1  14
ATOM     14  C   UNL d   1     -46.109  13.212  22.702  0.00  0.00     0.080 A 
ATOM     15  C   UNL d   1     -45.898  12.468  22.986  0.00  0.00     0.099 A 
ATOM     16  C   UNL d   1     -45.201  12.112  22.727  0.00  0.00     0.024 A 
ATOM     17  C   UNL d   1     -44.716  12.506  22.181  0.00  0.00     0.002 A 
ATOM     18  C   UNL d   1     -44.935  13.254  21.900  0.00  0.00     0.000 A 
ATOM     19  C   UNL d   1     -45.632  13.609  22.159  0.00  0.00     0.007 A 
BRANCH  15  20
ATOM     20  O   UNL d   1     -46.381  12.081  23.527  0.00  0.00    -0.328 OA
ATOM     21  C   UNL d   1     -46.255  11.284  23.697  0.00  0.00     0.181 C 
ENDBRANCH  15  20
ENDBRANCH   1  14
TORSDOF 5
ENDMDL
MODEL 4
REMARK VINA RESULT:      -6.2      8.572      9.570
REMARK  5 active torsions:
REMARK  status: ('A' for Active; 'I' for Inactive)
REMARK       I    between atoms: N_2  and  C_1 
REMARK    1  A    between atoms: C_4  and  C_1 
REMARK    2  A    between atoms: C_3  and  N_2 
REMARK    3  A    between atoms: N_5  and  C_3 
REMARK    4  A    between atoms: C_7  and  N_5 
REMARK    5  A    between atoms: O_14  and  C_11 
ROOT
ATOM      1  C   UNL d   1     -40.520  14.385  18.960  0.00  0.00     0.283 C 
ATOM      2  N   UNL d   1     -40.268  14.793  19.628  0.00  0.00    -0.179 NA
ATOM      3  O   UNL d   1     -40.993  13.714  19.048  0.00  0.00    -0.265 OA
ENDROOT
BRANCH   2   4
ATOM      4  C   UNL d   1     -40.479  14.544  20.380  0.00  0.00     0.224 C 
ATOM      5  S   UNL d   1     -41.266  14.639  20.639  0.00  0.00    -0.037 SA
BRANCH   4   6
ATOM      6  N   UNL d   1     -39.929  14.200  20.890  0.00  0.00    -0.215 NA
BRANCH   6   7
ATOM      7  C   UNL d   1     -39.582  14.637  21.497  0.00  0.00     0.112 A 
ATOM      8  C   UNL d   1     -39.047  14.272  22.022  0.00  0.00     0.156 A 
ATOM      9  N   UNL d   1     -38.701  14.709  22.628  0.00  0.00    -0.231 NA
ATOM     10 CL   UNL d   1     -38.865  13.466  21.930  0.00  0.00    -0.060 Cl
ATOM     11  C   UNL d   1     -38.884  15.507  22.715  0.00  0.00     0.100 A 
ATOM     12  C   UNL d   1     -39.414  15.869  22.195  0.00  0.00     0.022 A 
ATOM     13  C   UNL d   1     -39.766  15.435  21.583  0.00  0.00     0.023 A 
ENDBRANCH   6   7
ENDBRANCH   4   6
ENDBRANCH   2   4
BRANCH   1  14
ATOM     14  C   UNL d   1     -40.305  14.642  18.207  0.00  0.00     0.080 A 
ATOM     15  C   UNL d   1     -39.796  14.184  17.748  0.00  0.00     0.099 A 
ATOM     16  C   UNL d   1     -39.580  14.441  16.995  0.00  0.00     0.024 A 
ATOM     17  C   UNL d   1     -39.877  15.159  16.703  0.00  0.00     0.002 A 
ATOM     18  C   UNL d   1     -40.388  15.613  17.171  0.00  0.00     0.000 A 
ATOM     19  C   UNL d   1     -40.604  15.357  17.924  0.00  0.00     0.007 A 
BRANCH  15  20
ATOM     20  O   UNL d   1     -39.504  13.474  18.041  0.00  0.00    -0.328 OA
ATOM     21  C   UNL d   1     -38.933  13.056  17.618  0.00  0.00     0.181 C 
ENDBRANCH  15  20
ENDBRANCH   1  14
TORSDOF 5
ENDMDL
MODEL 5
REMARK VINA RESULT:      -5.5      8.729      9.470
REMARK  5 active torsions:
REMARK  status: ('A' for Active; 'I' for Inactive)
REMARK       I    between atoms: N_2  and  C_1 
REMARK    1  A    between atoms: C_4  and  C_1 
REMARK    2  A    between atoms: C_3  and  N_2 
REMARK    3  A    between atoms: N_5  and  C_3 
REMARK    4  A    between atoms: C_7  and  N_5 
REMARK    5  A    between atoms: O_14  and  C_11 
ROOT
ATOM      1  C   UNL d   1     -40.018  14.476  20.983  0.00  0.00     0.283 C 
ATOM      2  N   UNL d   1     -39.996  14.728  20.199  0.00  0.00    -0.179 NA
ATOM      3  O   UNL d   1     -40.553  13.886  21.204  0.00  0.00    -0.265 OA
ENDROOT
BRANCH   2   4
ATOM      4  C   UNL d   1     -40.495  14.404  19.636  0.00  0.00     0.224 C 
ATOM      5  S   UNL d   1     -41.321  14.449  19.744  0.00  0.00    -0.037 SA
BRANCH   4   6
ATOM      6  N   UNL d   1     -40.200  14.031  18.962  0.00  0.00    -0.215 NA
BRANCH   6   7
ATOM      7  C   UNL d   1     -40.165  14.427  18.240  0.00  0.00     0.112 A 
ATOM      8  C   UNL d   1     -39.721  14.110  17.609  0.00  0.00     0.156 A 
ATOM      9  N   UNL d   1     -39.688  14.506  16.888  0.00  0.00    -0.231 NA
ATOM     10 CL   UNL d   1     -39.314  13.392  17.713  0.00  0.00    -0.060 Cl
ATOM     11  C   UNL d   1     -40.092  15.216  16.790  0.00  0.00     0.100 A 
ATOM     12  C   UNL d   1     -40.532  15.531  17.415  0.00  0.00     0.022 A 
ATOM     13  C   UNL d   1     -40.571  15.138  18.143  0.00  0.00     0.023 A 
ENDBRANCH   6   7
ENDBRANCH   4   6
ENDBRANCH   2   4
BRANCH   1  14
ATOM     14  C   UNL d   1     -39.513  14.806  21.543  0.00  0.00     0.080 A 
ATOM     15  C   UNL d   1     -38.905  14.353  21.865  0.00  0.00     0.099 A 
ATOM     16  C   UNL d   1     -38.400  14.683  22.426  0.00  0.00     0.024 A 
ATOM     17  C   UNL d   1     -38.506  15.472  22.663  0.00  0.00     0.002 A 
ATOM     18  C   UNL d   1     -39.120  15.921  22.335  0.00  0.00     0.000 A 
ATOM     19  C   UNL d   1     -39.625  15.590  21.774  0.00  0.00     0.007 A 
BRANCH  15  20
ATOM     20  O   UNL d   1     -38.803  13.572  21.628  0.00  0.00    -0.328 OA
ATOM     21  C   UNL d   1     -38.161  13.137  21.905  0.00  0.00     0.181 C 
ENDBRANCH  15  20
ENDBRANCH   1  14
TORSDOF 5
ENDMDL
MODEL 6
REMARK VINA RESULT:      -5.4      8.449     10.294
REMARK  5 active torsions:
REMARK  status: ('A' for Active; 'I' for Inactive)
REMARK       I    between atoms: N_2  and  C_1 
REMARK    1  A    between atoms: C_4  and  C_1 
REMARK    2  A    between atoms: C_3  and  N_2 
REMARK    3  A    between atoms: N_5  and  C_3 
REMARK    4  A    between atoms: C_7  and  N_5 
REMARK    5  A    between atoms: O_14  and  C_11 
ROOT
ATOM      1  C   UNL d   1     -40.175  14.403  19.286  0.00  0.00     0.283 C 
ATOM      2  N   UNL d   1     -39.735  14.716  18.664  0.00  0.00    -0.179 NA
ATOM      3  O   UNL d   1     -40.879  14.002  19.123  0.00  0.00    -0.265 OA
ENDROOT
BRANCH   2   4
ATOM      4  C   UNL d   1     -39.984  14.635  17.888  0.00  0.00     0.224 C 
ATOM      5  S   UNL d   1     -40.669  15.035  17.632  0.00  0.00    -0.037 SA
BRANCH   4   6
ATOM      6  N   UNL d   1     -39.571  14.165  17.350  0.00  0.00    -0.215 NA
BRANCH   6   7
ATOM      7  C   UNL d   1     -39.042  14.499  16.814  0.00  0.00     0.112 A 
ATOM      8  C   UNL d   1     -38.470  14.022  16.438  0.00  0.00     0.156 A 
ATOM      9  N   UNL d   1     -37.942  14.357  15.902  0.00  0.00    -0.231 NA
ATOM     10 CL   UNL d   1     -38.437  13.209  16.606  0.00  0.00    -0.060 Cl
ATOM     11  C   UNL d   1     -37.978  15.163  15.739  0.00  0.00     0.100 A 
ATOM     12  C   UNL d   1     -38.544  15.636  16.111  0.00  0.00     0.022 A 
ATOM     13  C   UNL d   1     -39.079  15.306  16.650  0.00  0.00     0.023 A 
ENDBRANCH   6   7
ENDBRANCH   4   6
ENDBRANCH   2   4
BRANCH   1  14
ATOM     14  C   UNL d   1     -39.919  14.489  20.064  0.00  0.00     0.080 A 
ATOM     15  C   UNL d   1     -40.345  14.962  20.587  0.00  0.00     0.099 A 
ATOM     16  C   UNL d   1     -40.089  15.047  21.365  0.00  0.00     0.024 A 
ATOM     17  C   UNL d   1     -39.402  14.656  21.619  0.00  0.00     0.002 A 
ATOM     18  C   UNL d   1     -38.979  14.182  21.087  0.00  0.00     0.000 A 
ATOM     19  C   UNL d   1     -39.235  14.096  20.309  0.00  0.00     0.007 A 
BRANCH  15  20
ATOM     20  O   UNL d   1     -41.025  15.348  20.332  0.00  0.00    -0.328 OA
ATOM     21  C   UNL d   1     -41.427  15.855  20.842  0.00  0.00     0.181 C 
ENDBRANCH  15  20
ENDBRANCH   1  14
TORSDOF 5
ENDMDL
MODEL 7
REMARK VINA RESULT:      -5.4      8.937     10.031
REMARK  5 active torsions:
REMARK  status: ('A' for Active; 'I' for Inactive)
REMARK       I    between atoms: N_2  and  C_1 
REMARK    1  A    between atoms: C_4  and  C_1 
REMARK    2  A    between atoms: C_3  and  N_2 
REMARK    3  A    between atoms: N_5  and  C_3 
REMARK    4  A    between atoms: C_7  and  N_5 
REMARK    5  A    between atoms: O_14  and  C_11 
ROOT
ATOM      1  C   UNL d   1     -39.978  14.161  18.407  0.00  0.00     0.283 C 
ATOM      2  N   UNL d   1     -39.645  14.263  19.152  0.00  0.00    -0.179 NA
ATOM      3  O   UNL d   1     -40.798  14.209  18.319  0.00  0.00    -0.265 OA
ENDROOT
BRANCH   2   4
ATOM      4  C   UNL d   1     -40.114  14.411  19.808  0.00  0.00     0.224 C 
ATOM      5  S   UNL d   1     -40.840  14.010  19.893  0.00  0.00    -0.037 SA
BRANCH   4   6
ATOM      6  N   UNL d   1     -39.884  14.950  20.390  0.00  0.00    -0.215 NA
BRANCH   6   7
ATOM      7  C   UNL d   1     -39.504  14.696  21.075  0.00  0.00     0.112 A 
ATOM      8  C   UNL d   1     -38.932  15.181  21.440  0.00  0.00     0.156 A 
ATOM      9  N   UNL d   1     -38.552  14.927  22.125  0.00  0.00    -0.231 NA
ATOM     10 CL   UNL d   1     -38.747  15.921  21.108  0.00  0.00    -0.060 Cl
ATOM     11  C   UNL d   1     -38.737  14.194  22.450  0.00  0.00     0.100 A 
ATOM     12  C   UNL d   1     -39.304  13.713  22.089  0.00  0.00     0.022 A 
ATOM     13  C   UNL d   1     -39.690  13.962  21.400  0.00  0.00     0.023 A 
ENDBRANCH   6   7
ENDBRANCH   4   6
ENDBRANCH   2   4
BRANCH   1  14
ATOM     14  C   UNL d   1     -39.501  14.013  17.752  0.00  0.00     0.080 A 
ATOM     15  C   UNL d   1     -39.453  14.569  17.145  0.00  0.00     0.099 A 
ATOM     16  C   UNL d   1     -38.975  14.420  16.490  0.00  0.00     0.024 A 
ATOM     17  C   UNL d   1     -38.545  13.712  16.445  0.00  0.00     0.002 A 
ATOM     18  C   UNL d   1     -38.598  13.158  17.059  0.00  0.00     0.000 A 
ATOM     19  C   UNL d   1     -39.076  13.307  17.714  0.00  0.00     0.007 A 
BRANCH  15  20
ATOM     20  O   UNL d   1     -39.880  15.269  17.193  0.00  0.00    -0.328 OA
ATOM     21  C   UNL d   1     -39.731  15.881  16.662  0.00  0.00     0.181 C 
ENDBRANCH  15  20
ENDBRANCH   1  14
TORSDOF 5
ENDMDL
