MODEL 1
REMARK VINA RESULT:      -9.5      0.000      0.000
REMARK  5 active torsions:
REMARK  status: ('A' for Active; 'I' for Inactive)
REMARK    1  A    between atoms: C_11  and  N_3 
REMARK    2  A    between atoms: C_10  and  C_4 
REMARK    3  A    between atoms: C_15  and  C_11 
REMARK    4  A    between atoms: N_13  and  C_16 
REMARK    5  A    between atoms: C_16  and  C_15 
ROOT
ATOM      1  C   UNL d   1      53.117  33.403  53.955  0.00  0.00     0.137 A 
ATOM      2  N   UNL d   1      53.512  32.730  54.254  0.00  0.00    -0.259 N 
ATOM      3  N   UNL d   1      52.649  33.148  53.325  0.00  0.00    -0.287 N 
ATOM      4  C   UNL d   1      53.240  34.138  54.298  0.00  0.00     0.054 A 
ATOM      5  C   UNL d   1      54.029  32.810  54.898  0.00  0.00     0.266 A 
ATOM      6  C   UNL d   1      53.285  32.073  53.808  0.00  0.00     0.084 A 
ATOM      7  C   UNL d   1      52.744  32.335  53.226  0.00  0.00     0.082 A 
ATOM      8  C   UNL d   1      53.754  34.219  54.938  0.00  0.00     0.009 A 
ATOM      9  C   UNL d   1      54.153  33.557  55.244  0.00  0.00     0.061 A 
ATOM     10  O   UNL d   1      54.424  32.146  55.199  0.00  0.00    -0.267 OA
ATOM     11  C   UNL d   1      53.489  31.278  53.845  0.00  0.00     0.019 A 
ATOM     12  C   UNL d   1      53.879  34.963  55.284  0.00  0.00     0.000 C 
ATOM     13  C   UNL d   1      52.429  31.791  52.703  0.00  0.00     0.019 A 
ATOM     14  C   UNL d   1      53.164  30.746  53.313  0.00  0.00     0.002 A 
ATOM     15  C   UNL d   1      52.628  31.006  52.736  0.00  0.00     0.002 A 
ENDROOT
BRANCH   3  16
ATOM     16  C   UNL d   1      52.116  33.398  52.750  0.00  0.00     0.125 C 
BRANCH  16  17
ATOM     17  C   UNL d   1      51.362  33.653  52.969  0.00  0.00     0.231 C 
ATOM     18  O   UNL d   1      50.880  33.174  53.436  0.00  0.00    -0.283 OA
BRANCH  17  19
ATOM     19  C   UNL d   1      51.089  34.389  52.720  0.00  0.00     0.124 C 
BRANCH  19  20
ATOM     20  N   UNL d   1      50.389  34.447  52.290  0.00  0.00    -0.300 N 
ATOM     21  C   UNL d   1      49.698  34.688  52.669  0.00  0.00     0.080 A 
ATOM     22  C   UNL d   1      48.993  34.748  52.243  0.00  0.00     0.019 A 
ATOM     23  C   UNL d   1      48.982  34.565  51.437  0.00  0.00     0.003 A 
ATOM     24  C   UNL d   1      49.673  34.323  51.059  0.00  0.00     0.019 A 
ATOM     25  C   UNL d   1      48.283  34.622  51.008  0.00  0.00     0.000 C 
ATOM     26  C   UNL d   1      50.379  34.263  51.484  0.00  0.00     0.080 A 
ENDBRANCH  19  20
ENDBRANCH  17  19
ENDBRANCH  16  17
ENDBRANCH   3  16
BRANCH   4  27
ATOM     27  C   UNL d   1      52.852  34.799  54.005  0.00  0.00     0.125 C 
ATOM     28  N   UNL d   1      53.124  35.559  54.165  0.00  0.00    -0.146 N 
ENDBRANCH   4  27
TORSDOF 5
ENDMDL
MODEL 2
REMARK VINA RESULT:      -9.2      1.357      4.012
REMARK  5 active torsions:
REMARK  status: ('A' for Active; 'I' for Inactive)
REMARK    1  A    between atoms: C_11  and  N_3 
REMARK    2  A    between atoms: C_10  and  C_4 
REMARK    3  A    between atoms: C_15  and  C_11 
REMARK    4  A    between atoms: N_13  and  C_16 
REMARK    5  A    between atoms: C_16  and  C_15 
ROOT
ATOM      1  C   UNL d   1      53.212  33.764  53.816  0.00  0.00     0.137 A 
ATOM      2  N   UNL d   1      52.706  34.426  53.876  0.00  0.00    -0.259 N 
ATOM      3  N   UNL d   1      52.885  33.261  53.249  0.00  0.00    -0.287 N 
ATOM      4  C   UNL d   1      53.886  33.718  54.282  0.00  0.00     0.054 A 
ATOM      5  C   UNL d   1      52.889  35.035  54.408  0.00  0.00     0.266 A 
ATOM      6  C   UNL d   1      52.079  34.325  53.350  0.00  0.00     0.084 A 
ATOM      7  C   UNL d   1      52.191  33.595  52.957  0.00  0.00     0.082 A 
ATOM      8  C   UNL d   1      54.069  34.324  54.811  0.00  0.00     0.009 A 
ATOM      9  C   UNL d   1      53.574  34.988  54.880  0.00  0.00     0.061 A 
ATOM     10  O   UNL d   1      52.391  35.696  54.472  0.00  0.00    -0.267 OA
ATOM     11  C   UNL d   1      51.423  34.787  53.169  0.00  0.00     0.019 A 
ATOM     12  C   UNL d   1      54.751  34.277  55.281  0.00  0.00     0.000 C 
ATOM     13  C   UNL d   1      51.643  33.356  52.398  0.00  0.00     0.019 A 
ATOM     14  C   UNL d   1      50.884  34.532  52.607  0.00  0.00     0.002 A 
ATOM     15  C   UNL d   1      50.995  33.809  52.218  0.00  0.00     0.002 A 
ENDROOT
BRANCH   3  16
ATOM     16  C   UNL d   1      52.989  32.544  52.858  0.00  0.00     0.125 C 
BRANCH  16  17
ATOM     17  C   UNL d   1      52.743  31.842  53.214  0.00  0.00     0.231 C 
ATOM     18  O   UNL d   1      52.357  31.857  53.943  0.00  0.00    -0.283 OA
BRANCH  17  19
ATOM     19  C   UNL d   1      52.882  31.120  52.841  0.00  0.00     0.124 C 
BRANCH  19  20
ATOM     20  N   UNL d   1      53.016  30.443  53.288  0.00  0.00    -0.300 N 
ATOM     21  C   UNL d   1      53.788  30.227  53.479  0.00  0.00     0.080 A 
ATOM     22  C   UNL d   1      53.929  29.548  53.928  0.00  0.00     0.019 A 
ATOM     23  C   UNL d   1      53.294  29.085  54.185  0.00  0.00     0.003 A 
ATOM     24  C   UNL d   1      52.522  29.301  53.994  0.00  0.00     0.019 A 
ATOM     25  C   UNL d   1      53.427  28.409  54.631  0.00  0.00     0.000 C 
ATOM     26  C   UNL d   1      52.380  29.980  53.545  0.00  0.00     0.080 A 
ENDBRANCH  19  20
ENDBRANCH  17  19
ENDBRANCH  16  17
ENDBRANCH   3  16
BRANCH   4  27
ATOM     27  C   UNL d   1      54.383  33.068  54.223  0.00  0.00     0.125 C 
ATOM     28  N   UNL d   1      55.198  33.145  54.306  0.00  0.00    -0.146 N 
ENDBRANCH   4  27
TORSDOF 5
ENDMDL
MODEL 3
REMARK VINA RESULT:      -9.1      1.435      4.338
REMARK  5 active torsions:
REMARK  status: ('A' for Active; 'I' for Inactive)
REMARK    1  A    between atoms: C_11  and  N_3 
REMARK    2  A    between atoms: C_10  and  C_4 
REMARK    3  A    between atoms: C_15  and  C_11 
REMARK    4  A    between atoms: N_13  and  C_16 
REMARK    5  A    between atoms: C_16  and  C_15 
ROOT
ATOM      1  C   UNL d   1      52.572  33.594  53.740  0.00  0.00     0.137 A 
ATOM      2  N   UNL d   1      52.965  34.284  54.003  0.00  0.00    -0.259 N 
ATOM      3  N   UNL d   1      52.990  32.949  54.041  0.00  0.00    -0.287 N 
ATOM      4  C   UNL d   1      51.901  33.657  53.273  0.00  0.00     0.054 A 
ATOM      5  C   UNL d   1      52.673  35.029  53.788  0.00  0.00     0.266 A 
ATOM      6  C   UNL d   1      53.616  34.058  54.458  0.00  0.00     0.084 A 
ATOM      7  C   UNL d   1      53.631  33.221  54.481  0.00  0.00     0.082 A 
ATOM      8  C   UNL d   1      51.609  34.399  53.059  0.00  0.00     0.009 A 
ATOM      9  C   UNL d   1      51.991  35.091  53.314  0.00  0.00     0.061 A 
ATOM     10  O   UNL d   1      53.058  35.717  54.045  0.00  0.00    -0.267 OA
ATOM     11  C   UNL d   1      54.195  34.486  54.854  0.00  0.00     0.019 A 
ATOM     12  C   UNL d   1      50.930  34.460  52.587  0.00  0.00     0.000 C 
ATOM     13  C   UNL d   1      54.226  32.847  54.900  0.00  0.00     0.019 A 
ATOM     14  C   UNL d   1      54.784  34.094  55.268  0.00  0.00     0.002 A 
ATOM     15  C   UNL d   1      54.799  33.266  55.292  0.00  0.00     0.002 A 
ENDROOT
BRANCH   3  16
ATOM     16  C   UNL d   1      53.012  32.127  54.069  0.00  0.00     0.125 C 
BRANCH  16  17
ATOM     17  C   UNL d   1      53.257  31.699  53.407  0.00  0.00     0.231 C 
ATOM     18  O   UNL d   1      53.879  31.973  52.940  0.00  0.00    -0.283 OA
BRANCH  17  19
ATOM     19  C   UNL d   1      52.878  30.994  53.210  0.00  0.00     0.124 C 
BRANCH  19  20
ATOM     20  N   UNL d   1      53.080  30.295  53.595  0.00  0.00    -0.300 N 
ATOM     21  C   UNL d   1      52.524  29.918  54.072  0.00  0.00     0.080 A 
ATOM     22  C   UNL d   1      52.721  29.216  54.461  0.00  0.00     0.019 A 
ATOM     23  C   UNL d   1      53.476  28.893  54.370  0.00  0.00     0.003 A 
ATOM     24  C   UNL d   1      54.032  29.270  53.893  0.00  0.00     0.019 A 
ATOM     25  C   UNL d   1      53.679  28.195  54.754  0.00  0.00     0.000 C 
ATOM     26  C   UNL d   1      53.836  29.973  53.504  0.00  0.00     0.080 A 
ENDBRANCH  19  20
ENDBRANCH  17  19
ENDBRANCH  16  17
ENDBRANCH   3  16
BRANCH   4  27
ATOM     27  C   UNL d   1      51.515  32.981  53.016  0.00  0.00     0.125 C 
ATOM     28  N   UNL d   1      50.693  32.947  52.975  0.00  0.00    -0.146 N 
ENDBRANCH   4  27
TORSDOF 5
ENDMDL
MODEL 4
REMARK VINA RESULT:      -8.8      0.686      2.414
REMARK  5 active torsions:
REMARK  status: ('A' for Active; 'I' for Inactive)
REMARK    1  A    between atoms: C_11  and  N_3 
REMARK    2  A    between atoms: C_10  and  C_4 
REMARK    3  A    between atoms: C_15  and  C_11 
REMARK    4  A    between atoms: N_13  and  C_16 
REMARK    5  A    between atoms: C_16  and  C_15 
ROOT
ATOM      1  C   UNL d   1      53.013  33.049  53.691  0.00  0.00     0.137 A 
ATOM      2  N   UNL d   1      53.496  33.278  54.333  0.00  0.00    -0.259 N 
ATOM      3  N   UNL d   1      52.618  33.725  53.433  0.00  0.00    -0.287 N 
ATOM      4  C   UNL d   1      53.006  32.267  53.440  0.00  0.00     0.054 A 
ATOM      5  C   UNL d   1      53.967  32.711  54.715  0.00  0.00     0.266 A 
ATOM      6  C   UNL d   1      53.394  34.086  54.463  0.00  0.00     0.084 A 
ATOM      7  C   UNL d   1      52.843  34.367  53.898  0.00  0.00     0.082 A 
ATOM      8  C   UNL d   1      53.474  31.703  53.819  0.00  0.00     0.009 A 
ATOM      9  C   UNL d   1      53.958  31.919  54.459  0.00  0.00     0.061 A 
ATOM     10  O   UNL d   1      54.448  32.932  55.353  0.00  0.00    -0.267 OA
ATOM     11  C   UNL d   1      53.718  34.609  55.009  0.00  0.00     0.019 A 
ATOM     12  C   UNL d   1      53.466  30.913  53.565  0.00  0.00     0.000 C 
ATOM     13  C   UNL d   1      52.639  35.159  53.902  0.00  0.00     0.019 A 
ATOM     14  C   UNL d   1      53.502  35.399  54.998  0.00  0.00     0.002 A 
ATOM     15  C   UNL d   1      52.957  35.677  54.439  0.00  0.00     0.002 A 
ENDROOT
BRANCH   3  16
ATOM     16  C   UNL d   1      52.078  34.009  52.881  0.00  0.00     0.125 C 
BRANCH  16  17
ATOM     17  C   UNL d   1      51.277  33.822  52.954  0.00  0.00     0.231 C 
ATOM     18  O   UNL d   1      50.941  33.717  53.699  0.00  0.00    -0.283 OA
BRANCH  17  19
ATOM     19  C   UNL d   1      50.811  33.739  52.280  0.00  0.00     0.124 C 
BRANCH  19  20
ATOM     20  N   UNL d   1      50.126  34.187  52.194  0.00  0.00    -0.300 N 
ATOM     21  C   UNL d   1      49.777  34.258  51.450  0.00  0.00     0.080 A 
ATOM     22  C   UNL d   1      49.090  34.707  51.357  0.00  0.00     0.019 A 
ATOM     23  C   UNL d   1      48.752  35.083  52.010  0.00  0.00     0.003 A 
ATOM     24  C   UNL d   1      49.101  35.012  52.753  0.00  0.00     0.019 A 
ATOM     25  C   UNL d   1      48.068  35.531  51.925  0.00  0.00     0.000 C 
ATOM     26  C   UNL d   1      49.789  34.564  52.848  0.00  0.00     0.080 A 
ENDBRANCH  19  20
ENDBRANCH  17  19
ENDBRANCH  16  17
ENDBRANCH   3  16
BRANCH   4  27
ATOM     27  C   UNL d   1      52.533  32.042  52.809  0.00  0.00     0.125 C 
ATOM     28  N   UNL d   1      52.594  31.292  52.476  0.00  0.00    -0.146 N 
ENDBRANCH   4  27
TORSDOF 5
ENDMDL
