MODEL 1
REMARK VINA RESULT:      -7.8      0.000      0.000
REMARK  5 active torsions:
REMARK  status: ('A' for Active; 'I' for Inactive)
REMARK    1  A    between atoms: N_2  and  S_1 
REMARK    2  A    between atoms: C_8  and  S_1 
REMARK    3  A    between atoms: S_5  and  C_3 
REMARK    4  A    between atoms: C_13  and  S_5 
REMARK    5  A    between atoms: C_12  and  C_13 
ROOT
ATOM      1  N   UNL d   1      54.191  33.160  54.195  0.00  0.00    -0.208 N 
ATOM      2  C   UNL d   1      54.254  32.450  53.765  0.00  0.00     0.189 A 
ATOM      3  N   UNL d   1      54.864  32.535  53.211  0.00  0.00    -0.219 NA
ATOM      4  C   UNL d   1      54.767  33.688  53.902  0.00  0.00     0.114 A 
ATOM      5  C   UNL d   1      55.178  33.299  53.298  0.00  0.00     0.121 A 
ENDROOT
BRANCH   1   6
ATOM      6  S   UNL d   1      53.649  33.313  54.805  0.00  0.00     0.273 S 
ATOM      7  O   UNL d   1      54.020  32.719  55.233  0.00  0.00    -0.200 OA
ATOM      8  O   UNL d   1      53.240  33.278  55.526  0.00  0.00    -0.200 OA
BRANCH   6   9
ATOM      9  C   UNL d   1      53.262  33.915  54.389  0.00  0.00     0.104 A 
ATOM     10  C   UNL d   1      53.535  34.686  54.447  0.00  0.00     0.013 A 
ATOM     11  C   UNL d   1      53.150  35.284  54.033  0.00  0.00     0.001 A 
ATOM     12  C   UNL d   1      52.495  35.105  53.564  0.00  0.00     0.000 A 
ATOM     13  C   UNL d   1      52.225  34.332  53.509  0.00  0.00     0.001 A 
ATOM     14  C   UNL d   1      52.616  33.732  53.927  0.00  0.00     0.013 A 
ENDBRANCH   6   9
ENDBRANCH   1   6
BRANCH   2  15
ATOM     15  S   UNL d   1      53.783  31.770  53.875  0.00  0.00    -0.049 SA
BRANCH  15  16
ATOM     16  C   UNL d   1      53.902  31.106  53.396  0.00  0.00     0.040 C 
BRANCH  16  17
ATOM     17  C   UNL d   1      53.449  30.428  53.518  0.00  0.00     0.026 A 
ATOM     18  C   UNL d   1      52.746  30.307  53.070  0.00  0.00     0.099 A 
ATOM     19  N   UNL d   1      52.283  29.636  53.179  0.00  0.00    -0.242 NA
ATOM     20  C   UNL d   1      52.521  29.078  53.740  0.00  0.00     0.099 A 
ATOM     21  C   UNL d   1      53.209  29.191  54.181  0.00  0.00     0.021 A 
ATOM     22  C   UNL d   1      53.671  29.866  54.068  0.00  0.00     0.004 A 
ENDBRANCH  16  17
ENDBRANCH  15  16
ENDBRANCH   2  15
TORSDOF 5
ENDMDL
MODEL 2
REMARK VINA RESULT:      -7.5      1.855      4.100
REMARK  5 active torsions:
REMARK  status: ('A' for Active; 'I' for Inactive)
REMARK    1  A    between atoms: N_2  and  S_1 
REMARK    2  A    between atoms: C_8  and  S_1 
REMARK    3  A    between atoms: S_5  and  C_3 
REMARK    4  A    between atoms: C_13  and  S_5 
REMARK    5  A    between atoms: C_12  and  C_13 
ROOT
ATOM      1  N   UNL d   1      53.366  31.675  53.417  0.00  0.00    -0.208 N 
ATOM      2  C   UNL d   1      53.008  32.408  53.584  0.00  0.00     0.189 A 
ATOM      3  N   UNL d   1      53.406  32.752  54.225  0.00  0.00    -0.219 NA
ATOM      4  C   UNL d   1      53.991  31.567  53.960  0.00  0.00     0.114 A 
ATOM      5  C   UNL d   1      54.011  32.231  54.453  0.00  0.00     0.121 A 
ENDROOT
BRANCH   1   6
ATOM      6  S   UNL d   1      53.140  31.149  52.817  0.00  0.00     0.273 S 
ATOM      7  O   UNL d   1      53.175  31.783  52.297  0.00  0.00    -0.200 OA
ATOM      8  O   UNL d   1      52.932  30.835  52.077  0.00  0.00    -0.200 OA
BRANCH   6   9
ATOM      9  C   UNL d   1      53.099  30.497  53.325  0.00  0.00     0.104 A 
ATOM     10  C   UNL d   1      52.370  30.255  53.612  0.00  0.00     0.013 A 
ATOM     11  C   UNL d   1      52.330  29.606  54.118  0.00  0.00     0.001 A 
ATOM     12  C   UNL d   1      53.019  29.206  54.331  0.00  0.00     0.000 A 
ATOM     13  C   UNL d   1      53.746  29.452  54.041  0.00  0.00     0.001 A 
ATOM     14  C   UNL d   1      53.783  30.105  53.532  0.00  0.00     0.013 A 
ENDBRANCH   6   9
ENDBRANCH   1   6
BRANCH   2  15
ATOM     15  S   UNL d   1      52.359  32.738  53.176  0.00  0.00    -0.049 SA
BRANCH  15  16
ATOM     16  C   UNL d   1      52.066  33.478  53.401  0.00  0.00     0.040 C 
BRANCH  16  17
ATOM     17  C   UNL d   1      51.416  33.797  53.006  0.00  0.00     0.026 A 
ATOM     18  C   UNL d   1      50.649  33.747  53.351  0.00  0.00     0.099 A 
ATOM     19  N   UNL d   1      49.991  34.061  52.970  0.00  0.00    -0.242 NA
ATOM     20  C   UNL d   1      50.095  34.428  52.238  0.00  0.00     0.099 A 
ATOM     21  C   UNL d   1      50.844  34.480  51.895  0.00  0.00     0.021 A 
ATOM     22  C   UNL d   1      51.503  34.164  52.281  0.00  0.00     0.004 A 
ENDBRANCH  16  17
ENDBRANCH  15  16
ENDBRANCH   2  15
TORSDOF 5
ENDMDL
MODEL 3
REMARK VINA RESULT:      -6.9      2.372      3.960
REMARK  5 active torsions:
REMARK  status: ('A' for Active; 'I' for Inactive)
REMARK    1  A    between atoms: N_2  and  S_1 
REMARK    2  A    between atoms: C_8  and  S_1 
REMARK    3  A    between atoms: S_5  and  C_3 
REMARK    4  A    between atoms: C_13  and  S_5 
REMARK    5  A    between atoms: C_12  and  C_13 
ROOT
ATOM      1  N   UNL d   1      52.898  33.449  53.210  0.00  0.00    -0.208 N 
ATOM      2  C   UNL d   1      52.093  33.312  53.047  0.00  0.00     0.189 A 
ATOM      3  N   UNL d   1      51.995  32.505  52.885  0.00  0.00    -0.219 NA
ATOM      4  C   UNL d   1      53.299  32.719  53.148  0.00  0.00     0.114 A 
ATOM      5  C   UNL d   1      52.739  32.143  52.948  0.00  0.00     0.121 A 
ENDROOT
BRANCH   1   6
ATOM      6  S   UNL d   1      53.238  34.182  53.400  0.00  0.00     0.273 S 
ATOM      7  O   UNL d   1      52.845  34.492  52.750  0.00  0.00    -0.200 OA
ATOM      8  O   UNL d   1      53.446  34.985  53.383  0.00  0.00    -0.200 OA
BRANCH   6   9
ATOM      9  C   UNL d   1      53.642  33.888  54.059  0.00  0.00     0.104 A 
ATOM     10  C   UNL d   1      54.376  33.537  53.959  0.00  0.00     0.013 A 
ATOM     11  C   UNL d   1      54.778  33.244  54.616  0.00  0.00     0.001 A 
ATOM     12  C   UNL d   1      54.442  33.307  55.367  0.00  0.00     0.000 A 
ATOM     13  C   UNL d   1      53.706  33.660  55.462  0.00  0.00     0.001 A 
ATOM     14  C   UNL d   1      53.305  33.953  54.798  0.00  0.00     0.013 A 
ENDBRANCH   6   9
ENDBRANCH   1   6
BRANCH   2  15
ATOM     15  S   UNL d   1      51.490  33.889  53.047  0.00  0.00    -0.049 SA
BRANCH  15  16
ATOM     16  C   UNL d   1      50.699  33.657  52.977  0.00  0.00     0.040 C 
BRANCH  16  17
ATOM     17  C   UNL d   1      50.121  34.221  52.814  0.00  0.00     0.026 A 
ATOM     18  C   UNL d   1      49.891  34.771  53.409  0.00  0.00     0.099 A 
ATOM     19  N   UNL d   1      49.315  35.340  53.262  0.00  0.00    -0.242 NA
ATOM     20  C   UNL d   1      48.964  35.363  52.515  0.00  0.00     0.099 A 
ATOM     21  C   UNL d   1      49.185  34.827  51.928  0.00  0.00     0.021 A 
ATOM     22  C   UNL d   1      49.763  34.257  52.080  0.00  0.00     0.004 A 
ENDBRANCH  16  17
ENDBRANCH  15  16
ENDBRANCH   2  15
TORSDOF 5
ENDMDL
