MODEL 1
REMARK VINA RESULT:      -9.3      0.000      0.000
REMARK  3 active torsions:
REMARK  status: ('A' for Active; 'I' for Inactive)
REMARK    1  A    between atoms: N_11  and  C_4 
REMARK       I    between atoms: C_5  and  N_9 
REMARK       I    between atoms: N_12  and  C_5 
REMARK    2  A    between atoms: C_6  and  C_7 
REMARK    3  A    between atoms: C_14  and  N_12 
ROOT
ATOM      1  C   UNL d   1     -48.762  12.908  23.343  0.00  0.00     0.354 C 
ATOM      2  N   UNL d   1     -48.022  12.524  23.346  0.00  0.00    -0.253 N 
ATOM      3  N   UNL d   1     -46.558  11.777  23.348  0.00  0.00    -0.285 N 
ATOM      4  N   UNL d   1     -48.844  13.650  22.991  0.00  0.00    -0.192 NA
ATOM      5  O   UNL d   1     -49.417  12.541  23.694  0.00  0.00    -0.244 OA
ATOM      6  C   UNL d   1     -47.370  12.889  22.997  0.00  0.00     0.104 A 
ATOM      7  C   UNL d   1     -47.940  11.781  23.698  0.00  0.00     0.104 A 
ATOM      8  C   UNL d   1     -46.636  12.512  22.999  0.00  0.00     0.101 A 
ATOM      9  C   UNL d   1     -47.210  11.411  23.697  0.00  0.00     0.101 A 
ENDROOT
BRANCH   4  10
ATOM     10  C   UNL d   1     -49.578  14.027  22.989  0.00  0.00     0.090 A 
ATOM     11  C   UNL d   1     -49.641  14.807  22.726  0.00  0.00     0.089 A 
ATOM     12  C   UNL d   1     -50.374  15.181  22.725  0.00  0.00     0.005 A 
ATOM     13  C   UNL d   1     -51.040  14.781  22.985  0.00  0.00     0.000 A 
ATOM     14  C   UNL d   1     -50.975  13.997  23.249  0.00  0.00     0.002 A 
ATOM     15  C   UNL d   1     -50.245  13.627  23.249  0.00  0.00     0.019 A 
BRANCH  11  16
ATOM     16  C   UNL d   1     -48.970  15.210  22.464  0.00  0.00     0.420 C 
ATOM     17  F   UNL d   1     -48.299  15.612  22.203  0.00  0.00    -0.166 F 
ATOM     18  F   UNL d   1     -49.107  14.941  21.701  0.00  0.00    -0.166 F 
ATOM     19  F   UNL d   1     -48.833  15.480  23.232  0.00  0.00    -0.166 F 
ENDBRANCH  11  16
ENDBRANCH   4  10
BRANCH   3  20
ATOM     20  C   UNL d   1     -45.825  11.399  23.350  0.00  0.00     0.168 A 
ATOM     21  N   UNL d   1     -45.170  11.766  23.007  0.00  0.00    -0.144 NA
ATOM     22  N   UNL d   1     -44.441  11.389  23.011  0.00  0.00    -0.187 N 
ATOM     23  C   UNL d   1     -44.362  10.644  23.356  0.00  0.00     0.187 A 
ATOM     24  C   UNL d   1     -43.703  11.606  22.720  0.00  0.00     0.224 A 
ATOM     25  N   UNL d   1     -43.576  10.406  23.277  0.00  0.00    -0.127 NA
ATOM     26  C   UNL d   1     -45.012  10.276  23.698  0.00  0.00     0.044 A 
ATOM     27  N   UNL d   1     -43.173  11.011  22.880  0.00  0.00    -0.124 NA
ATOM     28  C   UNL d   1     -45.746  10.654  23.695  0.00  0.00     0.042 A 
ENDBRANCH   3  20
TORSDOF 3
ENDMDL
MODEL 2
REMARK VINA RESULT:      -9.1      1.196      1.609
REMARK  3 active torsions:
REMARK  status: ('A' for Active; 'I' for Inactive)
REMARK    1  A    between atoms: N_11  and  C_4 
REMARK       I    between atoms: C_5  and  N_9 
REMARK       I    between atoms: N_12  and  C_5 
REMARK    2  A    between atoms: C_6  and  C_7 
REMARK    3  A    between atoms: C_14  and  N_12 
ROOT
ATOM      1  C   UNL d   1     -48.241  13.871  22.998  0.00  0.00     0.354 C 
ATOM      2  N   UNL d   1     -47.605  13.336  23.061  0.00  0.00    -0.253 N 
ATOM      3  N   UNL d   1     -46.360  12.271  23.187  0.00  0.00    -0.285 N 
ATOM      4  N   UNL d   1     -49.019  13.602  23.054  0.00  0.00    -0.192 NA
ATOM      5  O   UNL d   1     -48.089  14.678  22.878  0.00  0.00    -0.244 OA
ATOM      6  C   UNL d   1     -47.757  12.534  23.180  0.00  0.00     0.104 A 
ATOM      7  C   UNL d   1     -46.827  13.606  23.005  0.00  0.00     0.104 A 
ATOM      8  C   UNL d   1     -47.129  12.001  23.243  0.00  0.00     0.101 A 
ATOM      9  C   UNL d   1     -46.209  13.074  23.068  0.00  0.00     0.101 A 
ENDROOT
BRANCH   4  10
ATOM     10  C   UNL d   1     -49.646  14.135  22.991  0.00  0.00     0.090 A 
ATOM     11  C   UNL d   1     -50.411  13.858  22.850  0.00  0.00     0.089 A 
ATOM     12  C   UNL d   1     -51.034  14.391  22.787  0.00  0.00     0.005 A 
ATOM     13  C   UNL d   1     -50.897  15.196  22.865  0.00  0.00     0.000 A 
ATOM     14  C   UNL d   1     -50.128  15.472  23.007  0.00  0.00     0.002 A 
ATOM     15  C   UNL d   1     -49.509  14.940  23.069  0.00  0.00     0.019 A 
BRANCH  11  16
ATOM     16  C   UNL d   1     -50.549  13.049  22.771  0.00  0.00     0.420 C 
ATOM     17  F   UNL d   1     -50.687  12.239  22.693  0.00  0.00    -0.166 F 
ATOM     18  F   UNL d   1     -50.638  12.985  23.585  0.00  0.00    -0.166 F 
ATOM     19  F   UNL d   1     -50.460  13.113  21.953  0.00  0.00    -0.166 F 
ENDBRANCH  11  16
ENDBRANCH   4  10
BRANCH   3  20
ATOM     20  C   UNL d   1     -45.733  11.739  23.250  0.00  0.00     0.168 A 
ATOM     21  N   UNL d   1     -44.997  11.927  22.928  0.00  0.00    -0.144 NA
ATOM     22  N   UNL d   1     -44.374  11.395  22.992  0.00  0.00    -0.187 N 
ATOM     23  C   UNL d   1     -44.483  10.674  23.377  0.00  0.00     0.187 A 
ATOM     24  C   UNL d   1     -43.594  11.422  22.734  0.00  0.00     0.224 A 
ATOM     25  N   UNL d   1     -43.770  10.260  23.355  0.00  0.00    -0.127 NA
ATOM     26  C   UNL d   1     -45.215  10.484  23.698  0.00  0.00     0.044 A 
ATOM     27  N   UNL d   1     -43.222  10.733  22.953  0.00  0.00    -0.124 NA
ATOM     28  C   UNL d   1     -45.842  11.017  23.635  0.00  0.00     0.042 A 
ENDBRANCH   3  20
TORSDOF 3
ENDMDL
MODEL 3
REMARK VINA RESULT:      -7.0      2.042      5.543
REMARK  3 active torsions:
REMARK  status: ('A' for Active; 'I' for Inactive)
REMARK    1  A    between atoms: N_11  and  C_4 
REMARK       I    between atoms: C_5  and  N_9 
REMARK       I    between atoms: N_12  and  C_5 
REMARK    2  A    between atoms: C_6  and  C_7 
REMARK    3  A    between atoms: C_14  and  N_12 
ROOT
ATOM      1  C   UNL d   1     -46.472  11.777  23.309  0.00  0.00     0.354 C 
ATOM      2  N   UNL d   1     -47.135  12.274  23.213  0.00  0.00    -0.253 N 
ATOM      3  N   UNL d   1     -48.434  13.261  23.018  0.00  0.00    -0.285 N 
ATOM      4  N   UNL d   1     -45.734  12.007  23.018  0.00  0.00    -0.192 NA
ATOM      5  O   UNL d   1     -46.556  11.050  23.698  0.00  0.00    -0.244 OA
ATOM      6  C   UNL d   1     -47.051  12.997  22.825  0.00  0.00     0.104 A 
ATOM      7  C   UNL d   1     -47.873  12.044  23.504  0.00  0.00     0.104 A 
ATOM      8  C   UNL d   1     -47.705  13.491  22.729  0.00  0.00     0.101 A 
ATOM      9  C   UNL d   1     -48.518  12.537  23.406  0.00  0.00     0.101 A 
ENDROOT
BRANCH   4  10
ATOM     10  C   UNL d   1     -45.080  11.512  23.114  0.00  0.00     0.090 A 
ATOM     11  C   UNL d   1     -44.363  11.700  22.751  0.00  0.00     0.089 A 
ATOM     12  C   UNL d   1     -43.713  11.206  22.849  0.00  0.00     0.005 A 
ATOM     13  C   UNL d   1     -43.776  10.528  23.306  0.00  0.00     0.000 A 
ATOM     14  C   UNL d   1     -44.498  10.341  23.670  0.00  0.00     0.002 A 
ATOM     15  C   UNL d   1     -45.143  10.834  23.571  0.00  0.00     0.019 A 
BRANCH  11  16
ATOM     16  C   UNL d   1     -44.300  12.383  22.292  0.00  0.00     0.420 C 
ATOM     17  F   UNL d   1     -44.236  13.065  21.833  0.00  0.00    -0.166 F 
ATOM     18  F   UNL d   1     -44.298  11.924  21.611  0.00  0.00    -0.166 F 
ATOM     19  F   UNL d   1     -44.301  12.843  22.976  0.00  0.00    -0.166 F 
ENDBRANCH  11  16
ENDBRANCH   4  10
BRANCH   3  20
ATOM     20  C   UNL d   1     -49.088  13.755  22.922  0.00  0.00     0.168 A 
ATOM     21  N   UNL d   1     -49.129  14.472  23.328  0.00  0.00    -0.144 NA
ATOM     22  N   UNL d   1     -49.780  14.961  23.231  0.00  0.00    -0.187 N 
ATOM     23  C   UNL d   1     -50.394  14.738  22.727  0.00  0.00     0.187 A 
ATOM     24  C   UNL d   1     -49.977  15.692  23.552  0.00  0.00     0.224 A 
ATOM     25  N   UNL d   1     -50.966  15.332  22.740  0.00  0.00    -0.127 NA
ATOM     26  C   UNL d   1     -50.356  14.025  22.321  0.00  0.00     0.044 A 
ATOM     27  N   UNL d   1     -50.698  15.922  23.256  0.00  0.00    -0.124 NA
ATOM     28  C   UNL d   1     -49.702  13.531  22.418  0.00  0.00     0.042 A 
ENDBRANCH   3  20
TORSDOF 3
ENDMDL
