MODEL 1
REMARK VINA RESULT:      -3.8      0.000      0.000
REMARK  3 active torsions:
REMARK  status: ('A' for Active; 'I' for Inactive)
REMARK    1  A    between atoms: N_6  and  C_1 
REMARK    2  A    between atoms: C_7  and  N_2 
REMARK    3  A    between atoms: C_8  and  N_6 
ROOT
ATOM      1  C   UNL d   1      58.427   0.157  30.340  0.00  0.00     0.735 A 
ATOM      2  N   UNL d   1      58.875   0.149  29.644  0.00  0.00    -0.139 N 
ATOM      3  N   UNL d   1      58.929   0.333  30.976  0.00  0.00    -0.059 NA
ATOM      4  C   UNL d   1      59.657   0.320  29.847  0.00  0.00     0.100 A 
ATOM      5  C   UNL d   1      59.686   0.433  30.671  0.00  0.00     0.116 A 
ATOM      6  C   UNL d   1      60.344   0.388  29.396  0.00  0.00     0.020 A 
ATOM      7  C   UNL d   1      60.408   0.614  31.030  0.00  0.00     0.021 A 
ATOM      8  C   UNL d   1      61.058   0.568  29.759  0.00  0.00     0.002 A 
ATOM      9  C   UNL d   1      61.095   0.682  30.581  0.00  0.00     0.002 A 
ENDROOT
BRANCH   1  10
ATOM     10  N   UNL d   1      57.616   0.015  30.396  0.00  0.00    -0.061 NA
BRANCH  10  11
ATOM     11  C   UNL d   1      57.248  -0.012  31.129  0.00  0.00     0.100 A 
ATOM     12  C   UNL d   1      57.034  -0.738  31.444  0.00  0.00     0.020 A 
ATOM     13  C   UNL d   1      56.663  -0.777  32.180  0.00  0.00     0.002 A 
ATOM     14  C   UNL d   1      56.507  -0.077  32.604  0.00  0.00     0.000 A 
ATOM     15  C   UNL d   1      56.726   0.651  32.280  0.00  0.00     0.002 A 
ATOM     16  C   UNL d   1      57.093   0.682  31.549  0.00  0.00     0.020 A 
ENDBRANCH  10  11
ENDBRANCH   1  10
BRANCH   2  17
ATOM     17  C   UNL d   1      58.591  -0.003  28.887  0.00  0.00     0.082 C 
ATOM     18  C   UNL d   1      58.224   0.601  28.455  0.00  0.00     0.020 C 
ATOM     19  C   UNL d   1      58.667  -0.751  28.554  0.00  0.00     0.020 C 
ENDBRANCH   2  17
TORSDOF 3
ENDMDL
MODEL 2
REMARK VINA RESULT:      -3.7      1.575      3.483
REMARK  3 active torsions:
REMARK  status: ('A' for Active; 'I' for Inactive)
REMARK    1  A    between atoms: N_6  and  C_1 
REMARK    2  A    between atoms: C_7  and  N_2 
REMARK    3  A    between atoms: C_8  and  N_6 
ROOT
ATOM      1  C   UNL d   1      58.569  -1.025  29.472  0.00  0.00     0.735 A 
ATOM      2  N   UNL d   1      58.523  -0.212  29.620  0.00  0.00    -0.139 N 
ATOM      3  N   UNL d   1      58.106  -1.422  30.032  0.00  0.00    -0.059 NA
ATOM      4  C   UNL d   1      58.031  -0.102  30.273  0.00  0.00     0.100 A 
ATOM      5  C   UNL d   1      57.775  -0.854  30.525  0.00  0.00     0.116 A 
ATOM      6  C   UNL d   1      57.781   0.574  30.672  0.00  0.00     0.020 A 
ATOM      7  C   UNL d   1      57.270  -0.911  31.177  0.00  0.00     0.021 A 
ATOM      8  C   UNL d   1      57.279   0.509  31.318  0.00  0.00     0.002 A 
ATOM      9  C   UNL d   1      57.020  -0.236  31.576  0.00  0.00     0.002 A 
ENDROOT
BRANCH   1  10
ATOM     10  N   UNL d   1      59.002  -1.384  28.868  0.00  0.00    -0.061 NA
BRANCH  10  11
ATOM     11  C   UNL d   1      59.089  -2.200  28.847  0.00  0.00     0.100 A 
ATOM     12  C   UNL d   1      59.744  -2.543  29.203  0.00  0.00     0.020 A 
ATOM     13  C   UNL d   1      59.841  -3.362  29.188  0.00  0.00     0.002 A 
ATOM     14  C   UNL d   1      59.274  -3.841  28.811  0.00  0.00     0.000 A 
ATOM     15  C   UNL d   1      58.617  -3.489  28.455  0.00  0.00     0.002 A 
ATOM     16  C   UNL d   1      58.527  -2.675  28.474  0.00  0.00     0.020 A 
ENDBRANCH  10  11
ENDBRANCH   1  10
BRANCH   2  17
ATOM     17  C   UNL d   1      58.901   0.380  29.191  0.00  0.00     0.082 C 
ATOM     18  C   UNL d   1      58.551   0.678  28.502  0.00  0.00     0.020 C 
ATOM     19  C   UNL d   1      59.625   0.680  29.441  0.00  0.00     0.020 C 
ENDBRANCH   2  17
TORSDOF 3
ENDMDL
MODEL 3
REMARK VINA RESULT:      -3.0      1.101      2.114
REMARK  3 active torsions:
REMARK  status: ('A' for Active; 'I' for Inactive)
REMARK    1  A    between atoms: N_6  and  C_1 
REMARK    2  A    between atoms: C_7  and  N_2 
REMARK    3  A    between atoms: C_8  and  N_6 
ROOT
ATOM      1  C   UNL d   1      58.644  -0.159  29.924  0.00  0.00     0.735 A 
ATOM      2  N   UNL d   1      59.269  -0.306  29.402  0.00  0.00    -0.139 N 
ATOM      3  N   UNL d   1      58.221  -0.862  30.035  0.00  0.00    -0.059 NA
ATOM      4  C   UNL d   1      59.234  -1.102  29.186  0.00  0.00     0.100 A 
ATOM      5  C   UNL d   1      58.584  -1.442  29.580  0.00  0.00     0.116 A 
ATOM      6  C   UNL d   1      59.702  -1.562  28.688  0.00  0.00     0.020 A 
ATOM      7  C   UNL d   1      58.416  -2.243  29.465  0.00  0.00     0.021 A 
ATOM      8  C   UNL d   1      59.529  -2.357  28.578  0.00  0.00     0.002 A 
ATOM      9  C   UNL d   1      58.883  -2.704  28.967  0.00  0.00     0.002 A 
ENDROOT
BRANCH   1  10
ATOM     10  N   UNL d   1      58.470   0.565  30.279  0.00  0.00    -0.061 NA
BRANCH  10  11
ATOM     11  C   UNL d   1      57.947   0.604  30.910  0.00  0.00     0.100 A 
ATOM     12  C   UNL d   1      58.243   0.641  31.674  0.00  0.00     0.020 A 
ATOM     13  C   UNL d   1      57.727   0.680  32.317  0.00  0.00     0.002 A 
ATOM     14  C   UNL d   1      56.904   0.682  32.189  0.00  0.00     0.000 A 
ATOM     15  C   UNL d   1      56.613   0.644  31.417  0.00  0.00     0.002 A 
ATOM     16  C   UNL d   1      57.131   0.606  30.784  0.00  0.00     0.020 A 
ENDBRANCH  10  11
ENDBRANCH   1  10
BRANCH   2  17
ATOM     17  C   UNL d   1      59.824   0.244  29.144  0.00  0.00     0.082 C 
ATOM     18  C   UNL d   1      60.519   0.364  29.578  0.00  0.00     0.020 C 
ATOM     19  C   UNL d   1      59.696   0.677  28.456  0.00  0.00     0.020 C 
ENDBRANCH   2  17
TORSDOF 3
ENDMDL
MODEL 4
REMARK VINA RESULT:      -2.9      0.841      1.202
REMARK  3 active torsions:
REMARK  status: ('A' for Active; 'I' for Inactive)
REMARK    1  A    between atoms: N_6  and  C_1 
REMARK    2  A    between atoms: C_7  and  N_2 
REMARK    3  A    between atoms: C_8  and  N_6 
ROOT
ATOM      1  C   UNL d   1      57.754   0.351  31.197  0.00  0.00     0.735 A 
ATOM      2  N   UNL d   1      58.251   0.260  30.541  0.00  0.00    -0.139 N 
ATOM      3  N   UNL d   1      58.220   0.524  31.860  0.00  0.00    -0.059 NA
ATOM      4  C   UNL d   1      59.028   0.377  30.796  0.00  0.00     0.100 A 
ATOM      5  C   UNL d   1      59.004   0.540  31.612  0.00  0.00     0.116 A 
ATOM      6  C   UNL d   1      59.750   0.358  30.400  0.00  0.00     0.020 A 
ATOM      7  C   UNL d   1      59.710   0.682  32.017  0.00  0.00     0.021 A 
ATOM      8  C   UNL d   1      60.448   0.499  30.809  0.00  0.00     0.002 A 
ATOM      9  C   UNL d   1      60.432   0.663  31.622  0.00  0.00     0.002 A 
ENDROOT
BRANCH   1  10
ATOM     10  N   UNL d   1      56.932   0.281  31.195  0.00  0.00    -0.061 NA
BRANCH  10  11
ATOM     11  C   UNL d   1      56.531   0.070  31.879  0.00  0.00     0.100 A 
ATOM     12  C   UNL d   1      56.508  -0.718  32.104  0.00  0.00     0.020 A 
ATOM     13  C   UNL d   1      56.108  -0.941  32.789  0.00  0.00     0.002 A 
ATOM     14  C   UNL d   1      55.726  -0.365  33.254  0.00  0.00     0.000 A 
ATOM     15  C   UNL d   1      55.754   0.427  33.022  0.00  0.00     0.002 A 
ATOM     16  C   UNL d   1      56.153   0.641  32.340  0.00  0.00     0.020 A 
ENDBRANCH  10  11
ENDBRANCH   1  10
BRANCH   2  17
ATOM     17  C   UNL d   1      58.013   0.084  29.774  0.00  0.00     0.082 C 
ATOM     18  C   UNL d   1      58.027  -0.699  29.506  0.00  0.00     0.020 C 
ATOM     19  C   UNL d   1      57.760   0.681  29.267  0.00  0.00     0.020 C 
ENDBRANCH   2  17
TORSDOF 3
ENDMDL
