MODEL 1
REMARK VINA RESULT:      -3.5      0.000      0.000
REMARK  7 active torsions:
REMARK  status: ('A' for Active; 'I' for Inactive)
REMARK    1  A    between atoms: C_13  and  N_2 
REMARK    2  A    between atoms: C_7  and  C_4 
REMARK    3  A    between atoms: O_19  and  C_7 
REMARK    4  A    between atoms: C_9  and  C_18 
REMARK    5  A    between atoms: C_20  and  C_13 
REMARK    6  A    between atoms: O_16  and  C_15 
REMARK    7  A    between atoms: C_18  and  O_16 
ROOT
ATOM      1  C   UNL d   1      31.139  16.366 -24.443  0.00  0.00     0.265 A 
ATOM      2  N   UNL d   1      30.463  16.836 -24.490  0.00  0.00    -0.272 N 
ATOM      3  C   UNL d   1      31.837  16.682 -24.146  0.00  0.00     0.059 A 
ATOM      4  C   UNL d   1      31.862  17.467 -23.895  0.00  0.00     0.029 A 
ATOM      5  C   UNL d   1      31.190  17.937 -23.941  0.00  0.00     0.021 A 
ATOM      6  C   UNL d   1      30.488  17.622 -24.240  0.00  0.00     0.083 A 
ATOM      7  O   UNL d   1      31.114  15.581 -24.693  0.00  0.00    -0.267 OA
ATOM      8  C   UNL d   1      32.564  17.783 -23.597  0.00  0.00     0.100 A 
ATOM      9  C   UNL d   1      32.513  16.212 -24.098  0.00  0.00     0.005 A 
ATOM     10  C   UNL d   1      33.216  16.527 -23.800  0.00  0.00     0.002 A 
ATOM     11  C   UNL d   1      33.241  17.312 -23.549  0.00  0.00     0.025 A 
ENDROOT
BRANCH   8  12
ATOM     12  O   UNL d   1      32.590  18.569 -23.346  0.00  0.00    -0.303 OA
BRANCH  12  13
ATOM     13  C   UNL d   1      33.202  18.825 -22.855  0.00  0.00     0.147 C 
BRANCH  13  14
ATOM     14  C   UNL d   1      33.194  19.593 -22.554  0.00  0.00     0.125 A 
ATOM     15  O   UNL d   1      33.218  20.336 -22.928  0.00  0.00    -0.300 OA
ATOM     16  C   UNL d   1      33.195  20.910 -22.333  0.00  0.00     0.163 A 
ATOM     17  C   UNL d   1      33.158  20.537 -21.609  0.00  0.00     0.032 A 
ATOM     18  C   UNL d   1      33.157  19.718 -21.744  0.00  0.00     0.029 A 
BRANCH  16  19
ATOM     19  C   UNL d   1      33.208  21.739 -22.452  0.00  0.00     0.319 C 
ATOM     20  O   UNL d   1      33.241  22.044 -23.210  0.00  0.00    -0.257 OA
BRANCH  19  21
ATOM     21  O   UNL d   1      33.187  22.255 -21.792  0.00  0.00    -0.294 OA
ATOM     22  C   UNL d   1      33.122  23.071 -21.903  0.00  0.00     0.185 C 
ENDBRANCH  19  21
ENDBRANCH  16  19
ENDBRANCH  13  14
ENDBRANCH  12  13
ENDBRANCH   8  12
BRANCH   2  23
ATOM     23  C   UNL d   1      29.755  16.513 -24.792  0.00  0.00     0.083 C 
BRANCH  23  24
ATOM     24  C   UNL d   1      29.108  16.390 -24.296  0.00  0.00     0.018 A 
ATOM     25  C   UNL d   1      28.710  17.037 -23.977  0.00  0.00     0.002 A 
ATOM     26  C   UNL d   1      28.063  16.914 -23.480  0.00  0.00     0.000 A 
ATOM     27  C   UNL d   1      27.817  16.145 -23.305  0.00  0.00     0.000 A 
ATOM     28  C   UNL d   1      28.218  15.505 -23.626  0.00  0.00     0.000 A 
ATOM     29  C   UNL d   1      28.866  15.628 -24.123  0.00  0.00     0.002 A 
ENDBRANCH  23  24
ENDBRANCH   2  23
TORSDOF 7
ENDMDL
