MODEL 1
REMARK VINA RESULT:      -3.8      0.000      0.000
REMARK  3 active torsions:
REMARK  status: ('A' for Active; 'I' for Inactive)
REMARK    1  A    between atoms: N_9  and  C_2 
REMARK    2  A    between atoms: C_15  and  C_7 
REMARK    3  A    between atoms: C_11  and  C_14 
ROOT
ATOM      1  C   UNL d   1     -40.168  14.612  20.237  0.00  0.00     0.152 A 
ATOM      2  C   UNL d   1     -40.486  14.415  20.979  0.00  0.00     0.174 A 
ATOM      3  C   UNL d   1     -39.409  14.947  20.186  0.00  0.00     0.111 A 
ATOM      4  N   UNL d   1     -40.036  14.556  21.669  0.00  0.00    -0.207 NA
ATOM      5  N   UNL d   1     -38.966  15.086  20.865  0.00  0.00    -0.225 NA
ATOM      6  O   UNL d   1     -40.614  14.472  19.550  0.00  0.00    -0.302 OA
ATOM      7  C   UNL d   1     -39.274  14.893  21.610  0.00  0.00     0.164 A 
ATOM      8  C   UNL d   1     -39.544  15.001  18.755  0.00  0.00     0.043 A 
ATOM      9  C   UNL d   1     -40.303  14.666  18.806  0.00  0.00     0.102 A 
ATOM     10  C   UNL d   1     -39.235  15.194  18.014  0.00  0.00     0.004 A 
ATOM     11  C   UNL d   1     -40.744  14.527  18.132  0.00  0.00     0.025 A 
ATOM     12  C   UNL d   1     -39.678  15.054  17.336  0.00  0.00     0.000 A 
ATOM     13  C   UNL d   1     -40.436  14.720  17.395  0.00  0.00     0.002 A 
ENDROOT
BRANCH   2  14
ATOM     14  N   UNL d   1     -41.237  14.083  21.037  0.00  0.00    -0.287 N 
ATOM     15  C   UNL d   1     -41.895  14.568  21.020  0.00  0.00     0.082 A 
ATOM     16  C   UNL d   1     -42.643  14.233  21.079  0.00  0.00     0.025 A 
ATOM     17  C   UNL d   1     -42.727  13.416  21.154  0.00  0.00     0.067 A 
ATOM     18  C   UNL d   1     -42.064  12.938  21.170  0.00  0.00     0.025 A 
ATOM     19  C   UNL d   1     -41.314  13.269  21.111  0.00  0.00     0.082 A 
BRANCH  17  20
ATOM     20  C   UNL d   1     -43.501  13.075  21.214  0.00  0.00     0.211 C 
ATOM     21  O   UNL d   1     -44.000  13.268  21.869  0.00  0.00    -0.644 OA
ATOM     22  O   UNL d   1     -43.772  12.541  20.618  0.00  0.00    -0.644 OA
ENDBRANCH  17  20
ENDBRANCH   2  14
BRANCH   7  23
ATOM     23  C   UNL d   1     -38.832  15.032  22.284  0.00  0.00     0.036 A 
ATOM     24  C   UNL d   1     -38.800  15.778  22.606  0.00  0.00     0.003 A 
ATOM     25  C   UNL d   1     -38.353  15.922  23.289  0.00  0.00     0.000 A 
ATOM     26  C   UNL d   1     -37.940  15.305  23.640  0.00  0.00     0.000 A 
ATOM     27  C   UNL d   1     -37.972  14.543  23.311  0.00  0.00     0.000 A 
ATOM     28  C   UNL d   1     -38.414  14.412  22.640  0.00  0.00     0.003 A 
ENDBRANCH   7  23
TORSDOF 3
ENDMDL
MODEL 2
REMARK VINA RESULT:      -3.0      6.267      7.680
REMARK  3 active torsions:
REMARK  status: ('A' for Active; 'I' for Inactive)
REMARK    1  A    between atoms: N_9  and  C_2 
REMARK    2  A    between atoms: C_15  and  C_7 
REMARK    3  A    between atoms: C_11  and  C_14 
ROOT
ATOM      1  C   UNL d   1     -46.839  12.884  22.911  0.00  0.00     0.152 A 
ATOM      2  C   UNL d   1     -47.141  12.128  23.076  0.00  0.00     0.174 A 
ATOM      3  C   UNL d   1     -46.017  13.008  22.892  0.00  0.00     0.111 A 
ATOM      4  N   UNL d   1     -46.612  11.498  23.223  0.00  0.00    -0.207 NA
ATOM      5  N   UNL d   1     -45.496  12.388  23.036  0.00  0.00    -0.225 NA
ATOM      6  O   UNL d   1     -47.364  13.511  22.765  0.00  0.00    -0.302 OA
ATOM      7  C   UNL d   1     -45.787  11.630  23.202  0.00  0.00     0.164 A 
ATOM      8  C   UNL d   1     -46.248  14.394  22.580  0.00  0.00     0.043 A 
ATOM      9  C   UNL d   1     -47.069  14.270  22.599  0.00  0.00     0.102 A 
ATOM     10  C   UNL d   1     -45.956  15.148  22.415  0.00  0.00     0.004 A 
ATOM     11  C   UNL d   1     -47.589  14.885  22.456  0.00  0.00     0.025 A 
ATOM     12  C   UNL d   1     -46.477  15.767  22.272  0.00  0.00     0.000 A 
ATOM     13  C   UNL d   1     -47.297  15.635  22.292  0.00  0.00     0.002 A 
ENDROOT
BRANCH   2  14
ATOM     14  N   UNL d   1     -47.954  11.998  23.097  0.00  0.00    -0.287 N 
ATOM     15  C   UNL d   1     -48.406  12.363  23.671  0.00  0.00     0.082 A 
ATOM     16  C   UNL d   1     -49.217  12.230  23.688  0.00  0.00     0.025 A 
ATOM     17  C   UNL d   1     -49.568  11.733  23.131  0.00  0.00     0.067 A 
ATOM     18  C   UNL d   1     -49.107  11.371  22.560  0.00  0.00     0.025 A 
ATOM     19  C   UNL d   1     -48.296  11.502  22.539  0.00  0.00     0.082 A 
BRANCH  17  20
ATOM     20  C   UNL d   1     -50.405  11.598  23.152  0.00  0.00     0.211 C 
ATOM     21  O   UNL d   1     -50.726  11.003  23.661  0.00  0.00    -0.644 OA
ATOM     22  O   UNL d   1     -50.917  12.059  22.664  0.00  0.00    -0.644 OA
ENDBRANCH  17  20
ENDBRANCH   2  14
BRANCH   7  23
ATOM     23  C   UNL d   1     -45.267  11.015  23.345  0.00  0.00     0.036 A 
ATOM     24  C   UNL d   1     -44.465  11.136  23.290  0.00  0.00     0.003 A 
ATOM     25  C   UNL d   1     -43.936  10.514  23.435  0.00  0.00     0.000 A 
ATOM     26  C   UNL d   1     -44.227   9.773  23.634  0.00  0.00     0.000 A 
ATOM     27  C   UNL d   1     -45.047   9.649  23.690  0.00  0.00     0.000 A 
ATOM     28  C   UNL d   1     -45.558  10.266  23.547  0.00  0.00     0.003 A 
ENDBRANCH   7  23
TORSDOF 3
ENDMDL
MODEL 3
REMARK VINA RESULT:      -2.5      6.313      8.158
REMARK  3 active torsions:
REMARK  status: ('A' for Active; 'I' for Inactive)
REMARK    1  A    between atoms: N_9  and  C_2 
REMARK    2  A    between atoms: C_15  and  C_7 
REMARK    3  A    between atoms: C_11  and  C_14 
ROOT
ATOM      1  C   UNL d   1     -47.390  11.884  23.252  0.00  0.00     0.152 A 
ATOM      2  C   UNL d   1     -46.687  12.300  23.101  0.00  0.00     0.174 A 
ATOM      3  C   UNL d   1     -47.362  11.079  23.456  0.00  0.00     0.111 A 
ATOM      4  N   UNL d   1     -45.954  11.900  23.158  0.00  0.00    -0.207 NA
ATOM      5  N   UNL d   1     -46.642  10.685  23.511  0.00  0.00    -0.225 NA
ATOM      6  O   UNL d   1     -48.119  12.280  23.196  0.00  0.00    -0.302 OA
ATOM      7  C   UNL d   1     -45.934  11.091  23.363  0.00  0.00     0.164 A 
ATOM      8  C   UNL d   1     -48.798  11.067  23.549  0.00  0.00     0.043 A 
ATOM      9  C   UNL d   1     -48.826  11.872  23.345  0.00  0.00     0.102 A 
ATOM     10  C   UNL d   1     -49.502  10.661  23.697  0.00  0.00     0.004 A 
ATOM     11  C   UNL d   1     -49.542  12.264  23.289  0.00  0.00     0.025 A 
ATOM     12  C   UNL d   1     -50.221  11.055  23.641  0.00  0.00     0.000 A 
ATOM     13  C   UNL d   1     -50.241  11.860  23.437  0.00  0.00     0.002 A 
ENDROOT
BRANCH   2  14
ATOM     14  N   UNL d   1     -46.707  13.097  22.899  0.00  0.00    -0.287 N 
ATOM     15  C   UNL d   1     -46.598  13.663  23.478  0.00  0.00     0.082 A 
ATOM     16  C   UNL d   1     -46.618  14.458  23.272  0.00  0.00     0.025 A 
ATOM     17  C   UNL d   1     -46.748  14.680  22.489  0.00  0.00     0.067 A 
ATOM     18  C   UNL d   1     -46.856  14.108  21.915  0.00  0.00     0.025 A 
ATOM     19  C   UNL d   1     -46.836  13.311  22.117  0.00  0.00     0.082 A 
BRANCH  17  20
ATOM     20  C   UNL d   1     -46.768  15.502  22.280  0.00  0.00     0.211 C 
ATOM     21  O   UNL d   1     -47.510  15.900  22.196  0.00  0.00    -0.644 OA
ATOM     22  O   UNL d   1     -46.046  15.922  22.156  0.00  0.00    -0.644 OA
ENDBRANCH  17  20
ENDBRANCH   2  14
BRANCH   7  23
ATOM     23  C   UNL d   1     -45.219  10.697  23.419  0.00  0.00     0.036 A 
ATOM     24  C   UNL d   1     -45.198   9.914  23.635  0.00  0.00     0.003 A 
ATOM     25  C   UNL d   1     -44.475   9.513  23.692  0.00  0.00     0.000 A 
ATOM     26  C   UNL d   1     -43.776   9.913  23.529  0.00  0.00     0.000 A 
ATOM     27  C   UNL d   1     -43.797  10.714  23.308  0.00  0.00     0.000 A 
ATOM     28  C   UNL d   1     -44.512  11.098  23.255  0.00  0.00     0.003 A 
ENDBRANCH   7  23
TORSDOF 3
ENDMDL
MODEL 4
REMARK VINA RESULT:      -1.1      2.893      5.539
REMARK  3 active torsions:
REMARK  status: ('A' for Active; 'I' for Inactive)
REMARK    1  A    between atoms: N_9  and  C_2 
REMARK    2  A    between atoms: C_15  and  C_7 
REMARK    3  A    between atoms: C_11  and  C_14 
ROOT
ATOM      1  C   UNL d   1     -44.156  12.223  22.289  0.00  0.00     0.152 A 
ATOM      2  C   UNL d   1     -44.388  12.959  21.983  0.00  0.00     0.174 A 
ATOM      3  C   UNL d   1     -43.373  11.961  22.194  0.00  0.00     0.111 A 
ATOM      4  N   UNL d   1     -43.827  13.431  21.580  0.00  0.00    -0.207 NA
ATOM      5  N   UNL d   1     -42.821  12.425  21.798  0.00  0.00    -0.225 NA
ATOM      6  O   UNL d   1     -44.712  11.753  22.690  0.00  0.00    -0.302 OA
ATOM      7  C   UNL d   1     -43.042  13.161  21.489  0.00  0.00     0.164 A 
ATOM      8  C   UNL d   1     -43.705  10.754  22.904  0.00  0.00     0.043 A 
ATOM      9  C   UNL d   1     -44.488  11.016  22.999  0.00  0.00     0.102 A 
ATOM     10  C   UNL d   1     -43.483  10.021  23.211  0.00  0.00     0.004 A 
ATOM     11  C   UNL d   1     -45.038  10.556  23.392  0.00  0.00     0.025 A 
ATOM     12  C   UNL d   1     -44.034   9.558  23.607  0.00  0.00     0.000 A 
ATOM     13  C   UNL d   1     -44.816   9.826  23.698  0.00  0.00     0.002 A 
ENDROOT
BRANCH   2  14
ATOM     14  N   UNL d   1     -45.162  13.225  22.073  0.00  0.00    -0.287 N 
ATOM     15  C   UNL d   1     -45.742  12.956  21.564  0.00  0.00     0.082 A 
ATOM     16  C   UNL d   1     -46.513  13.224  21.657  0.00  0.00     0.025 A 
ATOM     17  C   UNL d   1     -46.697  13.758  22.258  0.00  0.00     0.067 A 
ATOM     18  C   UNL d   1     -46.110  14.022  22.763  0.00  0.00     0.025 A 
ATOM     19  C   UNL d   1     -45.338  13.756  22.673  0.00  0.00     0.082 A 
BRANCH  17  20
ATOM     20  C   UNL d   1     -47.494  14.032  22.351  0.00  0.00     0.211 C 
ATOM     21  O   UNL d   1     -48.139  13.567  22.061  0.00  0.00    -0.644 OA
ATOM     22  O   UNL d   1     -47.643  14.771  22.733  0.00  0.00    -0.644 OA
ENDBRANCH  17  20
ENDBRANCH   2  14
BRANCH   7  23
ATOM     23  C   UNL d   1     -42.491  13.621  21.095  0.00  0.00     0.036 A 
ATOM     24  C   UNL d   1     -42.256  13.423  20.342  0.00  0.00     0.003 A 
ATOM     25  C   UNL d   1     -41.698  13.887  19.941  0.00  0.00     0.000 A 
ATOM     26  C   UNL d   1     -41.383  14.550  20.309  0.00  0.00     0.000 A 
ATOM     27  C   UNL d   1     -41.624  14.753  21.078  0.00  0.00     0.000 A 
ATOM     28  C   UNL d   1     -42.172  14.291  21.464  0.00  0.00     0.003 A 
ENDBRANCH   7  23
TORSDOF 3
ENDMDL
