MODEL 1
REMARK VINA RESULT:      -8.8      0.000      0.000
REMARK  3 active torsions:
REMARK  status: ('A' for Active; 'I' for Inactive)
REMARK    1  A    between atoms: N_3  and  S_1 
REMARK    2  A    between atoms: C_7  and  S_1 
REMARK    3  A    between atoms: C_10  and  N_3 
ROOT
ATOM      1  S   UNL d   1      52.965  32.462  53.595  0.00  0.00     0.327 S 
ATOM      2  O   UNL d   1      52.303  31.978  53.648  0.00  0.00    -0.186 OA
ATOM      3  O   UNL d   1      53.713  32.129  53.526  0.00  0.00    -0.186 OA
ENDROOT
BRANCH   1   4
ATOM      4  N   UNL d   1      53.043  31.645  53.580  0.00  0.00    -0.314 NA
BRANCH   4   5
ATOM      5  C   UNL d   1      53.122  30.810  53.566  0.00  0.00     0.184 A 
ATOM      6  C   UNL d   1      52.980  30.400  52.857  0.00  0.00     0.226 A 
ATOM      7  O   UNL d   1      52.764  30.805  52.179  0.00  0.00    -0.284 OA
ATOM      8  C   UNL d   1      53.059  29.576  52.846  0.00  0.00     0.045 A 
ATOM      9  C   UNL d   1      53.277  29.172  53.534  0.00  0.00     0.004 A 
ATOM     10  C   UNL d   1      53.415  29.588  54.229  0.00  0.00     0.003 A 
ATOM     11  C   UNL d   1      53.337  30.409  54.242  0.00  0.00     0.036 A 
ENDBRANCH   4   5
ENDBRANCH   1   4
BRANCH   1  12
ATOM     12  C   UNL d   1      52.877  33.277  53.610  0.00  0.00     0.118 A 
ATOM     13  C   UNL d   1      53.125  33.703  54.266  0.00  0.00     0.035 A 
ATOM     14  C   UNL d   1      53.038  34.526  54.286  0.00  0.00     0.105 A 
ATOM     15  N   UNL d   1      53.230  35.092  54.855  0.00  0.00    -0.189 NA
ATOM     16  C   UNL d   1      52.699  34.921  53.638  0.00  0.00     0.104 A 
ATOM     17  C   UNL d   1      53.011  35.840  54.562  0.00  0.00     0.369 A 
ATOM     18  O   UNL d   1      53.104  36.559  54.951  0.00  0.00    -0.242 OA
ATOM     19  N   UNL d   1      52.684  35.727  53.811  0.00  0.00    -0.189 NA
ATOM     20  C   UNL d   1      52.451  34.488  52.977  0.00  0.00     0.022 A 
ATOM     21  C   UNL d   1      52.541  33.668  52.968  0.00  0.00     0.016 A 
ENDBRANCH   1  12
TORSDOF 3
ENDMDL
MODEL 2
REMARK VINA RESULT:      -8.5      1.374      4.638
REMARK  3 active torsions:
REMARK  status: ('A' for Active; 'I' for Inactive)
REMARK    1  A    between atoms: N_3  and  S_1 
REMARK    2  A    between atoms: C_7  and  S_1 
REMARK    3  A    between atoms: C_10  and  N_3 
ROOT
ATOM      1  S   UNL d   1      53.073  32.292  53.688  0.00  0.00     0.327 S 
ATOM      2  O   UNL d   1      52.407  32.682  53.966  0.00  0.00    -0.186 OA
ATOM      3  O   UNL d   1      53.744  32.719  53.479  0.00  0.00    -0.186 OA
ENDROOT
BRANCH   1   4
ATOM      4  N   UNL d   1      53.068  33.109  53.760  0.00  0.00    -0.314 NA
BRANCH   4   5
ATOM      5  C   UNL d   1      53.062  33.945  53.832  0.00  0.00     0.184 A 
ATOM      6  C   UNL d   1      53.366  34.296  54.521  0.00  0.00     0.226 A 
ATOM      7  O   UNL d   1      53.669  33.832  55.124  0.00  0.00    -0.284 OA
ATOM      8  C   UNL d   1      53.359  35.121  54.590  0.00  0.00     0.045 A 
ATOM      9  C   UNL d   1      53.052  35.584  53.978  0.00  0.00     0.004 A 
ATOM     10  C   UNL d   1      52.753  35.226  53.301  0.00  0.00     0.003 A 
ATOM     11  C   UNL d   1      52.760  34.405  53.231  0.00  0.00     0.036 A 
ENDBRANCH   4   5
ENDBRANCH   1   4
BRANCH   1  12
ATOM     12  C   UNL d   1      53.070  31.474  53.620  0.00  0.00     0.118 A 
ATOM     13  C   UNL d   1      53.246  31.009  54.273  0.00  0.00     0.035 A 
ATOM     14  C   UNL d   1      53.243  30.183  54.209  0.00  0.00     0.105 A 
ATOM     15  N   UNL d   1      53.394  29.583  54.754  0.00  0.00    -0.189 NA
ATOM     16  C   UNL d   1      53.061  29.827  53.480  0.00  0.00     0.104 A 
ATOM     17  C   UNL d   1      53.306  28.852  54.366  0.00  0.00     0.369 A 
ATOM     18  O   UNL d   1      53.406  28.108  54.705  0.00  0.00    -0.242 OA
ATOM     19  N   UNL d   1      53.101  29.009  53.581  0.00  0.00    -0.189 NA
ATOM     20  C   UNL d   1      52.884  30.300  52.824  0.00  0.00     0.022 A 
ATOM     21  C   UNL d   1      52.890  31.121  52.899  0.00  0.00     0.016 A 
ENDBRANCH   1  12
TORSDOF 3
ENDMDL
MODEL 3
REMARK VINA RESULT:      -8.4      2.455      3.569
REMARK  3 active torsions:
REMARK  status: ('A' for Active; 'I' for Inactive)
REMARK    1  A    between atoms: N_3  and  S_1 
REMARK    2  A    between atoms: C_7  and  S_1 
REMARK    3  A    between atoms: C_10  and  N_3 
ROOT
ATOM      1  S   UNL d   1      52.103  34.026  53.290  0.00  0.00     0.327 S 
ATOM      2  O   UNL d   1      52.122  33.428  53.853  0.00  0.00    -0.186 OA
ATOM      3  O   UNL d   1      52.778  34.471  53.140  0.00  0.00    -0.186 OA
ENDROOT
BRANCH   1   4
ATOM      4  N   UNL d   1      52.792  33.867  53.707  0.00  0.00    -0.314 NA
BRANCH   4   5
ATOM      5  C   UNL d   1      53.496  33.704  54.133  0.00  0.00     0.184 A 
ATOM      6  C   UNL d   1      53.686  34.165  54.797  0.00  0.00     0.226 A 
ATOM      7  O   UNL d   1      53.192  34.773  55.036  0.00  0.00    -0.284 OA
ATOM      8  C   UNL d   1      54.382  34.001  55.216  0.00  0.00     0.045 A 
ATOM      9  C   UNL d   1      54.877  33.386  54.970  0.00  0.00     0.004 A 
ATOM     10  C   UNL d   1      54.679  32.937  54.311  0.00  0.00     0.003 A 
ATOM     11  C   UNL d   1      53.987  33.098  53.894  0.00  0.00     0.036 A 
ENDBRANCH   4   5
ENDBRANCH   1   4
BRANCH   1  12
ATOM     12  C   UNL d   1      51.410  34.178  52.879  0.00  0.00     0.118 A 
ATOM     13  C   UNL d   1      50.784  34.551  53.255  0.00  0.00     0.035 A 
ATOM     14  C   UNL d   1      50.083  34.707  52.843  0.00  0.00     0.105 A 
ATOM     15  N   UNL d   1      49.375  35.065  53.067  0.00  0.00    -0.189 NA
ATOM     16  C   UNL d   1      50.015  34.483  52.046  0.00  0.00     0.104 A 
ATOM     17  C   UNL d   1      48.864  35.065  52.409  0.00  0.00     0.369 A 
ATOM     18  O   UNL d   1      48.100  35.370  52.389  0.00  0.00    -0.242 OA
ATOM     19  N   UNL d   1      49.265  34.705  51.783  0.00  0.00    -0.189 NA
ATOM     20  C   UNL d   1      50.649  34.106  51.669  0.00  0.00     0.022 A 
ATOM     21  C   UNL d   1      51.343  33.956  52.089  0.00  0.00     0.016 A 
ENDBRANCH   1  12
TORSDOF 3
ENDMDL
MODEL 4
REMARK VINA RESULT:      -8.1      2.341      3.962
REMARK  3 active torsions:
REMARK  status: ('A' for Active; 'I' for Inactive)
REMARK    1  A    between atoms: N_3  and  S_1 
REMARK    2  A    between atoms: C_7  and  S_1 
REMARK    3  A    between atoms: C_10  and  N_3 
ROOT
ATOM      1  S   UNL d   1      51.754  33.862  53.090  0.00  0.00     0.327 S 
ATOM      2  O   UNL d   1      51.048  33.495  53.291  0.00  0.00    -0.186 OA
ATOM      3  O   UNL d   1      51.759  34.470  52.536  0.00  0.00    -0.186 OA
ENDROOT
BRANCH   1   4
ATOM      4  N   UNL d   1      51.048  34.096  52.742  0.00  0.00    -0.314 NA
BRANCH   4   5
ATOM      5  C   UNL d   1      50.328  34.335  52.386  0.00  0.00     0.184 A 
ATOM      6  C   UNL d   1      49.812  34.834  52.806  0.00  0.00     0.226 A 
ATOM      7  O   UNL d   1      50.005  35.091  53.559  0.00  0.00    -0.284 OA
ATOM      8  C   UNL d   1      49.101  35.068  52.452  0.00  0.00     0.045 A 
ATOM      9  C   UNL d   1      48.912  34.805  51.691  0.00  0.00     0.004 A 
ATOM     10  C   UNL d   1      49.429  34.311  51.286  0.00  0.00     0.003 A 
ATOM     11  C   UNL d   1      50.137  34.077  51.636  0.00  0.00     0.036 A 
ENDBRANCH   4   5
ENDBRANCH   1   4
BRANCH   1  12
ATOM     12  C   UNL d   1      52.455  33.622  53.442  0.00  0.00     0.118 A 
ATOM     13  C   UNL d   1      52.835  34.116  53.976  0.00  0.00     0.035 A 
ATOM     14  C   UNL d   1      53.542  33.877  54.334  0.00  0.00     0.105 A 
ATOM     15  N   UNL d   1      54.041  34.244  54.879  0.00  0.00    -0.189 NA
ATOM     16  C   UNL d   1      53.867  33.134  54.151  0.00  0.00     0.104 A 
ATOM     17  C   UNL d   1      54.676  33.730  55.037  0.00  0.00     0.369 A 
ATOM     18  O   UNL d   1      55.303  33.877  55.550  0.00  0.00    -0.242 OA
ATOM     19  N   UNL d   1      54.563  33.048  54.585  0.00  0.00    -0.189 NA
ATOM     20  C   UNL d   1      53.480  32.638  53.612  0.00  0.00     0.022 A 
ATOM     21  C   UNL d   1      52.776  32.886  53.262  0.00  0.00     0.016 A 
ENDBRANCH   1  12
TORSDOF 3
ENDMDL
