MODEL 1
REMARK VINA RESULT:      -4.8      0.000      0.000
REMARK  2 active torsions:
REMARK  status: ('A' for Active; 'I' for Inactive)
REMARK    1  A    between atoms: C_6  and  C_3 
REMARK    2  A    between atoms: C_9  and  C_6 
ROOT
ATOM      1  C   UNL d   1     -41.124-122.528 -53.046  0.00  0.00     0.011 C 
ENDROOT
BRANCH   1   2
ATOM      2  C   UNL d   1     -41.634-122.484 -53.707  0.00  0.00     0.092 A 
ATOM      3  C   UNL d   1     -41.655-122.953 -54.353  0.00  0.00     0.288 A 
ATOM      4  N   UNL d   1     -42.236-122.700 -54.840  0.00  0.00    -0.163 NA
ATOM      5  O   UNL d   1     -41.125-123.621 -54.487  0.00  0.00    -0.265 OA
ATOM      6  C   UNL d   1     -42.582-122.037 -54.454  0.00  0.00     0.313 A 
ATOM      7  S   UNL d   1     -42.184-121.937 -53.762  0.00  0.00    -0.021 SA
ATOM      8  O   UNL d   1     -43.224-121.581 -54.758  0.00  0.00    -0.258 OA
ENDBRANCH   1   2
BRANCH   1   9
ATOM      9  C   UNL d   1     -41.383-122.640 -52.269  0.00  0.00     0.001 A 
ATOM     10  C   UNL d   1     -41.521-123.382 -51.936  0.00  0.00     0.001 A 
ATOM     11  C   UNL d   1     -41.773-123.450 -51.177  0.00  0.00     0.007 A 
ATOM     12  C   UNL d   1     -41.902-122.760 -50.701  0.00  0.00     0.035 A 
ATOM     13  C   UNL d   1     -41.764-122.019 -51.034  0.00  0.00     0.007 A 
ATOM     14 BR   UNL d   1     -42.161-122.812 -49.917  0.00  0.00    -0.049 Br
ATOM     15  C   UNL d   1     -41.500-121.953 -51.829  0.00  0.00     0.001 A 
ENDBRANCH   1   9
TORSDOF 2
ENDMDL
MODEL 2
REMARK VINA RESULT:      -4.8      1.598      2.327
REMARK  2 active torsions:
REMARK  status: ('A' for Active; 'I' for Inactive)
REMARK    1  A    between atoms: C_6  and  C_3 
REMARK    2  A    between atoms: C_9  and  C_6 
ROOT
ATOM      1  C   UNL d   1     -41.127-122.405 -50.871  0.00  0.00     0.011 C 
ENDROOT
BRANCH   1   2
ATOM      2  C   UNL d   1     -41.253-122.400 -51.698  0.00  0.00     0.092 A 
ATOM      3  C   UNL d   1     -41.277-121.775 -52.195  0.00  0.00     0.288 A 
ATOM      4  N   UNL d   1     -41.412-122.038 -52.938  0.00  0.00    -0.163 NA
ATOM      5  O   UNL d   1     -41.171-120.955 -51.950  0.00  0.00    -0.265 OA
ATOM      6  C   UNL d   1     -41.471-122.875 -52.874  0.00  0.00     0.313 A 
ATOM      7  S   UNL d   1     -41.368-123.057 -52.097  0.00  0.00    -0.021 SA
ATOM      8  O   UNL d   1     -41.613-123.401 -53.519  0.00  0.00    -0.258 OA
ENDBRANCH   1   2
BRANCH   1   9
ATOM      9  C   UNL d   1     -41.659-122.724 -50.325  0.00  0.00     0.001 A 
ATOM     10  C   UNL d   1     -42.398-122.396 -50.162  0.00  0.00     0.001 A 
ATOM     11  C   UNL d   1     -42.888-122.736 -49.623  0.00  0.00     0.007 A 
ATOM     12  C   UNL d   1     -42.656-123.440 -49.212  0.00  0.00     0.035 A 
ATOM     13  C   UNL d   1     -41.917-123.768 -49.376  0.00  0.00     0.007 A 
ATOM     14 BR   UNL d   1     -43.147-123.803 -48.655  0.00  0.00    -0.049 Br
ATOM     15  C   UNL d   1     -41.408-123.408 -49.940  0.00  0.00     0.001 A 
ENDBRANCH   1   9
TORSDOF 2
ENDMDL
MODEL 3
REMARK VINA RESULT:      -4.4      2.767      3.453
REMARK  2 active torsions:
REMARK  status: ('A' for Active; 'I' for Inactive)
REMARK    1  A    between atoms: C_6  and  C_3 
REMARK    2  A    between atoms: C_9  and  C_6 
ROOT
ATOM      1  C   UNL d   1     -41.123-122.565 -51.061  0.00  0.00     0.011 C 
ENDROOT
BRANCH   1   2
ATOM      2  C   UNL d   1     -41.765-122.628 -50.527  0.00  0.00     0.092 A 
ATOM      3  C   UNL d   1     -41.802-123.027 -49.837  0.00  0.00     0.288 A 
ATOM      4  N   UNL d   1     -42.528-122.927 -49.518  0.00  0.00    -0.163 NA
ATOM      5  O   UNL d   1     -41.152-123.486 -49.505  0.00  0.00    -0.265 OA
ATOM      6  C   UNL d   1     -42.947-122.436 -50.057  0.00  0.00     0.313 A 
ATOM      7  S   UNL d   1     -42.444-122.274 -50.663  0.00  0.00    -0.021 SA
ATOM      8  O   UNL d   1     -43.744-122.177 -49.957  0.00  0.00    -0.258 OA
ENDBRANCH   1   2
BRANCH   1   9
ATOM      9  C   UNL d   1     -41.149-122.818 -51.846  0.00  0.00     0.001 A 
ATOM     10  C   UNL d   1     -41.176-123.611 -52.071  0.00  0.00     0.001 A 
ATOM     11  C   UNL d   1     -41.201-123.817 -52.847  0.00  0.00     0.007 A 
ATOM     12  C   UNL d   1     -41.200-123.224 -53.452  0.00  0.00     0.035 A 
ATOM     13  C   UNL d   1     -41.173-122.431 -53.228  0.00  0.00     0.007 A 
ATOM     14 BR   UNL d   1     -41.226-123.418 -54.255  0.00  0.00    -0.049 Br
ATOM     15  C   UNL d   1     -41.147-122.220 -52.414  0.00  0.00     0.001 A 
ENDBRANCH   1   9
TORSDOF 2
ENDMDL
MODEL 4
REMARK VINA RESULT:      -4.3      2.516      3.453
REMARK  2 active torsions:
REMARK  status: ('A' for Active; 'I' for Inactive)
REMARK    1  A    between atoms: C_6  and  C_3 
REMARK    2  A    between atoms: C_9  and  C_6 
ROOT
ATOM      1  C   UNL d   1     -41.123-122.325 -52.348  0.00  0.00     0.011 C 
ENDROOT
BRANCH   1   2
ATOM      2  C   UNL d   1     -41.568-122.493 -51.660  0.00  0.00     0.092 A 
ATOM      3  C   UNL d   1     -41.747-122.009 -51.051  0.00  0.00     0.288 A 
ATOM      4  N   UNL d   1     -42.185-122.412 -50.518  0.00  0.00    -0.163 NA
ATOM      5  O   UNL d   1     -41.497-121.185 -50.996  0.00  0.00    -0.265 OA
ATOM      6  C   UNL d   1     -42.271-123.186 -50.835  0.00  0.00     0.313 A 
ATOM      7  S   UNL d   1     -41.878-123.196 -51.537  0.00  0.00    -0.021 SA
ATOM      8  O   UNL d   1     -42.694-123.816 -50.465  0.00  0.00    -0.258 OA
ENDBRANCH   1   2
BRANCH   1   9
ATOM      9  C   UNL d   1     -41.438-122.318 -53.112  0.00  0.00     0.001 A 
ATOM     10  C   UNL d   1     -41.988-121.762 -53.375  0.00  0.00     0.001 A 
ATOM     11  C   UNL d   1     -42.271-121.789 -54.126  0.00  0.00     0.007 A 
ATOM     12  C   UNL d   1     -42.011-122.389 -54.665  0.00  0.00     0.035 A 
ATOM     13  C   UNL d   1     -41.460-122.944 -54.403  0.00  0.00     0.007 A 
ATOM     14 BR   UNL d   1     -42.291-122.431 -55.441  0.00  0.00    -0.049 Br
ATOM     15  C   UNL d   1     -41.167-122.912 -53.615  0.00  0.00     0.001 A 
ENDBRANCH   1   9
TORSDOF 2
ENDMDL
MODEL 5
REMARK VINA RESULT:      -4.3      2.226      2.925
REMARK  2 active torsions:
REMARK  status: ('A' for Active; 'I' for Inactive)
REMARK    1  A    between atoms: C_6  and  C_3 
REMARK    2  A    between atoms: C_9  and  C_6 
ROOT
ATOM      1  C   UNL d   1     -42.106-123.354 -50.473  0.00  0.00     0.011 C 
ENDROOT
BRANCH   1   2
ATOM      2  C   UNL d   1     -41.739-122.827 -51.010  0.00  0.00     0.092 A 
ATOM      3  C   UNL d   1     -41.401-122.989 -51.715  0.00  0.00     0.288 A 
ATOM      4  N   UNL d   1     -41.123-122.310 -52.032  0.00  0.00    -0.163 NA
ATOM      5  O   UNL d   1     -41.355-123.777 -52.063  0.00  0.00    -0.265 OA
ATOM      6  C   UNL d   1     -41.309-121.707 -51.476  0.00  0.00     0.313 A 
ATOM      7  S   UNL d   1     -41.687-122.065 -50.862  0.00  0.00    -0.021 SA
ATOM      8  O   UNL d   1     -41.123-120.889 -51.568  0.00  0.00    -0.258 OA
ENDBRANCH   1   2
BRANCH   1   9
ATOM      9  C   UNL d   1     -42.007-123.321 -49.654  0.00  0.00     0.001 A 
ATOM     10  C   UNL d   1     -41.294-123.486 -49.273  0.00  0.00     0.001 A 
ATOM     11  C   UNL d   1     -41.237-123.443 -48.473  0.00  0.00     0.007 A 
ATOM     12  C   UNL d   1     -41.909-123.227 -48.002  0.00  0.00     0.035 A 
ATOM     13  C   UNL d   1     -42.622-123.063 -48.384  0.00  0.00     0.007 A 
ATOM     14 BR   UNL d   1     -41.869-123.178 -47.178  0.00  0.00    -0.049 Br
ATOM     15  C   UNL d   1     -42.676-123.109 -49.221  0.00  0.00     0.001 A 
ENDBRANCH   1   9
TORSDOF 2
ENDMDL
