MODEL 1
REMARK VINA RESULT:      -8.0      0.000      0.000
REMARK  7 active torsions:
REMARK  status: ('A' for Active; 'I' for Inactive)
REMARK    1  A    between atoms: C_3  and  C_1 
REMARK    2  A    between atoms: C_5  and  C_3 
REMARK    3  A    between atoms: C_14  and  C_3 
REMARK    4  A    between atoms: N_6  and  C_14 
REMARK    5  A    between atoms: O_17  and  C_9 
REMARK    6  A    between atoms: O_18  and  C_10 
REMARK    7  A    between atoms: O_19  and  C_11 
ROOT
ATOM      1  C   UNL d   1     -48.814  13.397  22.256  0.00  0.00     0.025 C 
ENDROOT
BRANCH   1   2
ATOM      2  C   UNL d   1     -49.428  13.640  22.752  0.00  0.00     0.021 A 
ATOM      3  C   UNL d   1     -49.936  13.129  23.185  0.00  0.00     0.082 A 
ATOM      4  N   UNL d   1     -50.460  13.587  23.601  0.00  0.00    -0.246 NA
ATOM      5  C   UNL d   1     -49.903  12.301  23.184  0.00  0.00     0.021 C 
ATOM      6  C   UNL d   1     -50.293  14.378  23.439  0.00  0.00     0.081 A 
ATOM      7  C   UNL d   1     -49.654  14.396  22.914  0.00  0.00     0.019 A 
ATOM      8  C   UNL d   1     -50.627  15.073  23.691  0.00  0.00     0.019 A 
ATOM      9  C   UNL d   1     -49.360  15.122  22.650  0.00  0.00     0.002 A 
ATOM     10  C   UNL d   1     -49.700  15.820  22.907  0.00  0.00     0.000 A 
ATOM     11  C   UNL d   1     -50.339  15.802  23.432  0.00  0.00     0.002 A 
ENDBRANCH   1   2
BRANCH   1  12
ATOM     12  C   UNL d   1     -48.096  13.155  22.590  0.00  0.00     0.006 A 
ATOM     13  C   UNL d   1     -48.049  12.435  22.976  0.00  0.00     0.026 A 
ATOM     14  C   UNL d   1     -47.341  12.186  23.311  0.00  0.00     0.118 A 
ATOM     15  C   UNL d   1     -46.681  12.668  23.253  0.00  0.00     0.138 A 
ATOM     16  C   UNL d   1     -46.719  13.396  22.866  0.00  0.00     0.118 A 
ATOM     17  C   UNL d   1     -47.436  13.636  22.533  0.00  0.00     0.026 A 
BRANCH  14  18
ATOM     18  O   UNL d   1     -47.294  11.468  23.696  0.00  0.00    -0.326 OA
ATOM     19  C   UNL d   1     -47.562  10.785  23.332  0.00  0.00     0.181 C 
ENDBRANCH  14  18
BRANCH  15  20
ATOM     20  O   UNL d   1     -45.974  12.422  23.585  0.00  0.00    -0.324 OA
ATOM     21  C   UNL d   1     -45.484  11.911  23.158  0.00  0.00     0.182 C 
ENDBRANCH  15  20
BRANCH  16  22
ATOM     22  O   UNL d   1     -46.064  13.879  22.806  0.00  0.00    -0.326 OA
ATOM     23  C   UNL d   1     -46.138  14.693  22.888  0.00  0.00     0.181 C 
ENDBRANCH  16  22
ENDBRANCH   1  12
BRANCH   1  24
ATOM     24  C   UNL d   1     -48.910  13.394  21.434  0.00  0.00     0.148 C 
BRANCH  24  25
ATOM     25  N   UNL d   1     -48.959  12.653  21.065  0.00  0.00    -0.112 N 
ATOM     26  O   UNL d   1     -48.322  12.391  20.594  0.00  0.00    -0.532 OA
ATOM     27  O   UNL d   1     -49.626  12.187  21.165  0.00  0.00    -0.532 OA
ENDBRANCH  24  25
ENDBRANCH   1  24
TORSDOF 7
ENDMDL
MODEL 2
REMARK VINA RESULT:      -7.0      1.204      2.133
REMARK  7 active torsions:
REMARK  status: ('A' for Active; 'I' for Inactive)
REMARK    1  A    between atoms: C_3  and  C_1 
REMARK    2  A    between atoms: C_5  and  C_3 
REMARK    3  A    between atoms: C_14  and  C_3 
REMARK    4  A    between atoms: N_6  and  C_14 
REMARK    5  A    between atoms: O_17  and  C_9 
REMARK    6  A    between atoms: O_18  and  C_10 
REMARK    7  A    between atoms: O_19  and  C_11 
ROOT
ATOM      1  C   UNL d   1     -48.859  12.740  23.077  0.00  0.00     0.025 C 
ENDROOT
BRANCH   1   2
ATOM      2  C   UNL d   1     -49.334  13.057  22.482  0.00  0.00     0.021 A 
ATOM      3  C   UNL d   1     -49.344  12.804  21.679  0.00  0.00     0.082 A 
ATOM      4  N   UNL d   1     -49.885  13.257  21.278  0.00  0.00    -0.246 NA
ATOM      5  C   UNL d   1     -48.880  12.198  21.358  0.00  0.00     0.021 C 
ATOM      6  C   UNL d   1     -50.217  13.791  21.812  0.00  0.00     0.081 A 
ATOM      7  C   UNL d   1     -49.868  13.656  22.550  0.00  0.00     0.019 A 
ATOM      8  C   UNL d   1     -50.779  14.370  21.732  0.00  0.00     0.019 A 
ATOM      9  C   UNL d   1     -50.095  14.113  23.200  0.00  0.00     0.002 A 
ATOM     10  C   UNL d   1     -50.661  14.697  23.115  0.00  0.00     0.000 A 
ATOM     11  C   UNL d   1     -51.011  14.831  22.376  0.00  0.00     0.002 A 
ENDBRANCH   1   2
BRANCH   1  12
ATOM     12  C   UNL d   1     -48.040  12.866  23.051  0.00  0.00     0.006 A 
ATOM     13  C   UNL d   1     -47.745  13.628  23.042  0.00  0.00     0.026 A 
ATOM     14  C   UNL d   1     -46.935  13.762  23.016  0.00  0.00     0.118 A 
ATOM     15  C   UNL d   1     -46.425  13.121  23.001  0.00  0.00     0.138 A 
ATOM     16  C   UNL d   1     -46.714  12.348  23.010  0.00  0.00     0.118 A 
ATOM     17  C   UNL d   1     -47.531  12.225  23.036  0.00  0.00     0.026 A 
BRANCH  14  18
ATOM     18  O   UNL d   1     -46.640  14.523  23.007  0.00  0.00    -0.326 OA
ATOM     19  C   UNL d   1     -47.054  15.122  22.632  0.00  0.00     0.181 C 
ENDBRANCH  14  18
BRANCH  15  20
ATOM     20  O   UNL d   1     -45.617  13.252  22.975  0.00  0.00    -0.324 OA
ATOM     21  C   UNL d   1     -45.262  13.439  22.252  0.00  0.00     0.182 C 
ENDBRANCH  15  20
BRANCH  16  22
ATOM     22  O   UNL d   1     -46.210  11.707  22.994  0.00  0.00    -0.326 OA
ATOM     23  C   UNL d   1     -46.093  11.251  23.668  0.00  0.00     0.181 C 
ENDBRANCH  16  22
ENDBRANCH   1  12
BRANCH   1  24
ATOM     24  C   UNL d   1     -49.191  12.302  23.695  0.00  0.00     0.148 C 
BRANCH  24  25
ATOM     25  N   UNL d   1     -49.489  11.552  23.505  0.00  0.00    -0.112 N 
ATOM     26  O   UNL d   1     -50.284  11.373  23.683  0.00  0.00    -0.532 OA
ATOM     27  O   UNL d   1     -49.004  10.995  23.147  0.00  0.00    -0.532 OA
ENDBRANCH  24  25
ENDBRANCH   1  24
TORSDOF 7
ENDMDL
MODEL 3
REMARK VINA RESULT:      -5.7      1.457      3.431
REMARK  7 active torsions:
REMARK  status: ('A' for Active; 'I' for Inactive)
REMARK    1  A    between atoms: C_3  and  C_1 
REMARK    2  A    between atoms: C_5  and  C_3 
REMARK    3  A    between atoms: C_14  and  C_3 
REMARK    4  A    between atoms: N_6  and  C_14 
REMARK    5  A    between atoms: O_17  and  C_9 
REMARK    6  A    between atoms: O_18  and  C_10 
REMARK    7  A    between atoms: O_19  and  C_11 
ROOT
ATOM      1  C   UNL d   1     -48.375  12.878  22.274  0.00  0.00     0.025 C 
ENDROOT
BRANCH   1   2
ATOM      2  C   UNL d   1     -47.778  12.556  22.744  0.00  0.00     0.021 A 
ATOM      3  C   UNL d   1     -47.888  11.971  23.339  0.00  0.00     0.082 A 
ATOM      4  N   UNL d   1     -47.166  11.808  23.670  0.00  0.00    -0.246 NA
ATOM      5  C   UNL d   1     -48.611  11.625  23.547  0.00  0.00     0.021 C 
ATOM      6  C   UNL d   1     -46.601  12.278  23.296  0.00  0.00     0.081 A 
ATOM      7  C   UNL d   1     -46.993  12.735  22.727  0.00  0.00     0.019 A 
ATOM      8  C   UNL d   1     -45.800  12.355  23.390  0.00  0.00     0.019 A 
ATOM      9  C   UNL d   1     -46.565  13.265  22.260  0.00  0.00     0.002 A 
ATOM     10  C   UNL d   1     -45.756  13.339  22.359  0.00  0.00     0.000 A 
ATOM     11  C   UNL d   1     -45.364  12.882  22.928  0.00  0.00     0.002 A 
ENDBRANCH   1   2
BRANCH   1  12
ATOM     12  C   UNL d   1     -48.953  13.357  22.624  0.00  0.00     0.006 A 
ATOM     13  C   UNL d   1     -49.688  13.046  22.800  0.00  0.00     0.026 A 
ATOM     14  C   UNL d   1     -50.267  13.514  23.148  0.00  0.00     0.118 A 
ATOM     15  C   UNL d   1     -50.099  14.298  23.317  0.00  0.00     0.138 A 
ATOM     16  C   UNL d   1     -49.360  14.621  23.143  0.00  0.00     0.118 A 
ATOM     17  C   UNL d   1     -48.785  14.141  22.793  0.00  0.00     0.026 A 
BRANCH  14  18
ATOM     18  O   UNL d   1     -51.002  13.203  23.324  0.00  0.00    -0.326 OA
ATOM     19  C   UNL d   1     -51.064  12.478  23.697  0.00  0.00     0.181 C 
ENDBRANCH  14  18
BRANCH  15  20
ATOM     20  O   UNL d   1     -50.674  14.766  23.663  0.00  0.00    -0.324 OA
ATOM     21  C   UNL d   1     -51.064  15.333  23.203  0.00  0.00     0.182 C 
ENDBRANCH  15  20
BRANCH  16  22
ATOM     22  O   UNL d   1     -49.188  15.400  23.309  0.00  0.00    -0.326 OA
ATOM     23  C   UNL d   1     -48.724  15.844  22.796  0.00  0.00     0.181 C 
ENDBRANCH  16  22
ENDBRANCH   1  12
BRANCH   1  24
ATOM     24  C   UNL d   1     -48.400  12.727  21.461  0.00  0.00     0.148 C 
BRANCH  24  25
ATOM     25  N   UNL d   1     -48.949  12.161  21.202  0.00  0.00    -0.112 N 
ATOM     26  O   UNL d   1     -48.983  11.422  21.588  0.00  0.00    -0.532 OA
ATOM     27  O   UNL d   1     -49.449  12.330  20.574  0.00  0.00    -0.532 OA
ENDBRANCH  24  25
ENDBRANCH   1  24
TORSDOF 7
ENDMDL
