MODEL 1
REMARK VINA RESULT:      27.6      0.000      0.000
REMARK  3 active torsions:
REMARK  status: ('A' for Active; 'I' for Inactive)
REMARK    1  A    between atoms: N_4  and  C_1 
REMARK       I    between atoms: C_8  and  N_4 
REMARK    2  A    between atoms: C_16  and  C_8 
REMARK       I    between atoms: C_9  and  N_10 
REMARK    3  A    between atoms: N_10  and  C_11 
ROOT
ATOM      1  C   UNL d   1      58.347  49.696  50.594  0.00  0.00     0.197 A 
ATOM      2  N   UNL d   1      58.897  49.708  50.015  0.00  0.00    -0.221 NA
ATOM      3  S   UNL d   1      58.688  49.683  51.309  0.00  0.00    -0.047 SA
ATOM      4  C   UNL d   1      59.479  49.685  51.209  0.00  0.00     0.051 A 
ATOM      5  C   UNL d   1      59.611  49.701  50.395  0.00  0.00     0.090 A 
ATOM      6  C   UNL d   1      60.119  49.676  51.720  0.00  0.00     0.027 A 
ATOM      7  C   UNL d   1      60.886  49.682  51.436  0.00  0.00     0.085 A 
ATOM      8  C   UNL d   1      60.383  49.707  50.087  0.00  0.00     0.021 A 
ATOM      9  C   UNL d   1      61.018  49.698  50.622  0.00  0.00     0.021 A 
ENDROOT
BRANCH   1  10
ATOM     10  N   UNL d   1      57.530  49.698  50.438  0.00  0.00    -0.183 NA
ATOM     11  C   UNL d   1      57.185  49.216  49.857  0.00  0.00     0.281 C 
ATOM     12  O   UNL d   1      57.681  48.714  49.418  0.00  0.00    -0.265 OA
BRANCH  11  13
ATOM     13  C   UNL d   1      56.394  49.235  49.723  0.00  0.00     0.063 C 
ATOM     14  C   UNL d   1      56.086  49.582  49.034  0.00  0.00     0.005 C 
ENDBRANCH  11  13
ENDBRANCH   1  10
BRANCH   7  15
ATOM     15  N   UNL d   1      61.555  49.673  51.952  0.00  0.00    -0.208 NA
ATOM     16  C   UNL d   1      61.425  49.625  52.759  0.00  0.00     0.279 C 
ATOM     17  O   UNL d   1      60.653  49.587  53.067  0.00  0.00    -0.265 OA
ATOM     18  C   UNL d   1      62.059  49.614  53.295  0.00  0.00     0.068 C 
ENDBRANCH   7  15
TORSDOF 3
ENDMDL
