MODEL 1
REMARK VINA RESULT:      13.9      0.000      0.000
REMARK  4 active torsions:
REMARK  status: ('A' for Active; 'I' for Inactive)
REMARK    1  A    between atoms: C_15  and  C_2 
REMARK    2  A    between atoms: C_3  and  N_6 
REMARK    3  A    between atoms: C_5  and  C_16 
REMARK       I    between atoms: N_6  and  C_5 
REMARK    4  A    between atoms: C_16  and  C_15 
ROOT
ATOM      1  C   UNL d   1      46.357 -17.297  43.604  0.00  0.00     0.279 C 
ATOM      2  N   UNL d   1      46.640 -17.934  43.169  0.00  0.00    -0.208 NA
ATOM      3  O   UNL d   1      46.600 -16.534  43.425  0.00  0.00    -0.265 OA
ENDROOT
BRANCH   1   4
ATOM      4  C   UNL d   1      45.827 -17.417  44.224  0.00  0.00     0.065 C 
BRANCH   4   5
ATOM      5  C   UNL d   1      45.850 -16.933  44.886  0.00  0.00     0.030 C 
BRANCH   5   6
ATOM      6  C   UNL d   1      45.515 -16.180  44.862  0.00  0.00     0.100 A 
ATOM      7  O   UNL d   1      45.913 -15.461  44.773  0.00  0.00    -0.307 OA
ATOM      8  C   UNL d   1      45.366 -14.855  44.778  0.00  0.00     0.100 A 
ATOM      9  C   UNL d   1      44.617 -15.194  44.871  0.00  0.00     0.027 A 
ATOM     10  C   UNL d   1      45.526 -14.057  44.706  0.00  0.00     0.027 C 
ATOM     11  C   UNL d   1      44.709 -16.011  44.922  0.00  0.00     0.027 A 
ENDBRANCH   5   6
ENDBRANCH   4   5
ENDBRANCH   1   4
BRANCH   2  12
ATOM     12  C   UNL d   1      46.391 -18.703  43.355  0.00  0.00     0.085 A 
ATOM     13  C   UNL d   1      46.632 -19.051  44.065  0.00  0.00     0.019 A 
ATOM     14  C   UNL d   1      46.388 -19.809  44.250  0.00  0.00     0.002 A 
ATOM     15  C   UNL d   1      46.626 -20.155  44.955  0.00  0.00     0.000 C 
ATOM     16  C   UNL d   1      45.897 -20.231  43.724  0.00  0.00     0.000 A 
ATOM     17  C   UNL d   1      45.662 -19.871  43.016  0.00  0.00     0.002 A 
ATOM     18  C   UNL d   1      45.907 -19.114  42.834  0.00  0.00     0.019 A 
ATOM     19  C   UNL d   1      45.175 -20.290  42.494  0.00  0.00     0.000 C 
ENDBRANCH   2  12
TORSDOF 4
ENDMDL
MODEL 2
REMARK VINA RESULT:      15.1      1.309      1.887
REMARK  4 active torsions:
REMARK  status: ('A' for Active; 'I' for Inactive)
REMARK    1  A    between atoms: C_15  and  C_2 
REMARK    2  A    between atoms: C_3  and  N_6 
REMARK    3  A    between atoms: C_5  and  C_16 
REMARK       I    between atoms: N_6  and  C_5 
REMARK    4  A    between atoms: C_16  and  C_15 
ROOT
ATOM      1  C   UNL d   1      46.289 -18.410  44.127  0.00  0.00     0.279 C 
ATOM      2  N   UNL d   1      46.600 -19.023  43.678  0.00  0.00    -0.208 NA
ATOM      3  O   UNL d   1      46.271 -18.464  44.945  0.00  0.00    -0.265 OA
ENDROOT
BRANCH   1   4
ATOM      4  C   UNL d   1      45.991 -17.733  43.760  0.00  0.00     0.065 C 
BRANCH   4   5
ATOM      5  C   UNL d   1      45.350 -17.337  44.083  0.00  0.00     0.030 C 
BRANCH   5   6
ATOM      6  C   UNL d   1      45.407 -16.535  44.267  0.00  0.00     0.100 A 
ATOM      7  O   UNL d   1      45.768 -15.945  43.814  0.00  0.00    -0.307 OA
ATOM      8  C   UNL d   1      45.696 -15.232  44.204  0.00  0.00     0.100 A 
ATOM      9  C   UNL d   1      45.286 -15.372  44.910  0.00  0.00     0.027 A 
ATOM     10  C   UNL d   1      45.976 -14.509  43.948  0.00  0.00     0.027 C 
ATOM     11  C   UNL d   1      45.108 -16.176  44.948  0.00  0.00     0.027 A 
ENDBRANCH   5   6
ENDBRANCH   4   5
ENDBRANCH   1   4
BRANCH   2  12
ATOM     12  C   UNL d   1      46.615 -18.963  42.851  0.00  0.00     0.085 A 
ATOM     13  C   UNL d   1      46.622 -19.648  42.391  0.00  0.00     0.019 A 
ATOM     14  C   UNL d   1      46.637 -19.591  41.575  0.00  0.00     0.002 A 
ATOM     15  C   UNL d   1      46.644 -20.272  41.117  0.00  0.00     0.000 C 
ATOM     16  C   UNL d   1      46.646 -18.843  41.208  0.00  0.00     0.000 A 
ATOM     17  C   UNL d   1      46.639 -18.162  41.681  0.00  0.00     0.002 A 
ATOM     18  C   UNL d   1      46.623 -18.222  42.495  0.00  0.00     0.019 A 
ATOM     19  C   UNL d   1      46.647 -17.419  41.317  0.00  0.00     0.000 C 
ENDBRANCH   2  12
TORSDOF 4
ENDMDL
