MODEL 1
REMARK VINA RESULT:      -9.9      0.000      0.000
REMARK  1 active torsions:
REMARK  status: ('A' for Active; 'I' for Inactive)
REMARK    1  A    between atoms: C_2  and  C_1 
ROOT
ATOM      1  C   UNL d   1      52.907  32.894  53.560  0.00  0.00     0.087 A 
ATOM      2  C   UNL d   1      52.646  33.373  52.941  0.00  0.00     0.302 A 
ATOM      3  C   UNL d   1      53.152  33.227  54.278  0.00  0.00     0.009 A 
ATOM      4  O   UNL d   1      52.628  34.187  53.039  0.00  0.00    -0.273 OA
ATOM      5  C   UNL d   1      52.867  34.532  53.745  0.00  0.00     0.106 A 
ATOM      6  C   UNL d   1      53.128  34.053  54.363  0.00  0.00     0.023 A 
ATOM      7  C   UNL d   1      52.849  35.346  53.842  0.00  0.00     0.067 A 
ATOM      8  O   UNL d   1      52.407  33.029  52.235  0.00  0.00    -0.259 OA
ATOM      9  C   UNL d   1      53.373  34.386  55.082  0.00  0.00     0.005 A 
ATOM     10  C   UNL d   1      53.088  35.690  54.548  0.00  0.00     0.198 A 
ATOM     11  C   UNL d   1      53.349  35.211  55.167  0.00  0.00     0.042 A 
ATOM     12  O   UNL d   1      53.070  36.504  54.646  0.00  0.00    -0.286 OA
ENDROOT
BRANCH   1  13
ATOM     13  C   UNL d   1      52.933  32.081  53.483  0.00  0.00     0.116 A 
ATOM     14  N   UNL d   1      52.366  31.562  53.219  0.00  0.00    -0.238 NA
ATOM     15  C   UNL d   1      52.664  30.803  53.249  0.00  0.00     0.088 A 
ATOM     16  C   UNL d   1      52.320  30.075  53.045  0.00  0.00     0.020 A 
ATOM     17  C   UNL d   1      53.418  30.849  53.531  0.00  0.00     0.049 A 
ATOM     18  C   UNL d   1      52.782  29.389  53.143  0.00  0.00     0.002 A 
ATOM     19  C   UNL d   1      53.552  29.436  53.431  0.00  0.00     0.001 A 
ATOM     20  C   UNL d   1      53.872  30.174  53.627  0.00  0.00     0.008 A 
ATOM     21  S   UNL d   1      53.610  31.631  53.685  0.00  0.00    -0.066 SA
ENDBRANCH   1  13
TORSDOF 1
ENDMDL
MODEL 2
REMARK VINA RESULT:      -9.5      2.236      3.392
REMARK  1 active torsions:
REMARK  status: ('A' for Active; 'I' for Inactive)
REMARK    1  A    between atoms: C_2  and  C_1 
ROOT
ATOM      1  C   UNL d   1      51.879  33.849  53.166  0.00  0.00     0.087 A 
ATOM      2  C   UNL d   1      51.885  33.584  52.385  0.00  0.00     0.302 A 
ATOM      3  C   UNL d   1      51.228  34.266  53.466  0.00  0.00     0.009 A 
ATOM      4  O   UNL d   1      51.241  33.736  51.901  0.00  0.00    -0.273 OA
ATOM      5  C   UNL d   1      50.590  34.147  52.183  0.00  0.00     0.106 A 
ATOM      6  C   UNL d   1      50.583  34.412  52.965  0.00  0.00     0.023 A 
ATOM      7  C   UNL d   1      49.945  34.299  51.699  0.00  0.00     0.067 A 
ATOM      8  O   UNL d   1      52.537  33.173  52.102  0.00  0.00    -0.259 OA
ATOM      9  C   UNL d   1      49.933  34.829  53.265  0.00  0.00     0.005 A 
ATOM     10  C   UNL d   1      49.294  34.710  51.982  0.00  0.00     0.198 A 
ATOM     11  C   UNL d   1      49.288  34.975  52.763  0.00  0.00     0.042 A 
ATOM     12  O   UNL d   1      48.650  34.861  51.498  0.00  0.00    -0.286 OA
ENDROOT
BRANCH   1  13
ATOM     13  C   UNL d   1      52.511  33.709  53.665  0.00  0.00     0.116 A 
ATOM     14  N   UNL d   1      52.776  33.014  53.991  0.00  0.00    -0.238 NA
ATOM     15  C   UNL d   1      53.430  33.167  54.454  0.00  0.00     0.088 A 
ATOM     16  C   UNL d   1      53.909  32.660  54.905  0.00  0.00     0.020 A 
ATOM     17  C   UNL d   1      53.572  33.960  54.417  0.00  0.00     0.049 A 
ATOM     18  C   UNL d   1      54.546  33.000  55.321  0.00  0.00     0.002 A 
ATOM     19  C   UNL d   1      54.691  33.810  55.283  0.00  0.00     0.001 A 
ATOM     20  C   UNL d   1      54.199  34.294  54.826  0.00  0.00     0.008 A 
ATOM     21  S   UNL d   1      53.016  34.320  53.934  0.00  0.00    -0.066 SA
ENDBRANCH   1  13
TORSDOF 1
ENDMDL
MODEL 3
REMARK VINA RESULT:      -9.3      2.242      3.587
REMARK  1 active torsions:
REMARK  status: ('A' for Active; 'I' for Inactive)
REMARK    1  A    between atoms: C_2  and  C_1 
ROOT
ATOM      1  C   UNL d   1      52.361  34.340  53.717  0.00  0.00     0.087 A 
ATOM      2  C   UNL d   1      52.688  35.032  54.024  0.00  0.00     0.302 A 
ATOM      3  C   UNL d   1      52.714  33.604  53.862  0.00  0.00     0.009 A 
ATOM      4  O   UNL d   1      53.370  34.991  54.479  0.00  0.00    -0.273 OA
ATOM      5  C   UNL d   1      53.731  34.269  54.631  0.00  0.00     0.106 A 
ATOM      6  C   UNL d   1      53.404  33.577  54.323  0.00  0.00     0.023 A 
ATOM      7  C   UNL d   1      54.412  34.228  55.085  0.00  0.00     0.067 A 
ATOM      8  O   UNL d   1      52.327  35.753  53.872  0.00  0.00    -0.259 OA
ATOM      9  C   UNL d   1      53.757  32.842  54.469  0.00  0.00     0.005 A 
ATOM     10  C   UNL d   1      54.773  33.507  55.238  0.00  0.00     0.198 A 
ATOM     11  C   UNL d   1      54.446  32.815  54.930  0.00  0.00     0.042 A 
ATOM     12  O   UNL d   1      55.455  33.466  55.692  0.00  0.00    -0.286 OA
ENDROOT
BRANCH   1  13
ATOM     13  C   UNL d   1      51.683  34.359  53.262  0.00  0.00     0.116 A 
ATOM     14  N   UNL d   1      50.915  34.522  53.473  0.00  0.00    -0.238 NA
ATOM     15  C   UNL d   1      50.439  34.468  52.812  0.00  0.00     0.088 A 
ATOM     16  C   UNL d   1      49.621  34.581  52.721  0.00  0.00     0.020 A 
ATOM     17  C   UNL d   1      50.910  34.271  52.189  0.00  0.00     0.049 A 
ATOM     18  C   UNL d   1      49.301  34.482  51.958  0.00  0.00     0.002 A 
ATOM     19  C   UNL d   1      49.782  34.280  51.321  0.00  0.00     0.001 A 
ATOM     20  C   UNL d   1      50.595  34.174  51.439  0.00  0.00     0.008 A 
ATOM     21  S   UNL d   1      51.687  34.197  52.440  0.00  0.00    -0.066 SA
ENDBRANCH   1  13
TORSDOF 1
ENDMDL
MODEL 4
REMARK VINA RESULT:      -9.2      2.281      3.548
REMARK  1 active torsions:
REMARK  status: ('A' for Active; 'I' for Inactive)
REMARK    1  A    between atoms: C_2  and  C_1 
ROOT
ATOM      1  C   UNL d   1      52.206  33.675  53.206  0.00  0.00     0.087 A 
ATOM      2  C   UNL d   1      52.558  32.939  53.084  0.00  0.00     0.302 A 
ATOM      3  C   UNL d   1      52.532  34.215  53.744  0.00  0.00     0.009 A 
ATOM      4  O   UNL d   1      53.236  32.740  53.500  0.00  0.00    -0.273 OA
ATOM      5  C   UNL d   1      53.570  33.264  54.035  0.00  0.00     0.106 A 
ATOM      6  C   UNL d   1      53.219  34.001  54.157  0.00  0.00     0.023 A 
ATOM      7  C   UNL d   1      54.249  33.065  54.451  0.00  0.00     0.067 A 
ATOM      8  O   UNL d   1      52.223  32.414  52.548  0.00  0.00    -0.259 OA
ATOM      9  C   UNL d   1      53.545  34.541  54.695  0.00  0.00     0.005 A 
ATOM     10  C   UNL d   1      54.583  33.590  54.987  0.00  0.00     0.198 A 
ATOM     11  C   UNL d   1      54.232  34.326  55.109  0.00  0.00     0.042 A 
ATOM     12  O   UNL d   1      55.262  33.391  55.402  0.00  0.00    -0.286 OA
ENDROOT
BRANCH   1  13
ATOM     13  C   UNL d   1      51.530  33.893  52.803  0.00  0.00     0.116 A 
ATOM     14  N   UNL d   1      51.400  33.977  52.005  0.00  0.00    -0.238 NA
ATOM     15  C   UNL d   1      50.627  34.206  51.882  0.00  0.00     0.088 A 
ATOM     16  C   UNL d   1      50.212  34.366  51.181  0.00  0.00     0.020 A 
ATOM     17  C   UNL d   1      50.275  34.267  52.605  0.00  0.00     0.049 A 
ATOM     18  C   UNL d   1      49.413  34.593  51.248  0.00  0.00     0.002 A 
ATOM     19  C   UNL d   1      49.053  34.654  51.986  0.00  0.00     0.001 A 
ATOM     20  C   UNL d   1      49.489  34.489  52.671  0.00  0.00     0.008 A 
ATOM     21  S   UNL d   1      50.812  34.078  53.194  0.00  0.00    -0.066 SA
ENDBRANCH   1  13
TORSDOF 1
ENDMDL
MODEL 5
REMARK VINA RESULT:      -8.8      1.642      4.351
REMARK  1 active torsions:
REMARK  status: ('A' for Active; 'I' for Inactive)
REMARK    1  A    between atoms: C_2  and  C_1 
ROOT
ATOM      1  C   UNL d   1      52.983  31.662  53.602  0.00  0.00     0.087 A 
ATOM      2  C   UNL d   1      52.919  31.230  52.902  0.00  0.00     0.302 A 
ATOM      3  C   UNL d   1      53.125  31.278  54.323  0.00  0.00     0.009 A 
ATOM      4  O   UNL d   1      52.997  30.414  52.920  0.00  0.00    -0.273 OA
ATOM      5  C   UNL d   1      53.138  30.021  53.626  0.00  0.00     0.106 A 
ATOM      6  C   UNL d   1      53.202  30.452  54.327  0.00  0.00     0.023 A 
ATOM      7  C   UNL d   1      53.216  29.205  53.644  0.00  0.00     0.067 A 
ATOM      8  O   UNL d   1      52.778  31.624  52.195  0.00  0.00    -0.259 OA
ATOM      9  C   UNL d   1      53.344  30.069  55.048  0.00  0.00     0.005 A 
ATOM     10  C   UNL d   1      53.357  28.811  54.351  0.00  0.00     0.198 A 
ATOM     11  C   UNL d   1      53.421  29.242  55.051  0.00  0.00     0.042 A 
ATOM     12  O   UNL d   1      53.435  27.995  54.369  0.00  0.00    -0.286 OA
ENDROOT
BRANCH   1  13
ATOM     13  C   UNL d   1      52.909  32.475  53.606  0.00  0.00     0.116 A 
ATOM     14  N   UNL d   1      52.301  32.947  53.344  0.00  0.00    -0.238 NA
ATOM     15  C   UNL d   1      52.494  33.729  53.472  0.00  0.00     0.088 A 
ATOM     16  C   UNL d   1      52.075  34.427  53.309  0.00  0.00     0.020 A 
ATOM     17  C   UNL d   1      53.224  33.745  53.815  0.00  0.00     0.049 A 
ATOM     18  C   UNL d   1      52.435  35.150  53.512  0.00  0.00     0.002 A 
ATOM     19  C   UNL d   1      53.180  35.167  53.863  0.00  0.00     0.001 A 
ATOM     20  C   UNL d   1      53.578  34.456  54.015  0.00  0.00     0.008 A 
ATOM     21  S   UNL d   1      53.504  32.980  53.910  0.00  0.00    -0.066 SA
ENDBRANCH   1  13
TORSDOF 1
ENDMDL
MODEL 6
REMARK VINA RESULT:      -8.7      2.694      4.302
REMARK  1 active torsions:
REMARK  status: ('A' for Active; 'I' for Inactive)
REMARK    1  A    between atoms: C_2  and  C_1 
ROOT
ATOM      1  C   UNL d   1      51.519  33.930  52.993  0.00  0.00     0.087 A 
ATOM      2  C   UNL d   1      52.106  34.426  53.294  0.00  0.00     0.302 A 
ATOM      3  C   UNL d   1      51.654  33.116  52.912  0.00  0.00     0.009 A 
ATOM      4  O   UNL d   1      52.829  34.109  53.515  0.00  0.00    -0.273 OA
ATOM      5  C   UNL d   1      52.977  33.305  53.441  0.00  0.00     0.106 A 
ATOM      6  C   UNL d   1      52.390  32.810  53.140  0.00  0.00     0.023 A 
ATOM      7  C   UNL d   1      53.701  32.989  53.662  0.00  0.00     0.067 A 
ATOM      8  O   UNL d   1      51.958  35.230  53.368  0.00  0.00    -0.259 OA
ATOM      9  C   UNL d   1      52.525  31.995  53.060  0.00  0.00     0.005 A 
ATOM     10  C   UNL d   1      53.849  32.185  53.588  0.00  0.00     0.198 A 
ATOM     11  C   UNL d   1      53.262  31.689  53.287  0.00  0.00     0.042 A 
ATOM     12  O   UNL d   1      54.572  31.869  53.809  0.00  0.00    -0.286 OA
ENDROOT
BRANCH   1  13
ATOM     13  C   UNL d   1      50.791  34.224  52.767  0.00  0.00     0.116 A 
ATOM     14  N   UNL d   1      50.225  34.613  53.202  0.00  0.00    -0.238 NA
ATOM     15  C   UNL d   1      49.593  34.794  52.719  0.00  0.00     0.088 A 
ATOM     16  C   UNL d   1      48.878  35.183  52.881  0.00  0.00     0.020 A 
ATOM     17  C   UNL d   1      49.766  34.518  51.981  0.00  0.00     0.049 A 
ATOM     18  C   UNL d   1      48.340  35.281  52.252  0.00  0.00     0.002 A 
ATOM     19  C   UNL d   1      48.516  34.999  51.499  0.00  0.00     0.001 A 
ATOM     20  C   UNL d   1      49.237  34.614  51.363  0.00  0.00     0.008 A 
ATOM     21  S   UNL d   1      50.503  34.160  51.983  0.00  0.00    -0.066 SA
ENDBRANCH   1  13
TORSDOF 1
ENDMDL
MODEL 7
REMARK VINA RESULT:      -7.6      3.545      4.297
REMARK  1 active torsions:
REMARK  status: ('A' for Active; 'I' for Inactive)
REMARK    1  A    between atoms: C_2  and  C_1 
ROOT
ATOM      1  C   UNL d   1      50.035  34.575  52.607  0.00  0.00     0.087 A 
ATOM      2  C   UNL d   1      49.766  34.475  51.834  0.00  0.00     0.302 A 
ATOM      3  C   UNL d   1      49.598  35.019  53.154  0.00  0.00     0.009 A 
ATOM      4  O   UNL d   1      49.058  34.819  51.605  0.00  0.00    -0.273 OA
ATOM      5  C   UNL d   1      48.614  35.262  52.135  0.00  0.00     0.106 A 
ATOM      6  C   UNL d   1      48.883  35.361  52.908  0.00  0.00     0.023 A 
ATOM      7  C   UNL d   1      47.906  35.606  51.905  0.00  0.00     0.067 A 
ATOM      8  O   UNL d   1      50.210  34.032  51.304  0.00  0.00    -0.259 OA
ATOM      9  C   UNL d   1      48.446  35.806  53.454  0.00  0.00     0.005 A 
ATOM     10  C   UNL d   1      47.462  36.048  52.435  0.00  0.00     0.198 A 
ATOM     11  C   UNL d   1      47.731  36.148  53.208  0.00  0.00     0.042 A 
ATOM     12  O   UNL d   1      46.754  36.392  52.206  0.00  0.00    -0.286 OA
ENDROOT
BRANCH   1  13
ATOM     13  C   UNL d   1      50.738  34.241  52.857  0.00  0.00     0.116 A 
ATOM     14  N   UNL d   1      50.908  33.474  53.067  0.00  0.00    -0.238 NA
ATOM     15  C   UNL d   1      51.695  33.421  53.276  0.00  0.00     0.088 A 
ATOM     16  C   UNL d   1      52.148  32.774  53.531  0.00  0.00     0.020 A 
ATOM     17  C   UNL d   1      52.016  34.157  53.195  0.00  0.00     0.049 A 
ATOM     18  C   UNL d   1      52.952  32.909  53.703  0.00  0.00     0.002 A 
ATOM     19  C   UNL d   1      53.280  33.660  53.621  0.00  0.00     0.001 A 
ATOM     20  C   UNL d   1      52.807  34.289  53.365  0.00  0.00     0.008 A 
ATOM     21  S   UNL d   1      51.444  34.684  52.937  0.00  0.00    -0.066 SA
ENDBRANCH   1  13
TORSDOF 1
ENDMDL
