MODEL 1
REMARK VINA RESULT:      -1.9      0.000      0.000
REMARK  7 active torsions:
REMARK  status: ('A' for Active; 'I' for Inactive)
REMARK    1  A    between atoms: N_7  and  S_1 
REMARK    2  A    between atoms: C_19  and  S_1 
REMARK    3  A    between atoms: N_2  and  C_3 
REMARK    4  A    between atoms: C_3  and  C_6 
REMARK    5  A    between atoms: C_5  and  C_3 
REMARK    6  A    between atoms: C_16  and  N_4 
REMARK    7  A    between atoms: C_6  and  N_7 
ROOT
ATOM      1  C   UNL d   1      32.938  22.130 -22.064  0.00  0.00     0.107 C 
ENDROOT
BRANCH   1   2
ATOM      2  N   UNL d   1      32.925  21.347 -22.323  0.00  0.00    -0.298 N 
ATOM      3  C   UNL d   1      32.597  20.760 -21.844  0.00  0.00     0.100 A 
ATOM      4  C   UNL d   1      32.585  19.980 -22.105  0.00  0.00     0.100 A 
ATOM      5  N   UNL d   1      32.899  19.779 -22.839  0.00  0.00    -0.301 N 
ATOM      6  C   UNL d   1      33.227  20.365 -23.317  0.00  0.00     0.100 A 
ATOM      7  C   UNL d   1      33.240  21.148 -23.059  0.00  0.00     0.100 A 
BRANCH   5   8
ATOM      8  C   UNL d   1      32.886  19.001 -23.096  0.00  0.00     0.064 A 
ATOM      9  C   UNL d   1      32.531  18.807 -23.809  0.00  0.00     0.018 A 
ATOM     10  C   UNL d   1      32.517  18.027 -24.069  0.00  0.00     0.002 A 
ATOM     11  C   UNL d   1      32.864  17.436 -23.609  0.00  0.00     0.000 A 
ATOM     12  C   UNL d   1      33.223  17.629 -22.891  0.00  0.00     0.002 A 
ATOM     13  C   UNL d   1      33.233  18.411 -22.636  0.00  0.00     0.018 A 
ENDBRANCH   5   8
ENDBRANCH   1   2
BRANCH   1  14
ATOM     14  C   UNL d   1      33.191  22.326 -21.303  0.00  0.00     0.132 C 
BRANCH  14  15
ATOM     15  N   UNL d   1      32.642  22.663 -20.764  0.00  0.00    -0.155 NA
BRANCH  15  16
ATOM     16  S   UNL d   1      32.861  22.788 -19.983  0.00  0.00     0.286 S 
ATOM     17  O   UNL d   1      32.553  23.557 -20.015  0.00  0.00    -0.198 OA
ATOM     18  O   UNL d   1      33.169  22.016 -19.955  0.00  0.00    -0.198 OA
BRANCH  16  19
ATOM     19  C   UNL d   1      33.086  22.903 -19.195  0.00  0.00     0.117 C 
ATOM     20  C   UNL d   1      32.948  23.632 -18.832  0.00  0.00     0.014 C 
ENDBRANCH  16  19
ENDBRANCH  15  16
ENDBRANCH  14  15
ENDBRANCH   1  14
BRANCH   1  21
ATOM     21  C   UNL d   1      32.691  22.742 -22.582  0.00  0.00     0.118 A 
ATOM     22  O   UNL d   1      31.922  23.032 -22.547  0.00  0.00    -0.304 OA
ATOM     23  C   UNL d   1      31.845  23.627 -23.121  0.00  0.00     0.123 A 
ATOM     24  C   UNL d   1      32.562  23.700 -23.502  0.00  0.00     0.029 A 
ATOM     25  C   UNL d   1      33.087  23.154 -23.171  0.00  0.00     0.028 A 
ENDBRANCH   1  21
TORSDOF 7
ENDMDL
MODEL 2
REMARK VINA RESULT:       0.8      1.564      4.625
REMARK  7 active torsions:
REMARK  status: ('A' for Active; 'I' for Inactive)
REMARK    1  A    between atoms: N_7  and  S_1 
REMARK    2  A    between atoms: C_19  and  S_1 
REMARK    3  A    between atoms: N_2  and  C_3 
REMARK    4  A    between atoms: C_3  and  C_6 
REMARK    5  A    between atoms: C_5  and  C_3 
REMARK    6  A    between atoms: C_16  and  N_4 
REMARK    7  A    between atoms: C_6  and  N_7 
ROOT
ATOM      1  C   UNL d   1      32.965  21.795 -21.547  0.00  0.00     0.107 C 
ENDROOT
BRANCH   1   2
ATOM      2  N   UNL d   1      32.939  22.038 -20.759  0.00  0.00    -0.298 N 
ATOM      3  C   UNL d   1      33.114  22.820 -20.563  0.00  0.00     0.100 A 
ATOM      4  C   UNL d   1      33.087  23.059 -19.775  0.00  0.00     0.100 A 
ATOM      5  N   UNL d   1      32.887  22.525 -19.182  0.00  0.00    -0.301 N 
ATOM      6  C   UNL d   1      32.712  21.743 -19.378  0.00  0.00     0.100 A 
ATOM      7  C   UNL d   1      32.738  21.500 -20.166  0.00  0.00     0.100 A 
BRANCH   5   8
ATOM      8  C   UNL d   1      32.861  22.765 -18.399  0.00  0.00     0.064 A 
ATOM      9  C   UNL d   1      32.460  23.448 -18.190  0.00  0.00     0.018 A 
ATOM     10  C   UNL d   1      32.432  23.692 -17.404  0.00  0.00     0.002 A 
ATOM     11  C   UNL d   1      32.812  23.245 -16.824  0.00  0.00     0.000 A 
ATOM     12  C   UNL d   1      33.217  22.556 -17.033  0.00  0.00     0.002 A 
ATOM     13  C   UNL d   1      33.241  22.318 -17.819  0.00  0.00     0.018 A 
ENDBRANCH   5   8
ENDBRANCH   1   2
BRANCH   1  14
ATOM     14  C   UNL d   1      33.241  21.045 -21.755  0.00  0.00     0.132 C 
BRANCH  14  15
ATOM     15  N   UNL d   1      32.726  20.386 -21.685  0.00  0.00    -0.155 NA
BRANCH  15  16
ATOM     16  S   UNL d   1      32.859  19.714 -22.139  0.00  0.00     0.286 S 
ATOM     17  O   UNL d   1      33.220  20.177 -22.726  0.00  0.00    -0.198 OA
ATOM     18  O   UNL d   1      32.496  19.255 -21.549  0.00  0.00    -0.198 OA
BRANCH  16  19
ATOM     19  C   UNL d   1      32.987  19.031 -22.589  0.00  0.00     0.117 C 
ATOM     20  C   UNL d   1      33.034  18.297 -22.214  0.00  0.00     0.014 C 
ENDBRANCH  16  19
ENDBRANCH  15  16
ENDBRANCH  14  15
ENDBRANCH   1  14
BRANCH   1  21
ATOM     21  C   UNL d   1      32.706  22.317 -22.151  0.00  0.00     0.118 A 
ATOM     22  O   UNL d   1      31.946  22.629 -22.134  0.00  0.00    -0.304 OA
ATOM     23  C   UNL d   1      31.855  23.119 -22.797  0.00  0.00     0.123 A 
ATOM     24  C   UNL d   1      32.555  23.107 -23.216  0.00  0.00     0.029 A 
ATOM     25  C   UNL d   1      33.083  22.610 -22.818  0.00  0.00     0.028 A 
ENDBRANCH   1  21
TORSDOF 7
ENDMDL
MODEL 3
REMARK VINA RESULT:       1.1      2.011      4.475
REMARK  7 active torsions:
REMARK  status: ('A' for Active; 'I' for Inactive)
REMARK    1  A    between atoms: N_7  and  S_1 
REMARK    2  A    between atoms: C_19  and  S_1 
REMARK    3  A    between atoms: N_2  and  C_3 
REMARK    4  A    between atoms: C_3  and  C_6 
REMARK    5  A    between atoms: C_5  and  C_3 
REMARK    6  A    between atoms: C_16  and  N_4 
REMARK    7  A    between atoms: C_6  and  N_7 
ROOT
ATOM      1  C   UNL d   1      33.236  20.419 -23.114  0.00  0.00     0.107 C 
ENDROOT
BRANCH   1   2
ATOM      2  N   UNL d   1      33.234  20.824 -22.395  0.00  0.00    -0.298 N 
ATOM      3  C   UNL d   1      33.233  21.649 -22.387  0.00  0.00     0.100 A 
ATOM      4  C   UNL d   1      33.232  22.051 -21.668  0.00  0.00     0.100 A 
ATOM      5  N   UNL d   1      33.232  21.636 -20.957  0.00  0.00    -0.301 N 
ATOM      6  C   UNL d   1      33.233  20.811 -20.965  0.00  0.00     0.100 A 
ATOM      7  C   UNL d   1      33.234  20.406 -21.684  0.00  0.00     0.100 A 
BRANCH   5   8
ATOM      8  C   UNL d   1      33.231  22.037 -20.243  0.00  0.00     0.064 A 
ATOM      9  C   UNL d   1      33.239  21.622 -19.536  0.00  0.00     0.018 A 
ATOM     10  C   UNL d   1      33.238  22.023 -18.817  0.00  0.00     0.002 A 
ATOM     11  C   UNL d   1      33.228  22.848 -18.809  0.00  0.00     0.000 A 
ATOM     12  C   UNL d   1      33.220  23.268 -19.520  0.00  0.00     0.002 A 
ATOM     13  C   UNL d   1      33.221  22.862 -20.235  0.00  0.00     0.018 A 
ENDBRANCH   5   8
ENDBRANCH   1   2
BRANCH   1  14
ATOM     14  C   UNL d   1      33.240  19.594 -23.140  0.00  0.00     0.132 C 
BRANCH  14  15
ATOM     15  N   UNL d   1      32.524  19.177 -23.008  0.00  0.00    -0.155 NA
BRANCH  15  16
ATOM     16  S   UNL d   1      32.472  18.381 -23.205  0.00  0.00     0.286 S 
ATOM     17  O   UNL d   1      31.706  18.500 -23.502  0.00  0.00    -0.198 OA
ATOM     18  O   UNL d   1      33.239  18.267 -22.907  0.00  0.00    -0.198 OA
BRANCH  16  19
ATOM     19  C   UNL d   1      32.430  17.578 -23.400  0.00  0.00     0.117 C 
ATOM     20  C   UNL d   1      31.694  17.215 -23.485  0.00  0.00     0.014 C 
ENDBRANCH  16  19
ENDBRANCH  15  16
ENDBRANCH  14  15
ENDBRANCH   1  14
BRANCH   1  21
ATOM     21  C   UNL d   1      33.232  20.850 -23.834  0.00  0.00     0.118 A 
ATOM     22  O   UNL d   1      33.218  21.672 -23.826  0.00  0.00    -0.304 OA
ATOM     23  C   UNL d   1      33.218  21.936 -24.613  0.00  0.00     0.123 A 
ATOM     24  C   UNL d   1      33.232  21.280 -25.097  0.00  0.00     0.029 A 
ATOM     25  C   UNL d   1      33.241  20.607 -24.617  0.00  0.00     0.028 A 
ENDBRANCH   1  21
TORSDOF 7
ENDMDL
MODEL 4
REMARK VINA RESULT:       1.1      2.570      4.775
REMARK  7 active torsions:
REMARK  status: ('A' for Active; 'I' for Inactive)
REMARK    1  A    between atoms: N_7  and  S_1 
REMARK    2  A    between atoms: C_19  and  S_1 
REMARK    3  A    between atoms: N_2  and  C_3 
REMARK    4  A    between atoms: C_3  and  C_6 
REMARK    5  A    between atoms: C_5  and  C_3 
REMARK    6  A    between atoms: C_16  and  N_4 
REMARK    7  A    between atoms: C_6  and  N_7 
ROOT
ATOM      1  C   UNL d   1      33.089  19.360 -23.172  0.00  0.00     0.107 C 
ENDROOT
BRANCH   1   2
ATOM      2  N   UNL d   1      33.114  19.874 -22.527  0.00  0.00    -0.298 N 
ATOM      3  C   UNL d   1      33.172  20.688 -22.652  0.00  0.00     0.100 A 
ATOM      4  C   UNL d   1      33.197  21.199 -22.007  0.00  0.00     0.100 A 
ATOM      5  N   UNL d   1      33.164  20.905 -21.238  0.00  0.00    -0.301 N 
ATOM      6  C   UNL d   1      33.106  20.091 -21.114  0.00  0.00     0.100 A 
ATOM      7  C   UNL d   1      33.081  19.577 -21.759  0.00  0.00     0.100 A 
BRANCH   5   8
ATOM      8  C   UNL d   1      33.189  21.415 -20.598  0.00  0.00     0.064 A 
ATOM      9  C   UNL d   1      33.196  22.226 -20.716  0.00  0.00     0.018 A 
ATOM     10  C   UNL d   1      33.221  22.740 -20.074  0.00  0.00     0.002 A 
ATOM     11  C   UNL d   1      33.239  22.437 -19.307  0.00  0.00     0.000 A 
ATOM     12  C   UNL d   1      33.231  21.620 -19.186  0.00  0.00     0.002 A 
ATOM     13  C   UNL d   1      33.207  21.111 -19.831  0.00  0.00     0.018 A 
ENDBRANCH   5   8
ENDBRANCH   1   2
BRANCH   1  14
ATOM     14  C   UNL d   1      33.241  18.553 -23.082  0.00  0.00     0.132 C 
BRANCH  14  15
ATOM     15  N   UNL d   1      32.661  17.998 -23.327  0.00  0.00    -0.155 NA
BRANCH  15  16
ATOM     16  S   UNL d   1      32.785  17.196 -23.204  0.00  0.00     0.286 S 
ATOM     17  O   UNL d   1      32.351  17.232 -22.498  0.00  0.00    -0.198 OA
ATOM     18  O   UNL d   1      33.219  17.164 -23.912  0.00  0.00    -0.198 OA
BRANCH  16  19
ATOM     19  C   UNL d   1      32.917  16.387 -23.090  0.00  0.00     0.117 C 
ATOM     20  C   UNL d   1      32.292  15.854 -23.176  0.00  0.00     0.014 C 
ENDBRANCH  16  19
ENDBRANCH  15  16
ENDBRANCH  14  15
ENDBRANCH   1  14
BRANCH   1  21
ATOM     21  C   UNL d   1      32.907  19.658 -23.935  0.00  0.00     0.118 A 
ATOM     22  O   UNL d   1      32.293  19.331 -24.374  0.00  0.00    -0.304 OA
ATOM     23  C   UNL d   1      32.248  19.738 -25.095  0.00  0.00     0.123 A 
ATOM     24  C   UNL d   1      32.830  20.309 -25.097  0.00  0.00     0.029 A 
ATOM     25  C   UNL d   1      33.239  20.262 -24.380  0.00  0.00     0.028 A 
ENDBRANCH   1  21
TORSDOF 7
ENDMDL
