MODEL 1
REMARK VINA RESULT:      -9.7      0.000      0.000
REMARK  3 active torsions:
REMARK  status: ('A' for Active; 'I' for Inactive)
REMARK    1  A    between atoms: C_15  and  N_5 
REMARK    2  A    between atoms: C_21  and  C_15 
REMARK    3  A    between atoms: O_20  and  C_21 
ROOT
ATOM      1  C   UNL d   1      53.215  32.205  53.713  0.00  0.00     0.137 A 
ATOM      2  C   UNL d   1      52.737  32.245  53.042  0.00  0.00     0.192 A 
ATOM      3  C   UNL d   1      53.529  31.492  53.957  0.00  0.00     0.272 A 
ATOM      4  N   UNL d   1      52.572  31.562  52.611  0.00  0.00    -0.204 NA
ATOM      5  N   UNL d   1      53.364  30.796  53.520  0.00  0.00    -0.256 N 
ATOM      6  C   UNL d   1      53.381  32.888  54.145  0.00  0.00     0.205 A 
ATOM      7  C   UNL d   1      52.889  30.842  52.857  0.00  0.00     0.152 A 
ATOM      8  C   UNL d   1      53.067  33.612  53.906  0.00  0.00     0.062 A 
ATOM      9  O   UNL d   1      52.427  32.974  52.810  0.00  0.00    -0.289 OA
ATOM     10  C   UNL d   1      52.588  33.653  53.235  0.00  0.00     0.105 A 
ATOM     11  O   UNL d   1      54.008  31.451  54.628  0.00  0.00    -0.266 OA
ATOM     12  O   UNL d   1      53.856  32.855  54.814  0.00  0.00    -0.286 OA
ATOM     13  C   UNL d   1      53.234  34.291  54.340  0.00  0.00     0.012 A 
ATOM     14  C   UNL d   1      52.277  34.373  52.998  0.00  0.00     0.025 A 
ATOM     15  C   UNL d   1      52.919  35.020  54.099  0.00  0.00     0.035 A 
ATOM     16  C   UNL d   1      52.726  30.160  52.429  0.00  0.00     0.041 C 
ATOM     17  C   UNL d   1      52.442  35.057  53.430  0.00  0.00     0.009 A 
ATOM     18 BR   UNL d   1      53.085  35.715  54.536  0.00  0.00    -0.049 Br
ENDROOT
BRANCH   5  19
ATOM     19  C   UNL d   1      53.679  30.068  53.761  0.00  0.00     0.111 C 
BRANCH  19  20
ATOM     20  C   UNL d   1      53.248  29.579  54.267  0.00  0.00     0.135 C 
BRANCH  20  21
ATOM     21  O   UNL d   1      53.543  28.837  54.474  0.00  0.00    -0.325 OA
ATOM     22  C   UNL d   1      53.300  28.478  55.176  0.00  0.00     0.182 C 
ENDBRANCH  20  21
ENDBRANCH  19  20
ENDBRANCH   5  19
TORSDOF 3
ENDMDL
MODEL 2
REMARK VINA RESULT:      -9.1      1.842      4.057
REMARK  3 active torsions:
REMARK  status: ('A' for Active; 'I' for Inactive)
REMARK    1  A    between atoms: C_15  and  N_5 
REMARK    2  A    between atoms: C_21  and  C_15 
REMARK    3  A    between atoms: O_20  and  C_21 
ROOT
ATOM      1  C   UNL d   1      53.145  32.518  53.500  0.00  0.00     0.137 A 
ATOM      2  C   UNL d   1      52.587  32.393  52.905  0.00  0.00     0.192 A 
ATOM      3  C   UNL d   1      53.372  33.274  53.704  0.00  0.00     0.272 A 
ATOM      4  N   UNL d   1      52.253  33.036  52.511  0.00  0.00    -0.204 NA
ATOM      5  N   UNL d   1      53.035  33.930  53.306  0.00  0.00    -0.256 N 
ATOM      6  C   UNL d   1      53.479  31.874  53.894  0.00  0.00     0.205 A 
ATOM      7  C   UNL d   1      52.483  33.801  52.718  0.00  0.00     0.152 A 
ATOM      8  C   UNL d   1      53.255  31.106  53.694  0.00  0.00     0.062 A 
ATOM      9  O   UNL d   1      52.368  31.622  52.711  0.00  0.00    -0.289 OA
ATOM     10  C   UNL d   1      52.697  30.982  53.099  0.00  0.00     0.105 A 
ATOM     11  O   UNL d   1      53.930  33.398  54.299  0.00  0.00    -0.266 OA
ATOM     12  O   UNL d   1      54.035  31.990  54.487  0.00  0.00    -0.286 OA
ATOM     13  C   UNL d   1      53.591  30.468  54.090  0.00  0.00     0.012 A 
ATOM     14  C   UNL d   1      52.474  30.218  52.900  0.00  0.00     0.025 A 
ATOM     15  C   UNL d   1      53.365  29.695  53.888  0.00  0.00     0.035 A 
ATOM     16  C   UNL d   1      52.152  34.443  52.327  0.00  0.00     0.041 C 
ATOM     17  C   UNL d   1      52.808  29.574  53.294  0.00  0.00     0.009 A 
ATOM     18 BR   UNL d   1      53.703  29.040  54.287  0.00  0.00    -0.049 Br
ENDROOT
BRANCH   5  19
ATOM     19  C   UNL d   1      53.260  34.702  53.508  0.00  0.00     0.111 C 
BRANCH  19  20
ATOM     20  C   UNL d   1      52.868  35.100  54.114  0.00  0.00     0.135 C 
BRANCH  20  21
ATOM     21  O   UNL d   1      53.120  35.851  54.344  0.00  0.00    -0.325 OA
ATOM     22  C   UNL d   1      52.816  36.196  55.030  0.00  0.00     0.182 C 
ENDBRANCH  20  21
ENDBRANCH  19  20
ENDBRANCH   5  19
TORSDOF 3
ENDMDL
MODEL 3
REMARK VINA RESULT:      -7.4      1.338      1.807
REMARK  3 active torsions:
REMARK  status: ('A' for Active; 'I' for Inactive)
REMARK    1  A    between atoms: C_15  and  N_5 
REMARK    2  A    between atoms: C_21  and  C_15 
REMARK    3  A    between atoms: O_20  and  C_21 
ROOT
ATOM      1  C   UNL d   1      52.314  32.072  53.190  0.00  0.00     0.137 A 
ATOM      2  C   UNL d   1      52.987  32.550  53.177  0.00  0.00     0.192 A 
ATOM      3  C   UNL d   1      52.382  31.262  53.260  0.00  0.00     0.272 A 
ATOM      4  N   UNL d   1      53.736  32.211  53.235  0.00  0.00    -0.204 NA
ATOM      5  N   UNL d   1      53.142  30.914  53.319  0.00  0.00    -0.256 N 
ATOM      6  C   UNL d   1      51.564  32.412  53.132  0.00  0.00     0.205 A 
ATOM      7  C   UNL d   1      53.804  31.392  53.306  0.00  0.00     0.152 A 
ATOM      8  C   UNL d   1      51.487  33.230  53.061  0.00  0.00     0.062 A 
ATOM      9  O   UNL d   1      52.900  33.368  53.106  0.00  0.00    -0.289 OA
ATOM     10  C   UNL d   1      52.159  33.708  53.049  0.00  0.00     0.105 A 
ATOM     11  O   UNL d   1      51.710  30.784  53.272  0.00  0.00    -0.266 OA
ATOM     12  O   UNL d   1      50.891  31.943  53.144  0.00  0.00    -0.286 OA
ATOM     13  C   UNL d   1      50.737  33.564  53.004  0.00  0.00     0.012 A 
ATOM     14  C   UNL d   1      52.082  34.521  52.979  0.00  0.00     0.025 A 
ATOM     15  C   UNL d   1      50.659  34.387  52.933  0.00  0.00     0.035 A 
ATOM     16  C   UNL d   1      54.550  31.051  53.364  0.00  0.00     0.041 C 
ATOM     17  C   UNL d   1      51.332  34.862  52.921  0.00  0.00     0.009 A 
ATOM     18 BR   UNL d   1      49.899  34.735  52.874  0.00  0.00    -0.049 Br
ENDROOT
BRANCH   5  19
ATOM     19  C   UNL d   1      53.220  30.092  53.390  0.00  0.00     0.111 C 
BRANCH  19  20
ATOM     20  C   UNL d   1      53.299  29.748  54.136  0.00  0.00     0.135 C 
BRANCH  20  21
ATOM     21  O   UNL d   1      53.286  28.927  54.215  0.00  0.00    -0.325 OA
ATOM     22  C   UNL d   1      53.366  28.584  54.961  0.00  0.00     0.182 C 
ENDBRANCH  20  21
ENDBRANCH  19  20
ENDBRANCH   5  19
TORSDOF 3
ENDMDL
MODEL 4
REMARK VINA RESULT:      -7.4      2.144      4.028
REMARK  3 active torsions:
REMARK  status: ('A' for Active; 'I' for Inactive)
REMARK    1  A    between atoms: C_15  and  N_5 
REMARK    2  A    between atoms: C_21  and  C_15 
REMARK    3  A    between atoms: O_20  and  C_21 
ROOT
ATOM      1  C   UNL d   1      52.171  34.010  53.660  0.00  0.00     0.137 A 
ATOM      2  C   UNL d   1      52.086  33.194  53.572  0.00  0.00     0.192 A 
ATOM      3  C   UNL d   1      51.602  34.520  53.373  0.00  0.00     0.272 A 
ATOM      4  N   UNL d   1      51.422  32.886  53.191  0.00  0.00    -0.204 NA
ATOM      5  N   UNL d   1      50.927  34.211  52.985  0.00  0.00    -0.256 N 
ATOM      6  C   UNL d   1      52.835  34.318  54.041  0.00  0.00     0.205 A 
ATOM      7  C   UNL d   1      50.848  33.402  52.901  0.00  0.00     0.152 A 
ATOM      8  C   UNL d   1      53.415  33.809  54.334  0.00  0.00     0.062 A 
ATOM      9  O   UNL d   1      52.670  32.692  53.868  0.00  0.00    -0.289 OA
ATOM     10  C   UNL d   1      53.329  32.993  54.246  0.00  0.00     0.105 A 
ATOM     11  O   UNL d   1      51.688  35.336  53.461  0.00  0.00    -0.266 OA
ATOM     12  O   UNL d   1      52.926  35.128  54.132  0.00  0.00    -0.286 OA
ATOM     13  C   UNL d   1      54.075  34.120  54.714  0.00  0.00     0.012 A 
ATOM     14  C   UNL d   1      53.905  32.487  54.538  0.00  0.00     0.025 A 
ATOM     15  C   UNL d   1      54.658  33.608  55.009  0.00  0.00     0.035 A 
ATOM     16  C   UNL d   1      50.185  33.099  52.521  0.00  0.00     0.041 C 
ATOM     17  C   UNL d   1      54.570  32.795  54.919  0.00  0.00     0.009 A 
ATOM     18 BR   UNL d   1      55.333  33.918  55.396  0.00  0.00    -0.049 Br
ENDROOT
BRANCH   5  19
ATOM     19  C   UNL d   1      50.344  34.722  52.691  0.00  0.00     0.111 C 
BRANCH  19  20
ATOM     20  C   UNL d   1      49.694  34.919  53.159  0.00  0.00     0.135 C 
BRANCH  20  21
ATOM     21  O   UNL d   1      49.101  35.406  52.856  0.00  0.00    -0.325 OA
ATOM     22  C   UNL d   1      48.515  35.702  53.356  0.00  0.00     0.182 C 
ENDBRANCH  20  21
ENDBRANCH  19  20
ENDBRANCH   5  19
TORSDOF 3
ENDMDL
MODEL 5
REMARK VINA RESULT:      -7.0      2.135      4.338
REMARK  3 active torsions:
REMARK  status: ('A' for Active; 'I' for Inactive)
REMARK    1  A    between atoms: C_15  and  N_5 
REMARK    2  A    between atoms: C_21  and  C_15 
REMARK    3  A    between atoms: O_20  and  C_21 
ROOT
ATOM      1  C   UNL d   1      52.088  32.630  53.254  0.00  0.00     0.137 A 
ATOM      2  C   UNL d   1      52.830  32.989  53.232  0.00  0.00     0.192 A 
ATOM      3  C   UNL d   1      51.408  33.079  53.208  0.00  0.00     0.272 A 
ATOM      4  N   UNL d   1      52.891  33.808  53.163  0.00  0.00    -0.204 NA
ATOM      5  N   UNL d   1      51.466  33.912  53.139  0.00  0.00    -0.256 N 
ATOM      6  C   UNL d   1      52.026  31.810  53.322  0.00  0.00     0.205 A 
ATOM      7  C   UNL d   1      52.204  34.263  53.118  0.00  0.00     0.152 A 
ATOM      8  C   UNL d   1      52.708  31.348  53.369  0.00  0.00     0.062 A 
ATOM      9  O   UNL d   1      53.507  32.520  53.279  0.00  0.00    -0.289 OA
ATOM     10  C   UNL d   1      53.451  31.707  53.347  0.00  0.00     0.105 A 
ATOM     11  O   UNL d   1      50.665  32.720  53.231  0.00  0.00    -0.266 OA
ATOM     12  O   UNL d   1      51.291  31.446  53.345  0.00  0.00    -0.286 OA
ATOM     13  C   UNL d   1      52.643  30.531  53.437  0.00  0.00     0.012 A 
ATOM     14  C   UNL d   1      54.129  31.248  53.393  0.00  0.00     0.025 A 
ATOM     15  C   UNL d   1      53.329  30.067  53.484  0.00  0.00     0.035 A 
ATOM     16  C   UNL d   1      52.262  35.079  53.049  0.00  0.00     0.041 C 
ATOM     17  C   UNL d   1      54.068  30.428  53.462  0.00  0.00     0.009 A 
ATOM     18 BR   UNL d   1      53.270  29.234  53.553  0.00  0.00    -0.049 Br
ENDROOT
BRANCH   5  19
ATOM     19  C   UNL d   1      50.781  34.376  53.092  0.00  0.00     0.111 C 
BRANCH  19  20
ATOM     20  C   UNL d   1      50.341  34.392  52.394  0.00  0.00     0.135 C 
BRANCH  20  21
ATOM     21  O   UNL d   1      49.617  34.787  52.372  0.00  0.00    -0.325 OA
ATOM     22  C   UNL d   1      49.155  34.764  51.689  0.00  0.00     0.182 C 
ENDBRANCH  20  21
ENDBRANCH  19  20
ENDBRANCH   5  19
TORSDOF 3
ENDMDL
