MODEL 1
REMARK VINA RESULT:      21.2      0.000      0.000
REMARK  3 active torsions:
REMARK  status: ('A' for Active; 'I' for Inactive)
REMARK    1  A    between atoms: C_13  and  C_4 
REMARK    2  A    between atoms: O_15  and  C_13 
REMARK    3  A    between atoms: C_16  and  O_15 
ROOT
ATOM      1  C   UNL d   1      13.352  11.962  -2.555  0.00  0.00     0.144 C 
ENDROOT
BRANCH   1   2
ATOM      2  C   UNL d   1      13.861  12.210  -1.969  0.00  0.00     0.142 A 
ATOM      3  N   UNL d   1      14.469  11.779  -1.621  0.00  0.00    -0.057 NA
ATOM      4  C   UNL d   1      14.845  12.242  -1.053  0.00  0.00     0.735 A 
ATOM      5  N   UNL d   1      14.471  12.989  -1.034  0.00  0.00    -0.136 N 
ATOM      6  N   UNL d   1      15.475  12.095  -0.548  0.00  0.00    -0.059 NA
ATOM      7  C   UNL d   1      13.868  12.950  -1.604  0.00  0.00     0.120 A 
ATOM      8  C   UNL d   1      14.728  13.575  -0.515  0.00  0.00     0.100 A 
ATOM      9  C   UNL d   1      15.343  13.447  -0.015  0.00  0.00     0.041 A 
ATOM     10  C   UNL d   1      15.741  12.691  -0.016  0.00  0.00     0.119 A 
ENDBRANCH   1   2
BRANCH   1  11
ATOM     11  O   UNL d   1      12.985  12.507  -3.042  0.00  0.00    -0.303 OA
BRANCH  11  12
ATOM     12  C   UNL d   1      13.103  12.489  -3.858  0.00  0.00     0.100 A 
ATOM     13  C   UNL d   1      13.340  13.169  -4.241  0.00  0.00     0.025 A 
ATOM     14  C   UNL d   1      13.458  13.155  -5.056  0.00  0.00     0.013 A 
ATOM     15  C   UNL d   1      13.705  13.861  -5.453  0.00  0.00     0.001 C 
ATOM     16  C   UNL d   1      13.338  12.458  -5.490  0.00  0.00     0.058 A 
ATOM     17  C   UNL d   1      13.101  11.779  -5.107  0.00  0.00     0.013 A 
ATOM     18 CL   UNL d   1      13.453  12.426  -6.316  0.00  0.00    -0.082 Cl
ATOM     19  C   UNL d   1      12.983  11.797  -4.289  0.00  0.00     0.026 A 
ENDBRANCH  11  12
ENDBRANCH   1  11
TORSDOF 3
ENDMDL
