MODEL 1
REMARK VINA RESULT:      -4.9      0.000      0.000
REMARK  5 active torsions:
REMARK  status: ('A' for Active; 'I' for Inactive)
REMARK    1  A    between atoms: S_6  and  C_2 
REMARK    2  A    between atoms: C_8  and  C_4 
REMARK    3  A    between atoms: C_11  and  S_6 
REMARK    4  A    between atoms: C_7  and  C_11 
REMARK       I    between atoms: N_9  and  C_7 
REMARK    5  A    between atoms: C_15  and  N_9 
ROOT
ATOM      1  N   UNL d   1     -48.300  12.499  23.400  0.00  0.00    -0.244 NA
ATOM      2  C   UNL d   1     -47.688  12.975  23.109  0.00  0.00     0.125 A 
ATOM      3  N   UNL d   1     -47.284  11.707  23.056  0.00  0.00    -0.250 NA
ATOM      4  C   UNL d   1     -47.076  12.497  22.901  0.00  0.00     0.101 A 
ATOM      5  C   UNL d   1     -48.114  11.673  23.397  0.00  0.00     0.168 A 
ATOM      6  C   UNL d   1     -47.890  10.868  23.377  0.00  0.00     0.050 C 
ATOM      7  C   UNL d   1     -48.866  11.887  23.685  0.00  0.00     0.050 C 
ENDROOT
BRANCH   2   8
ATOM      8  S   UNL d   1     -47.703  13.805  23.042  0.00  0.00    -0.061 SA
BRANCH   8   9
ATOM      9  C   UNL d   1     -48.385  14.185  22.778  0.00  0.00     0.099 C 
BRANCH   9  10
ATOM     10  C   UNL d   1     -48.380  14.992  22.647  0.00  0.00     0.286 C 
ATOM     11  N   UNL d   1     -49.042  15.365  22.352  0.00  0.00    -0.208 NA
ATOM     12  O   UNL d   1     -47.704  15.424  22.814  0.00  0.00    -0.265 OA
BRANCH  11  13
ATOM     13  C   UNL d   1     -49.711  14.938  22.186  0.00  0.00     0.085 A 
ATOM     14  C   UNL d   1     -49.812  14.618  21.444  0.00  0.00     0.019 A 
ATOM     15  C   UNL d   1     -50.491  14.180  21.262  0.00  0.00     0.002 A 
ATOM     16  C   UNL d   1     -51.063  14.071  21.838  0.00  0.00     0.000 A 
ATOM     17  C   UNL d   1     -50.965  14.393  22.589  0.00  0.00     0.002 A 
ATOM     18  C   UNL d   1     -50.292  14.825  22.760  0.00  0.00     0.019 A 
ENDBRANCH  11  13
ENDBRANCH   9  10
ENDBRANCH   8   9
ENDBRANCH   2   8
BRANCH   4  19
ATOM     19  C   UNL d   1     -46.341  12.702  22.583  0.00  0.00     0.019 A 
ATOM     20  C   UNL d   1     -45.743  12.997  23.074  0.00  0.00     0.002 A 
ATOM     21  C   UNL d   1     -45.019  13.198  22.761  0.00  0.00     0.011 A 
ATOM     22  C   UNL d   1     -44.871  13.110  21.937  0.00  0.00     0.058 A 
ATOM     23  C   UNL d   1     -45.452  12.825  21.468  0.00  0.00     0.011 A 
ATOM     24 CL   UNL d   1     -44.127  13.317  21.616  0.00  0.00    -0.082 Cl
ATOM     25  C   UNL d   1     -46.198  12.615  21.774  0.00  0.00     0.002 A 
ENDBRANCH   4  19
TORSDOF 5
ENDMDL
MODEL 2
REMARK VINA RESULT:      -4.4      7.041      9.279
REMARK  5 active torsions:
REMARK  status: ('A' for Active; 'I' for Inactive)
REMARK    1  A    between atoms: S_6  and  C_2 
REMARK    2  A    between atoms: C_8  and  C_4 
REMARK    3  A    between atoms: C_11  and  S_6 
REMARK    4  A    between atoms: C_7  and  C_11 
REMARK       I    between atoms: N_9  and  C_7 
REMARK    5  A    between atoms: C_15  and  N_9 
ROOT
ATOM      1  N   UNL d   1     -40.893  14.439  20.849  0.00  0.00    -0.244 NA
ATOM      2  C   UNL d   1     -40.348  14.612  20.250  0.00  0.00     0.125 A 
ATOM      3  N   UNL d   1     -41.385  13.984  19.697  0.00  0.00    -0.250 NA
ATOM      4  C   UNL d   1     -40.645  14.337  19.555  0.00  0.00     0.101 A 
ATOM      5  C   UNL d   1     -41.584  14.036  20.571  0.00  0.00     0.168 A 
ATOM      6  C   UNL d   1     -42.248  13.640  20.255  0.00  0.00     0.050 C 
ATOM      7  C   UNL d   1     -41.548  14.199  21.387  0.00  0.00     0.050 C 
ENDROOT
BRANCH   2   8
ATOM      8  S   UNL d   1     -39.620  15.003  20.348  0.00  0.00    -0.061 SA
BRANCH   8   9
ATOM      9  C   UNL d   1     -39.133  14.814  20.986  0.00  0.00     0.099 C 
BRANCH   9  10
ATOM     10  C   UNL d   1     -38.463  15.256  21.135  0.00  0.00     0.286 C 
ATOM     11  N   UNL d   1     -37.949  15.038  21.729  0.00  0.00    -0.208 NA
ATOM     12  O   UNL d   1     -38.309  15.922  20.682  0.00  0.00    -0.265 OA
BRANCH  11  13
ATOM     13  C   UNL d   1     -38.100  14.379  22.177  0.00  0.00     0.085 A 
ATOM     14  C   UNL d   1     -38.401  14.464  22.930  0.00  0.00     0.019 A 
ATOM     15  C   UNL d   1     -38.559  13.799  23.398  0.00  0.00     0.002 A 
ATOM     16  C   UNL d   1     -38.410  13.052  23.095  0.00  0.00     0.000 A 
ATOM     17  C   UNL d   1     -38.106  12.963  22.336  0.00  0.00     0.002 A 
ATOM     18  C   UNL d   1     -37.953  13.624  21.881  0.00  0.00     0.019 A 
ENDBRANCH  11  13
ENDBRANCH   9  10
ENDBRANCH   8   9
ENDBRANCH   2   8
BRANCH   4  19
ATOM     19  C   UNL d   1     -40.315  14.373  18.798  0.00  0.00     0.019 A 
ATOM     20  C   UNL d   1     -40.494  15.006  18.296  0.00  0.00     0.002 A 
ATOM     21  C   UNL d   1     -40.169  15.042  17.550  0.00  0.00     0.011 A 
ATOM     22  C   UNL d   1     -39.649  14.436  17.282  0.00  0.00     0.058 A 
ATOM     23  C   UNL d   1     -39.480  13.827  17.772  0.00  0.00     0.011 A 
ATOM     24 CL   UNL d   1     -39.316  14.472  16.517  0.00  0.00    -0.082 Cl
ATOM     25  C   UNL d   1     -39.805  13.777  18.538  0.00  0.00     0.002 A 
ENDBRANCH   4  19
TORSDOF 5
ENDMDL
MODEL 3
REMARK VINA RESULT:      -3.7      1.873      2.558
REMARK  5 active torsions:
REMARK  status: ('A' for Active; 'I' for Inactive)
REMARK    1  A    between atoms: S_6  and  C_2 
REMARK    2  A    between atoms: C_8  and  C_4 
REMARK    3  A    between atoms: C_11  and  S_6 
REMARK    4  A    between atoms: C_7  and  C_11 
REMARK       I    between atoms: N_9  and  C_7 
REMARK    5  A    between atoms: C_15  and  N_9 
ROOT
ATOM      1  N   UNL d   1     -46.594  11.060  23.598  0.00  0.00    -0.244 NA
ATOM      2  C   UNL d   1     -46.941  11.801  23.471  0.00  0.00     0.125 A 
ATOM      3  N   UNL d   1     -45.637  11.908  23.221  0.00  0.00    -0.250 NA
ATOM      4  C   UNL d   1     -46.364  12.313  23.244  0.00  0.00     0.101 A 
ATOM      5  C   UNL d   1     -45.759  11.051  23.458  0.00  0.00     0.168 A 
ATOM      6  C   UNL d   1     -44.938  11.085  23.308  0.00  0.00     0.050 C 
ATOM      7  C   UNL d   1     -46.107  10.332  23.698  0.00  0.00     0.050 C 
ENDROOT
BRANCH   2   8
ATOM      8  S   UNL d   1     -47.747  11.987  23.563  0.00  0.00    -0.061 SA
BRANCH   8   9
ATOM      9  C   UNL d   1     -48.287  11.779  22.976  0.00  0.00     0.099 C 
BRANCH   9  10
ATOM     10  C   UNL d   1     -48.970  11.374  23.171  0.00  0.00     0.286 C 
ATOM     11  N   UNL d   1     -49.688  11.602  22.858  0.00  0.00    -0.208 NA
ATOM     12  O   UNL d   1     -48.928  10.737  23.685  0.00  0.00    -0.265 OA
BRANCH  11  13
ATOM     13  C   UNL d   1     -49.730  12.232  22.350  0.00  0.00     0.085 A 
ATOM     14  C   UNL d   1     -50.009  12.949  22.618  0.00  0.00     0.019 A 
ATOM     15  C   UNL d   1     -50.056  13.600  22.109  0.00  0.00     0.002 A 
ATOM     16  C   UNL d   1     -49.819  13.517  21.329  0.00  0.00     0.000 A 
ATOM     17  C   UNL d   1     -49.537  12.795  21.054  0.00  0.00     0.002 A 
ATOM     18  C   UNL d   1     -49.493  12.157  21.563  0.00  0.00     0.019 A 
ENDBRANCH  11  13
ENDBRANCH   9  10
ENDBRANCH   8   9
ENDBRANCH   2   8
BRANCH   4  19
ATOM     19  C   UNL d   1     -46.424  13.114  23.053  0.00  0.00     0.019 A 
ATOM     20  C   UNL d   1     -46.249  13.373  22.286  0.00  0.00     0.002 A 
ATOM     21  C   UNL d   1     -46.309  14.163  22.098  0.00  0.00     0.011 A 
ATOM     22  C   UNL d   1     -46.549  14.724  22.679  0.00  0.00     0.058 A 
ATOM     23  C   UNL d   1     -46.717  14.468  23.417  0.00  0.00     0.011 A 
ATOM     24 CL   UNL d   1     -46.610  15.534  22.484  0.00  0.00    -0.082 Cl
ATOM     25  C   UNL d   1     -46.660  13.662  23.625  0.00  0.00     0.002 A 
ENDBRANCH   4  19
TORSDOF 5
ENDMDL
MODEL 4
REMARK VINA RESULT:      -2.6      1.485      2.074
REMARK  5 active torsions:
REMARK  status: ('A' for Active; 'I' for Inactive)
REMARK    1  A    between atoms: S_6  and  C_2 
REMARK    2  A    between atoms: C_8  and  C_4 
REMARK    3  A    between atoms: C_11  and  S_6 
REMARK    4  A    between atoms: C_7  and  C_11 
REMARK       I    between atoms: N_9  and  C_7 
REMARK    5  A    between atoms: C_15  and  N_9 
ROOT
ATOM      1  N   UNL d   1     -46.253  11.924  23.236  0.00  0.00    -0.244 NA
ATOM      2  C   UNL d   1     -45.792  12.448  22.789  0.00  0.00     0.125 A 
ATOM      3  N   UNL d   1     -45.103  11.317  22.940  0.00  0.00    -0.250 NA
ATOM      4  C   UNL d   1     -45.099  12.081  22.610  0.00  0.00     0.101 A 
ATOM      5  C   UNL d   1     -45.877  11.178  23.373  0.00  0.00     0.168 A 
ATOM      6  C   UNL d   1     -45.471  10.457  23.485  0.00  0.00     0.050 C 
ATOM      7  C   UNL d   1     -46.638  11.280  23.698  0.00  0.00     0.050 C 
ENDROOT
BRANCH   2   8
ATOM      8  S   UNL d   1     -46.008  13.219  22.563  0.00  0.00    -0.061 SA
BRANCH   8   9
ATOM      9  C   UNL d   1     -46.784  13.476  22.663  0.00  0.00     0.099 C 
BRANCH   9  10
ATOM     10  C   UNL d   1     -46.948  14.276  22.708  0.00  0.00     0.286 C 
ATOM     11  N   UNL d   1     -47.702  14.550  22.559  0.00  0.00    -0.208 NA
ATOM     12  O   UNL d   1     -46.351  14.800  22.904  0.00  0.00    -0.265 OA
BRANCH  11  13
ATOM     13  C   UNL d   1     -48.294  14.031  22.365  0.00  0.00     0.085 A 
ATOM     14  C   UNL d   1     -48.855  13.832  22.922  0.00  0.00     0.019 A 
ATOM     15  C   UNL d   1     -49.464  13.303  22.736  0.00  0.00     0.002 A 
ATOM     16  C   UNL d   1     -49.499  12.981  21.983  0.00  0.00     0.000 A 
ATOM     17  C   UNL d   1     -48.935  13.180  21.418  0.00  0.00     0.002 A 
ATOM     18  C   UNL d   1     -48.336  13.703  21.610  0.00  0.00     0.019 A 
ENDBRANCH  11  13
ENDBRANCH   9  10
ENDBRANCH   8   9
ENDBRANCH   2   8
BRANCH   4  19
ATOM     19  C   UNL d   1     -44.456  12.367  22.177  0.00  0.00     0.019 A 
ATOM     20  C   UNL d   1     -44.572  12.682  21.420  0.00  0.00     0.002 A 
ATOM     21  C   UNL d   1     -43.939  12.964  20.992  0.00  0.00     0.011 A 
ATOM     22  C   UNL d   1     -43.162  12.939  21.315  0.00  0.00     0.058 A 
ATOM     23  C   UNL d   1     -43.056  12.634  22.046  0.00  0.00     0.011 A 
ATOM     24 CL   UNL d   1     -42.512  13.229  20.876  0.00  0.00    -0.082 Cl
ATOM     25  C   UNL d   1     -43.694  12.342  22.495  0.00  0.00     0.002 A 
ENDBRANCH   4  19
TORSDOF 5
ENDMDL
