MODEL 1
REMARK VINA RESULT:      -5.7      0.000      0.000
REMARK  2 active torsions:
REMARK  status: ('A' for Active; 'I' for Inactive)
REMARK    1  A    between atoms: C_3  and  C_1 
REMARK       I    between atoms: N_7  and  C_3 
REMARK    2  A    between atoms: C_11  and  N_7 
ROOT
ATOM      1  C   UNL d   1      58.263   0.453  30.224  0.00  0.00     0.121 A 
ATOM      2  C   UNL d   1      58.131   0.593  29.422  0.00  0.00     0.305 A 
ATOM      3  C   UNL d   1      59.042   0.388  30.517  0.00  0.00     0.012 A 
ATOM      4  O   UNL d   1      58.779   0.668  28.923  0.00  0.00    -0.273 OA
ATOM      5  C   UNL d   1      59.665   0.467  29.996  0.00  0.00     0.023 A 
ATOM      6  C   UNL d   1      59.533   0.607  29.194  0.00  0.00     0.103 A 
ATOM      7  O   UNL d   1      57.378   0.658  29.126  0.00  0.00    -0.259 OA
ATOM      8  C   UNL d   1      60.448   0.402  30.287  0.00  0.00     0.002 A 
ATOM      9  C   UNL d   1      60.186   0.682  28.694  0.00  0.00     0.025 A 
ATOM     10  C   UNL d   1      61.062   0.481  29.768  0.00  0.00     0.000 A 
ATOM     11  C   UNL d   1      60.930   0.622  28.966  0.00  0.00     0.002 A 
ENDROOT
BRANCH   1  12
ATOM     12  C   UNL d   1      57.625   0.374  30.748  0.00  0.00     0.284 C 
ATOM     13  N   UNL d   1      57.711  -0.023  31.468  0.00  0.00    -0.208 NA
ATOM     14  O   UNL d   1      56.877   0.681  30.587  0.00  0.00    -0.265 OA
BRANCH  13  15
ATOM     15  C   UNL d   1      57.078  -0.097  31.978  0.00  0.00     0.085 A 
ATOM     16  C   UNL d   1      56.651  -0.795  32.018  0.00  0.00     0.019 A 
ATOM     17  C   UNL d   1      56.011  -0.874  32.532  0.00  0.00     0.002 A 
ATOM     18  C   UNL d   1      55.803  -0.231  33.013  0.00  0.00     0.000 A 
ATOM     19  C   UNL d   1      56.218   0.484  32.992  0.00  0.00     0.002 A 
ATOM     20  C   UNL d   1      55.181  -0.296  33.518  0.00  0.00     0.000 C 
ATOM     21  C   UNL d   1      56.858   0.548  32.470  0.00  0.00     0.019 A 
ENDBRANCH  13  15
ENDBRANCH   1  12
TORSDOF 2
ENDMDL
MODEL 2
REMARK VINA RESULT:      -5.7      1.575      1.719
REMARK  2 active torsions:
REMARK  status: ('A' for Active; 'I' for Inactive)
REMARK    1  A    between atoms: C_3  and  C_1 
REMARK       I    between atoms: N_7  and  C_3 
REMARK    2  A    between atoms: C_11  and  N_7 
ROOT
ATOM      1  C   UNL d   1      58.065  -0.650  30.310  0.00  0.00     0.121 A 
ATOM      2  C   UNL d   1      58.603  -0.096  30.021  0.00  0.00     0.305 A 
ATOM      3  C   UNL d   1      58.105  -1.445  30.058  0.00  0.00     0.012 A 
ATOM      4  O   UNL d   1      59.174  -0.343  29.486  0.00  0.00    -0.273 OA
ATOM      5  C   UNL d   1      58.684  -1.660  29.525  0.00  0.00     0.023 A 
ATOM      6  C   UNL d   1      59.223  -1.105  29.237  0.00  0.00     0.103 A 
ATOM      7  O   UNL d   1      58.574   0.681  30.259  0.00  0.00    -0.259 OA
ATOM      8  C   UNL d   1      58.727  -2.457  29.271  0.00  0.00     0.002 A 
ATOM      9  C   UNL d   1      59.796  -1.355  28.698  0.00  0.00     0.025 A 
ATOM     10  C   UNL d   1      59.302  -2.665  28.743  0.00  0.00     0.000 A 
ATOM     11  C   UNL d   1      59.840  -2.110  28.455  0.00  0.00     0.002 A 
ENDROOT
BRANCH   1  12
ATOM     12  C   UNL d   1      57.479  -0.425  30.851  0.00  0.00     0.284 C 
ATOM     13  N   UNL d   1      57.432  -0.775  31.599  0.00  0.00    -0.208 NA
ATOM     14  O   UNL d   1      56.915   0.152  30.682  0.00  0.00    -0.265 OA
BRANCH  13  15
ATOM     15  C   UNL d   1      56.853  -0.548  32.127  0.00  0.00     0.085 A 
ATOM     16  C   UNL d   1      56.237  -1.053  32.316  0.00  0.00     0.019 A 
ATOM     17  C   UNL d   1      55.649  -0.828  32.849  0.00  0.00     0.002 A 
ATOM     18  C   UNL d   1      55.690  -0.076  33.195  0.00  0.00     0.000 A 
ATOM     19  C   UNL d   1      56.301   0.453  33.021  0.00  0.00     0.002 A 
ATOM     20  C   UNL d   1      55.123   0.154  33.716  0.00  0.00     0.000 C 
ATOM     21  C   UNL d   1      56.884   0.213  32.483  0.00  0.00     0.019 A 
ENDBRANCH  13  15
ENDBRANCH   1  12
TORSDOF 2
ENDMDL
MODEL 3
REMARK VINA RESULT:      -5.5      1.067      4.624
REMARK  2 active torsions:
REMARK  status: ('A' for Active; 'I' for Inactive)
REMARK    1  A    between atoms: C_3  and  C_1 
REMARK       I    between atoms: N_7  and  C_3 
REMARK    2  A    between atoms: C_11  and  N_7 
ROOT
ATOM      1  C   UNL d   1      56.911  -0.516  31.742  0.00  0.00     0.121 A 
ATOM      2  C   UNL d   1      56.609  -1.266  31.907  0.00  0.00     0.305 A 
ATOM      3  C   UNL d   1      56.682   0.140  32.204  0.00  0.00     0.012 A 
ATOM      4  O   UNL d   1      56.081  -1.350  32.531  0.00  0.00    -0.273 OA
ATOM      5  C   UNL d   1      56.156   0.024  32.818  0.00  0.00     0.023 A 
ATOM      6  C   UNL d   1      55.854  -0.725  32.982  0.00  0.00     0.103 A 
ATOM      7  O   UNL d   1      56.824  -1.912  31.464  0.00  0.00    -0.259 OA
ATOM      8  C   UNL d   1      55.924   0.682  33.283  0.00  0.00     0.002 A 
ATOM      9  C   UNL d   1      55.324  -0.808  33.609  0.00  0.00     0.025 A 
ATOM     10  C   UNL d   1      55.404   0.562  33.889  0.00  0.00     0.000 A 
ATOM     11  C   UNL d   1      55.102  -0.187  34.053  0.00  0.00     0.002 A 
ENDROOT
BRANCH   1  12
ATOM     12  C   UNL d   1      57.445  -0.406  31.117  0.00  0.00     0.284 C 
ATOM     13  N   UNL d   1      57.910   0.276  31.069  0.00  0.00    -0.208 NA
ATOM     14  O   UNL d   1      57.545  -0.960  30.515  0.00  0.00    -0.265 OA
BRANCH  13  15
ATOM     15  C   UNL d   1      58.433   0.377  30.451  0.00  0.00     0.085 A 
ATOM     16  C   UNL d   1      58.165   0.426  29.679  0.00  0.00     0.019 A 
ATOM     17  C   UNL d   1      58.690   0.529  29.051  0.00  0.00     0.002 A 
ATOM     18  C   UNL d   1      59.501   0.582  29.213  0.00  0.00     0.000 A 
ATOM     19  C   UNL d   1      59.797   0.535  29.983  0.00  0.00     0.002 A 
ATOM     20  C   UNL d   1      60.023   0.682  28.609  0.00  0.00     0.000 C 
ATOM     21  C   UNL d   1      59.257   0.432  30.604  0.00  0.00     0.019 A 
ENDBRANCH  13  15
ENDBRANCH   1  12
TORSDOF 2
ENDMDL
MODEL 4
REMARK VINA RESULT:      -5.2      1.616      4.825
REMARK  2 active torsions:
REMARK  status: ('A' for Active; 'I' for Inactive)
REMARK    1  A    between atoms: C_3  and  C_1 
REMARK       I    between atoms: N_7  and  C_3 
REMARK    2  A    between atoms: C_11  and  N_7 
ROOT
ATOM      1  C   UNL d   1      56.954   0.434  32.768  0.00  0.00     0.121 A 
ATOM      2  C   UNL d   1      57.334   0.571  33.488  0.00  0.00     0.305 A 
ATOM      3  C   UNL d   1      56.122   0.379  32.736  0.00  0.00     0.012 A 
ATOM      4  O   UNL d   1      56.876   0.650  34.166  0.00  0.00    -0.273 OA
ATOM      5  C   UNL d   1      55.695   0.462  33.426  0.00  0.00     0.023 A 
ATOM      6  C   UNL d   1      56.075   0.599  34.146  0.00  0.00     0.103 A 
ATOM      7  O   UNL d   1      58.143   0.626  33.532  0.00  0.00    -0.259 OA
ATOM      8  C   UNL d   1      54.860   0.407  33.396  0.00  0.00     0.002 A 
ATOM      9  C   UNL d   1      55.613   0.678  34.826  0.00  0.00     0.025 A 
ATOM     10  C   UNL d   1      54.442   0.490  34.082  0.00  0.00     0.000 A 
ATOM     11  C   UNL d   1      54.821   0.626  34.802  0.00  0.00     0.002 A 
ENDROOT
BRANCH   1  12
ATOM     12  C   UNL d   1      57.395   0.351  32.071  0.00  0.00     0.284 C 
ATOM     13  N   UNL d   1      57.098  -0.076  31.428  0.00  0.00    -0.208 NA
ATOM     14  O   UNL d   1      58.144   0.682  31.975  0.00  0.00    -0.265 OA
BRANCH  13  15
ATOM     15  C   UNL d   1      57.537  -0.154  30.744  0.00  0.00     0.085 A 
ATOM     16  C   UNL d   1      57.886  -0.868  30.550  0.00  0.00     0.019 A 
ATOM     17  C   UNL d   1      58.331  -0.952  29.860  0.00  0.00     0.002 A 
ATOM     18  C   UNL d   1      58.420  -0.297  29.361  0.00  0.00     0.000 A 
ATOM     19  C   UNL d   1      58.078   0.436  29.534  0.00  0.00     0.002 A 
ATOM     20  C   UNL d   1      58.851  -0.366  28.686  0.00  0.00     0.000 C 
ATOM     21  C   UNL d   1      57.634   0.504  30.231  0.00  0.00     0.019 A 
ENDBRANCH  13  15
ENDBRANCH   1  12
TORSDOF 2
ENDMDL
MODEL 5
REMARK VINA RESULT:      -4.6      1.135      1.186
REMARK  2 active torsions:
REMARK  status: ('A' for Active; 'I' for Inactive)
REMARK    1  A    between atoms: C_3  and  C_1 
REMARK       I    between atoms: N_7  and  C_3 
REMARK    2  A    between atoms: C_11  and  N_7 
ROOT
ATOM      1  C   UNL d   1      58.170  -0.610  30.367  0.00  0.00     0.121 A 
ATOM      2  C   UNL d   1      58.371  -1.333  30.022  0.00  0.00     0.305 A 
ATOM      3  C   UNL d   1      58.634   0.068  30.221  0.00  0.00     0.012 A 
ATOM      4  O   UNL d   1      59.032  -1.367  29.536  0.00  0.00    -0.273 OA
ATOM      5  C   UNL d   1      59.285   0.002  29.734  0.00  0.00     0.023 A 
ATOM      6  C   UNL d   1      59.486  -0.720  29.388  0.00  0.00     0.103 A 
ATOM      7  O   UNL d   1      57.928  -2.000  30.156  0.00  0.00    -0.259 OA
ATOM      8  C   UNL d   1      59.752   0.682  29.586  0.00  0.00     0.002 A 
ATOM      9  C   UNL d   1      60.150  -0.753  28.900  0.00  0.00     0.025 A 
ATOM     10  C   UNL d   1      60.396   0.611  29.103  0.00  0.00     0.000 A 
ATOM     11  C   UNL d   1      60.596  -0.111  28.758  0.00  0.00     0.002 A 
ENDROOT
BRANCH   1  12
ATOM     12  C   UNL d   1      57.507  -0.551  30.862  0.00  0.00     0.284 C 
ATOM     13  N   UNL d   1      57.590  -0.376  31.665  0.00  0.00    -0.208 NA
ATOM     14  O   UNL d   1      56.737  -0.660  30.588  0.00  0.00    -0.265 OA
BRANCH  13  15
ATOM     15  C   UNL d   1      56.932  -0.319  32.146  0.00  0.00     0.085 A 
ATOM     16  C   UNL d   1      56.621  -0.983  32.510  0.00  0.00     0.019 A 
ATOM     17  C   UNL d   1      55.957  -0.931  32.997  0.00  0.00     0.002 A 
ATOM     18  C   UNL d   1      55.605  -0.189  33.114  0.00  0.00     0.000 A 
ATOM     19  C   UNL d   1      55.901   0.496  32.758  0.00  0.00     0.002 A 
ATOM     20  C   UNL d   1      54.958  -0.125  33.586  0.00  0.00     0.000 C 
ATOM     21  C   UNL d   1      56.568   0.427  32.271  0.00  0.00     0.019 A 
ENDBRANCH  13  15
ENDBRANCH   1  12
TORSDOF 2
ENDMDL
