MODEL 1
REMARK VINA RESULT:      68.7      0.000      0.000
REMARK  2 active torsions:
REMARK  status: ('A' for Active; 'I' for Inactive)
REMARK    1  A    between atoms: C_6  and  C_2 
REMARK    2  A    between atoms: C_7  and  C_3 
ROOT
ATOM      1  N   UNL d   1     -57.350 -99.302 -43.705  0.00  0.00    -0.243 NA
ATOM      2  C   UNL d   1     -58.133 -99.120 -43.883  0.00  0.00     0.104 A 
ATOM      3  C   UNL d   1     -58.149 -99.155 -45.364  0.00  0.00     0.033 A 
ATOM      4  S   UNL d   1     -57.371 -99.345 -45.548  0.00  0.00    -0.085 SA
ATOM      5  C   UNL d   1     -58.480 -99.057 -44.641  0.00  0.00     0.028 A 
ATOM      6  C   UNL d   1     -56.730 -99.464 -44.227  0.00  0.00     0.087 A 
ATOM      7  C   UNL d   1     -56.739 -99.483 -45.054  0.00  0.00     0.047 A 
ATOM      8  C   UNL d   1     -56.042 -99.617 -43.812  0.00  0.00     0.020 A 
ATOM      9  C   UNL d   1     -56.061 -99.656 -45.455  0.00  0.00     0.008 A 
ATOM     10  C   UNL d   1     -55.346 -99.816 -45.058  0.00  0.00     0.001 A 
ATOM     11  C   UNL d   1     -55.337 -99.796 -44.235  0.00  0.00     0.002 A 
ENDROOT
BRANCH   3  12
ATOM     12  C   UNL d   1     -58.653 -99.052 -46.009  0.00  0.00     0.034 A 
ATOM     13  C   UNL d   1     -59.462 -98.868 -45.884  0.00  0.00     0.141 A 
ATOM     14  F   UNL d   1     -59.747 -98.791 -45.119  0.00  0.00    -0.204 F 
ATOM     15  C   UNL d   1     -59.958 -98.766 -46.525  0.00  0.00     0.030 A 
ATOM     16  C   UNL d   1     -59.673 -98.842 -47.278  0.00  0.00     0.002 A 
ATOM     17  C   UNL d   1     -58.873 -99.025 -47.429  0.00  0.00     0.000 A 
ATOM     18  C   UNL d   1     -58.368 -99.128 -46.784  0.00  0.00     0.003 A 
ENDBRANCH   3  12
BRANCH   2  19
ATOM     19  C   UNL d   1     -58.621 -98.986 -43.232  0.00  0.00     0.118 A 
ATOM     20  O   UNL d   1     -58.388 -98.943 -42.441  0.00  0.00    -0.304 OA
ATOM     21  C   UNL d   1     -59.067 -98.801 -41.987  0.00  0.00     0.123 A 
ATOM     22  C   UNL d   1     -59.721 -98.755 -42.492  0.00  0.00     0.029 A 
ATOM     23  C   UNL d   1     -59.444 -98.870 -43.260  0.00  0.00     0.028 A 
ENDBRANCH   2  19
TORSDOF 2
ENDMDL
