MODEL 1
REMARK VINA RESULT:      -1.3      0.000      0.000
REMARK  4 active torsions:
REMARK  status: ('A' for Active; 'I' for Inactive)
REMARK    1  A    between atoms: C_2  and  C_1 
REMARK       I    between atoms: N_4  and  C_2 
REMARK    2  A    between atoms: C_5  and  N_4 
REMARK    3  A    between atoms: O_17  and  C_9 
REMARK    4  A    between atoms: O_18  and  C_12 
ROOT
ATOM      1  C   UNL d   1     -42.823-122.429 -50.284  0.00  0.00     0.353 C 
ATOM      2  N   UNL d   1     -42.494-122.438 -51.046  0.00  0.00    -0.361 NA
ATOM      3  O   UNL d   1     -43.547-122.080 -50.161  0.00  0.00    -0.249 OA
ENDROOT
BRANCH   1   4
ATOM      4  C   UNL d   1     -42.419-122.776 -49.642  0.00  0.00     0.195 A 
ATOM      5  O   UNL d   1     -42.595-122.532 -48.877  0.00  0.00    -0.297 OA
ATOM      6  C   UNL d   1     -42.185-122.885 -48.262  0.00  0.00     0.123 A 
ATOM      7  C   UNL d   1     -42.356-122.644 -47.468  0.00  0.00     0.027 A 
ATOM      8  C   UNL d   1     -41.616-123.465 -48.383  0.00  0.00     0.123 A 
ATOM      9  C   UNL d   1     -41.949-122.996 -46.865  0.00  0.00     0.002 A 
ATOM     10  C   UNL d   1     -41.380-123.577 -47.008  0.00  0.00     0.002 A 
ATOM     11  C   UNL d   1     -41.210-123.814 -47.755  0.00  0.00     0.027 A 
ATOM     12  O   UNL d   1     -41.449-123.702 -49.164  0.00  0.00    -0.301 OA
ATOM     13  C   UNL d   1     -41.850-123.356 -49.785  0.00  0.00     0.153 A 
ENDBRANCH   1   4
BRANCH   2  14
ATOM     14  C   UNL d   1     -42.156-122.454 -51.793  0.00  0.00     0.159 A 
ATOM     15  C   UNL d   1     -42.228-123.113 -52.272  0.00  0.00     0.059 A 
ATOM     16  C   UNL d   1     -41.886-123.135 -53.032  0.00  0.00     0.107 A 
ATOM     17  C   UNL d   1     -41.458-122.449 -53.300  0.00  0.00     0.082 A 
ATOM     18  C   UNL d   1     -41.386-121.791 -52.822  0.00  0.00     0.040 A 
ATOM     19 CL   UNL d   1     -41.123-122.477 -54.052  0.00  0.00    -0.080 Cl
ATOM     20  C   UNL d   1     -41.733-121.782 -52.063  0.00  0.00     0.125 A 
BRANCH  16  21
ATOM     21  O   UNL d   1     -41.956-123.783 -53.503  0.00  0.00    -0.327 OA
ATOM     22  C   UNL d   1     -42.464-123.769 -54.151  0.00  0.00     0.181 C 
ENDBRANCH  16  21
BRANCH  20  23
ATOM     23  O   UNL d   1     -41.661-121.117 -51.580  0.00  0.00    -0.326 OA
ATOM     24  C   UNL d   1     -41.209-120.491 -51.849  0.00  0.00     0.181 C 
ENDBRANCH  20  23
ENDBRANCH   2  14
TORSDOF 4
ENDMDL
