MODEL 1
REMARK VINA RESULT:      26.1      0.000      0.000
REMARK  4 active torsions:
REMARK  status: ('A' for Active; 'I' for Inactive)
REMARK    1  A    between atoms: C_10  and  C_1 
REMARK    2  A    between atoms: N_7  and  C_4 
REMARK    3  A    between atoms: N_16  and  C_9 
REMARK    4  A    between atoms: C_15  and  C_10 
ROOT
ATOM      1  C   UNL d   1      13.426  13.289  -3.312  0.00  0.00     0.143 A 
ATOM      2  C   UNL d   1      13.238  12.639  -3.791  0.00  0.00     0.086 A 
ATOM      3  C   UNL d   1      13.569  13.184  -2.507  0.00  0.00     0.025 A 
ATOM      4  C   UNL d   1      13.195  11.884  -3.453  0.00  0.00     0.019 A 
ATOM      5  C   UNL d   1      13.522  12.430  -2.181  0.00  0.00     0.002 A 
ATOM      6  C   UNL d   1      13.334  11.779  -2.660  0.00  0.00     0.002 A 
ENDROOT
BRANCH   5   7
ATOM      7  C   UNL d   1      13.665  12.326  -1.377  0.00  0.00     0.010 C 
BRANCH   7   8
ATOM      8  C   UNL d   1      14.334  12.694  -1.035  0.00  0.00     0.116 A 
ATOM      9  C   UNL d   1      14.216  13.237  -0.436  0.00  0.00     0.288 A 
ATOM     10  N   UNL d   1      14.870  13.603  -0.094  0.00  0.00    -0.152 NA
ATOM     11  O   UNL d   1      13.459  13.415  -0.177  0.00  0.00    -0.265 OA
ATOM     12  C   UNL d   1      15.634  13.423  -0.355  0.00  0.00     0.374 A 
ATOM     13  N   UNL d   1      15.736  12.878  -0.955  0.00  0.00    -0.152 NA
ATOM     14  O   UNL d   1      16.296  13.786  -0.017  0.00  0.00    -0.242 OA
ATOM     15  C   UNL d   1      15.098  12.513  -1.296  0.00  0.00     0.288 A 
ATOM     16  O   UNL d   1      15.218  11.959  -1.908  0.00  0.00    -0.265 OA
ENDBRANCH   7   8
ENDBRANCH   5   7
BRANCH   1  17
ATOM     17  N   UNL d   1      13.471  14.036  -3.640  0.00  0.00    -0.112 N 
ATOM     18  O   UNL d   1      12.781  14.410  -3.876  0.00  0.00    -0.532 OA
ATOM     19  O   UNL d   1      14.201  14.386  -3.722  0.00  0.00    -0.532 OA
ENDBRANCH   1  17
BRANCH   2  20
ATOM     20  N   UNL d   1      13.098  12.747  -4.588  0.00  0.00    -0.300 N 
ATOM     21  C   UNL d   1      12.855  13.488  -4.868  0.00  0.00     0.100 C 
ATOM     22  C   UNL d   1      13.200  12.124  -5.090  0.00  0.00     0.100 C 
ENDBRANCH   2  20
TORSDOF 4
ENDMDL
MODEL 2
REMARK VINA RESULT:      27.7      1.245      3.888
REMARK  4 active torsions:
REMARK  status: ('A' for Active; 'I' for Inactive)
REMARK    1  A    between atoms: C_10  and  C_1 
REMARK    2  A    between atoms: N_7  and  C_4 
REMARK    3  A    between atoms: N_16  and  C_9 
REMARK    4  A    between atoms: C_15  and  C_10 
ROOT
ATOM      1  C   UNL d   1      14.457  13.167  -1.573  0.00  0.00     0.143 A 
ATOM      2  C   UNL d   1      14.284  12.388  -1.349  0.00  0.00     0.086 A 
ATOM      3  C   UNL d   1      14.072  13.508  -2.218  0.00  0.00     0.025 A 
ATOM      4  C   UNL d   1      13.722  11.956  -1.777  0.00  0.00     0.019 A 
ATOM      5  C   UNL d   1      13.515  13.070  -2.636  0.00  0.00     0.002 A 
ATOM      6  C   UNL d   1      13.342  12.291  -2.412  0.00  0.00     0.002 A 
ENDROOT
BRANCH   5   7
ATOM      7  C   UNL d   1      13.131  13.412  -3.280  0.00  0.00     0.010 C 
BRANCH   7   8
ATOM      8  C   UNL d   1      13.213  13.056  -4.033  0.00  0.00     0.116 A 
ATOM      9  C   UNL d   1      13.177  12.241  -4.085  0.00  0.00     0.288 A 
ATOM     10  N   UNL d   1      13.257  11.885  -4.824  0.00  0.00    -0.152 NA
ATOM     11  O   UNL d   1      13.064  11.785  -3.414  0.00  0.00    -0.265 OA
ATOM     12  C   UNL d   1      13.371  12.346  -5.501  0.00  0.00     0.374 A 
ATOM     13  N   UNL d   1      13.405  13.159  -5.432  0.00  0.00    -0.152 NA
ATOM     14  O   UNL d   1      13.452  11.995  -6.245  0.00  0.00    -0.242 OA
ATOM     15  C   UNL d   1      13.328  13.518  -4.710  0.00  0.00     0.288 A 
ATOM     16  O   UNL d   1      13.364  14.349  -4.656  0.00  0.00    -0.265 OA
ENDBRANCH   7   8
ENDBRANCH   5   7
BRANCH   1  17
ATOM     17  N   UNL d   1      15.011  13.598  -1.154  0.00  0.00    -0.112 N 
ATOM     18  O   UNL d   1      14.755  14.156  -0.611  0.00  0.00    -0.532 OA
ATOM     19  O   UNL d   1      15.801  13.458  -1.290  0.00  0.00    -0.532 OA
ENDBRANCH   1  17
BRANCH   2  20
ATOM     20  N   UNL d   1      14.668  12.054  -0.710  0.00  0.00    -0.300 N 
ATOM     21  C   UNL d   1      15.459  11.817  -0.780  0.00  0.00     0.100 C 
ATOM     22  C   UNL d   1      14.265  11.960  -0.018  0.00  0.00     0.100 C 
ENDBRANCH   2  20
TORSDOF 4
ENDMDL
MODEL 3
REMARK VINA RESULT:      28.0      1.084      1.550
REMARK  4 active torsions:
REMARK  status: ('A' for Active; 'I' for Inactive)
REMARK    1  A    between atoms: C_10  and  C_1 
REMARK    2  A    between atoms: N_7  and  C_4 
REMARK    3  A    between atoms: N_16  and  C_9 
REMARK    4  A    between atoms: C_15  and  C_10 
ROOT
ATOM      1  C   UNL d   1      13.381  13.412  -3.442  0.00  0.00     0.143 A 
ATOM      2  C   UNL d   1      13.230  13.029  -4.161  0.00  0.00     0.086 A 
ATOM      3  C   UNL d   1      13.332  12.995  -2.731  0.00  0.00     0.025 A 
ATOM      4  C   UNL d   1      13.029  12.225  -4.160  0.00  0.00     0.019 A 
ATOM      5  C   UNL d   1      13.132  12.197  -2.742  0.00  0.00     0.002 A 
ATOM      6  C   UNL d   1      12.980  11.814  -3.461  0.00  0.00     0.002 A 
ENDROOT
BRANCH   5   7
ATOM      7  C   UNL d   1      13.083  11.782  -2.032  0.00  0.00     0.010 C 
BRANCH   7   8
ATOM      8  C   UNL d   1      13.742  11.785  -1.518  0.00  0.00     0.116 A 
ATOM      9  C   UNL d   1      14.491  11.784  -1.845  0.00  0.00     0.288 A 
ATOM     10  N   UNL d   1      15.146  11.786  -1.344  0.00  0.00    -0.152 NA
ATOM     11  O   UNL d   1      14.592  11.781  -2.658  0.00  0.00    -0.265 OA
ATOM     12  C   UNL d   1      15.044  11.789  -0.523  0.00  0.00     0.374 A 
ATOM     13  N   UNL d   1      14.289  11.790  -0.212  0.00  0.00    -0.152 NA
ATOM     14  O   UNL d   1      15.696  11.791  -0.014  0.00  0.00    -0.242 OA
ATOM     15  C   UNL d   1      13.641  11.788  -0.697  0.00  0.00     0.288 A 
ATOM     16  O   UNL d   1      12.876  11.789  -0.363  0.00  0.00    -0.265 OA
ENDBRANCH   7   8
ENDBRANCH   5   7
BRANCH   1  17
ATOM     17  N   UNL d   1      13.579  14.204  -3.436  0.00  0.00    -0.112 N 
ATOM     18  O   UNL d   1      13.022  14.757  -3.674  0.00  0.00    -0.532 OA
ATOM     19  O   UNL d   1      14.326  14.420  -3.194  0.00  0.00    -0.532 OA
ENDBRANCH   1  17
BRANCH   2  20
ATOM     20  N   UNL d   1      13.280  13.444  -4.862  0.00  0.00    -0.300 N 
ATOM     21  C   UNL d   1      13.755  13.159  -5.479  0.00  0.00     0.100 C 
ATOM     22  C   UNL d   1      12.862  14.130  -4.940  0.00  0.00     0.100 C 
ENDBRANCH   2  20
TORSDOF 4
ENDMDL
