MODEL 1
REMARK VINA RESULT:      -3.8      0.000      0.000
REMARK  4 active torsions:
REMARK  status: ('A' for Active; 'I' for Inactive)
REMARK    1  A    between atoms: C_2  and  S_1 
REMARK    2  A    between atoms: C_5  and  S_1 
REMARK    3  A    between atoms: C_7  and  C_5 
REMARK       I    between atoms: N_9  and  C_7 
REMARK    4  A    between atoms: C_8  and  N_9 
ROOT
ATOM      1  S   UNL d   1      58.338  -0.411  29.973  0.00  0.00     0.217 S 
ATOM      2  O   UNL d   1      57.811  -0.741  29.421  0.00  0.00    -0.217 OA
ATOM      3  O   UNL d   1      58.867  -0.081  30.526  0.00  0.00    -0.217 OA
ENDROOT
BRANCH   1   4
ATOM      4  C   UNL d   1      58.971  -0.789  29.599  0.00  0.00     0.109 A 
ATOM      5  C   UNL d   1      59.072  -1.604  29.522  0.00  0.00     0.110 A 
ATOM      6  N   UNL d   1      59.772  -1.737  29.115  0.00  0.00    -0.243 NA
ATOM      7  C   UNL d   1      60.107  -1.002  28.940  0.00  0.00     0.082 A 
ATOM      8  C   UNL d   1      59.609  -0.422  29.241  0.00  0.00     0.030 A 
ATOM      9  C   UNL d   1      60.802  -0.791  28.545  0.00  0.00     0.019 A 
ATOM     10  C   UNL d   1      59.800   0.376  29.150  0.00  0.00     0.002 A 
ATOM     11  C   UNL d   1      60.493   0.587  28.756  0.00  0.00     0.000 A 
ATOM     12  C   UNL d   1      60.989   0.006  28.456  0.00  0.00     0.002 A 
ENDBRANCH   1   4
BRANCH   1  13
ATOM     13  C   UNL d   1      57.700  -0.025  30.357  0.00  0.00     0.161 C 
BRANCH  13  14
ATOM     14  C   UNL d   1      57.383  -0.355  31.047  0.00  0.00     0.291 C 
ATOM     15  N   UNL d   1      57.103   0.146  31.640  0.00  0.00    -0.207 NA
ATOM     16  O   UNL d   1      57.345  -1.167  31.144  0.00  0.00    -0.264 OA
BRANCH  15  17
ATOM     17  C   UNL d   1      56.786  -0.180  32.331  0.00  0.00     0.085 A 
ATOM     18  C   UNL d   1      57.044   0.085  33.067  0.00  0.00     0.018 A 
ATOM     19  C   UNL d   1      56.733  -0.234  33.762  0.00  0.00     0.002 A 
ATOM     20  C   UNL d   1      57.627   0.682  33.109  0.00  0.00     0.002 C 
ATOM     21  C   UNL d   1      56.159  -0.822  33.719  0.00  0.00     0.000 A 
ATOM     22  C   UNL d   1      55.895  -1.092  32.986  0.00  0.00     0.002 A 
ATOM     23  C   UNL d   1      56.210  -0.769  32.292  0.00  0.00     0.019 A 
ATOM     24  C   UNL d   1      55.309  -1.692  32.934  0.00  0.00     0.000 C 
ENDBRANCH  15  17
ENDBRANCH  13  14
ENDBRANCH   1  13
TORSDOF 4
ENDMDL
MODEL 2
REMARK VINA RESULT:      -3.2      0.921      1.644
REMARK  4 active torsions:
REMARK  status: ('A' for Active; 'I' for Inactive)
REMARK    1  A    between atoms: C_2  and  S_1 
REMARK    2  A    between atoms: C_5  and  S_1 
REMARK    3  A    between atoms: C_7  and  C_5 
REMARK       I    between atoms: N_9  and  C_7 
REMARK    4  A    between atoms: C_8  and  N_9 
ROOT
ATOM      1  S   UNL d   1      58.349   0.393  30.247  0.00  0.00     0.217 S 
ATOM      2  O   UNL d   1      58.734   0.664  30.932  0.00  0.00    -0.217 OA
ATOM      3  O   UNL d   1      57.963   0.122  29.560  0.00  0.00    -0.217 OA
ENDROOT
BRANCH   1   4
ATOM      4  C   UNL d   1      59.077   0.184  29.917  0.00  0.00     0.109 A 
ATOM      5  C   UNL d   1      59.751   0.657  29.889  0.00  0.00     0.110 A 
ATOM      6  N   UNL d   1      60.346   0.234  29.514  0.00  0.00    -0.243 NA
ATOM      7  C   UNL d   1      60.039  -0.506  29.307  0.00  0.00     0.082 A 
ATOM      8  C   UNL d   1      59.257  -0.530  29.558  0.00  0.00     0.030 A 
ATOM      9  C   UNL d   1      60.375  -1.156  28.924  0.00  0.00     0.019 A 
ATOM     10  C   UNL d   1      58.801  -1.207  29.427  0.00  0.00     0.002 A 
ATOM     11  C   UNL d   1      59.136  -1.856  29.044  0.00  0.00     0.000 A 
ATOM     12  C   UNL d   1      59.917  -1.828  28.795  0.00  0.00     0.002 A 
ENDBRANCH   1   4
BRANCH   1  13
ATOM     13  C   UNL d   1      57.606   0.603  30.576  0.00  0.00     0.161 C 
BRANCH  13  14
ATOM     14  C   UNL d   1      57.421   0.358  31.345  0.00  0.00     0.291 C 
ATOM     15  N   UNL d   1      56.663   0.071  31.502  0.00  0.00    -0.207 NA
ATOM     16  O   UNL d   1      57.977   0.397  31.944  0.00  0.00    -0.264 OA
BRANCH  15  17
ATOM     17  C   UNL d   1      56.473  -0.176  32.269  0.00  0.00     0.085 A 
ATOM     18  C   UNL d   1      56.309  -0.969  32.417  0.00  0.00     0.018 A 
ATOM     19  C   UNL d   1      56.118  -1.224  33.178  0.00  0.00     0.002 A 
ATOM     20  C   UNL d   1      56.336  -1.520  31.790  0.00  0.00     0.002 C 
ATOM     21  C   UNL d   1      56.092  -0.681  33.796  0.00  0.00     0.000 A 
ATOM     22  C   UNL d   1      56.255   0.115  33.655  0.00  0.00     0.002 A 
ATOM     23  C   UNL d   1      56.445   0.366  32.891  0.00  0.00     0.019 A 
ATOM     24  C   UNL d   1      56.230   0.675  34.281  0.00  0.00     0.000 C 
ENDBRANCH  15  17
ENDBRANCH  13  14
ENDBRANCH   1  13
TORSDOF 4
ENDMDL
MODEL 3
REMARK VINA RESULT:      -2.5      1.852      2.614
REMARK  4 active torsions:
REMARK  status: ('A' for Active; 'I' for Inactive)
REMARK    1  A    between atoms: C_2  and  S_1 
REMARK    2  A    between atoms: C_5  and  S_1 
REMARK    3  A    between atoms: C_7  and  C_5 
REMARK       I    between atoms: N_9  and  C_7 
REMARK    4  A    between atoms: C_8  and  N_9 
ROOT
ATOM      1  S   UNL d   1      59.040  -2.147  29.275  0.00  0.00     0.217 S 
ATOM      2  O   UNL d   1      58.638  -2.754  29.675  0.00  0.00    -0.217 OA
ATOM      3  O   UNL d   1      59.445  -1.539  28.873  0.00  0.00    -0.217 OA
ENDROOT
BRANCH   1   4
ATOM      4  C   UNL d   1      59.728  -2.605  29.265  0.00  0.00     0.109 A 
ATOM      5  C   UNL d   1      60.474  -2.366  29.523  0.00  0.00     0.110 A 
ATOM      6  N   UNL d   1      60.995  -2.991  29.415  0.00  0.00    -0.243 NA
ATOM      7  C   UNL d   1      60.570  -3.621  29.087  0.00  0.00     0.082 A 
ATOM      8  C   UNL d   1      59.791  -3.377  28.998  0.00  0.00     0.030 A 
ATOM      9  C   UNL d   1      60.798  -4.382  28.862  0.00  0.00     0.019 A 
ATOM     10  C   UNL d   1      59.230  -3.894  28.681  0.00  0.00     0.002 A 
ATOM     11  C   UNL d   1      59.456  -4.654  28.455  0.00  0.00     0.000 A 
ATOM     12  C   UNL d   1      60.235  -4.894  28.546  0.00  0.00     0.002 A 
ENDBRANCH   1   4
BRANCH   1  13
ATOM     13  C   UNL d   1      58.346  -1.677  29.281  0.00  0.00     0.161 C 
BRANCH  13  14
ATOM     14  C   UNL d   1      58.038  -1.420  30.005  0.00  0.00     0.291 C 
ATOM     15  N   UNL d   1      58.033  -0.612  30.174  0.00  0.00    -0.207 NA
ATOM     16  O   UNL d   1      57.742  -1.955  30.549  0.00  0.00    -0.264 OA
BRANCH  15  17
ATOM     17  C   UNL d   1      57.726  -0.350  30.897  0.00  0.00     0.085 A 
ATOM     18  C   UNL d   1      58.067   0.296  31.278  0.00  0.00     0.018 A 
ATOM     19  C   UNL d   1      57.768   0.564  31.999  0.00  0.00     0.002 A 
ATOM     20  C   UNL d   1      58.720   0.682  30.931  0.00  0.00     0.002 C 
ATOM     21  C   UNL d   1      57.123   0.183  32.341  0.00  0.00     0.000 A 
ATOM     22  C   UNL d   1      56.777  -0.464  31.965  0.00  0.00     0.002 A 
ATOM     23  C   UNL d   1      57.080  -0.729  31.242  0.00  0.00     0.019 A 
ATOM     24  C   UNL d   1      56.119  -0.858  32.307  0.00  0.00     0.000 C 
ENDBRANCH  15  17
ENDBRANCH  13  14
ENDBRANCH   1  13
TORSDOF 4
ENDMDL
MODEL 4
REMARK VINA RESULT:      -1.8      8.687      9.948
REMARK  4 active torsions:
REMARK  status: ('A' for Active; 'I' for Inactive)
REMARK    1  A    between atoms: C_2  and  S_1 
REMARK    2  A    between atoms: C_5  and  S_1 
REMARK    3  A    between atoms: C_7  and  C_5 
REMARK       I    between atoms: N_9  and  C_7 
REMARK    4  A    between atoms: C_8  and  N_9 
ROOT
ATOM      1  S   UNL d   1      59.177  -9.361  34.616  0.00  0.00     0.217 S 
ATOM      2  O   UNL d   1      58.926  -9.814  35.265  0.00  0.00    -0.217 OA
ATOM      3  O   UNL d   1      59.430  -8.905  33.965  0.00  0.00    -0.217 OA
ENDROOT
BRANCH   1   4
ATOM      4  C   UNL d   1      59.689  -8.937  35.107  0.00  0.00     0.109 A 
ATOM      5  C   UNL d   1      60.408  -9.207  35.408  0.00  0.00     0.110 A 
ATOM      6  N   UNL d   1      60.735  -8.610  35.867  0.00  0.00    -0.243 NA
ATOM      7  C   UNL d   1      60.216  -7.966  35.851  0.00  0.00     0.082 A 
ATOM      8  C   UNL d   1      59.574  -8.174  35.381  0.00  0.00     0.030 A 
ATOM      9  C   UNL d   1      60.250  -7.221  36.205  0.00  0.00     0.019 A 
ATOM     10  C   UNL d   1      58.959  -7.636  35.261  0.00  0.00     0.002 A 
ATOM     11  C   UNL d   1      58.992  -6.892  35.614  0.00  0.00     0.000 A 
ATOM     12  C   UNL d   1      59.634  -6.688  36.083  0.00  0.00     0.002 A 
ENDBRANCH   1   4
BRANCH   1  13
ATOM     13  C   UNL d   1      58.659  -9.787  34.112  0.00  0.00     0.161 C 
BRANCH  13  14
ATOM     14  C   UNL d   1      58.795  -9.782  33.295  0.00  0.00     0.291 C 
ATOM     15  N   UNL d   1      58.150  -9.817  32.782  0.00  0.00    -0.207 NA
ATOM     16  O   UNL d   1      59.556  -9.743  32.997  0.00  0.00    -0.264 OA
BRANCH  15  17
ATOM     17  C   UNL d   1      58.280  -9.813  31.965  0.00  0.00     0.085 A 
ATOM     18  C   UNL d   1      57.640  -9.804  31.447  0.00  0.00     0.018 A 
ATOM     19  C   UNL d   1      57.761  -9.799  30.630  0.00  0.00     0.002 A 
ATOM     20  C   UNL d   1      56.863  -9.799  31.751  0.00  0.00     0.002 C 
ATOM     21  C   UNL d   1      58.527  -9.804  30.330  0.00  0.00     0.000 A 
ATOM     22  C   UNL d   1      59.173  -9.813  30.843  0.00  0.00     0.002 A 
ATOM     23  C   UNL d   1      59.047  -9.817  31.661  0.00  0.00     0.019 A 
ATOM     24  C   UNL d   1      59.958  -9.818  30.545  0.00  0.00     0.000 C 
ENDBRANCH  15  17
ENDBRANCH  13  14
ENDBRANCH   1  13
TORSDOF 4
ENDMDL
