MODEL 1
REMARK VINA RESULT:      -9.6      0.000      0.000
REMARK  3 active torsions:
REMARK  status: ('A' for Active; 'I' for Inactive)
REMARK    1  A    between atoms: N_2  and  S_1 
REMARK    2  A    between atoms: C_4  and  S_1 
REMARK       I    between atoms: C_8  and  N_10 
REMARK    3  A    between atoms: N_10  and  C_16 
ROOT
ATOM      1  S   UNL d   1      51.676  33.830  52.968  0.00  0.00     0.271 S 
ATOM      2  O   UNL d   1      51.303  33.171  53.292  0.00  0.00    -0.200 OA
ATOM      3  O   UNL d   1      52.046  34.491  52.642  0.00  0.00    -0.200 OA
ENDROOT
BRANCH   1   4
ATOM      4  N   UNL d   1      52.391  33.585  53.296  0.00  0.00    -0.229 N 
ATOM      5  C   UNL d   1      52.710  34.006  53.933  0.00  0.00     0.092 A 
ATOM      6  C   UNL d   1      53.423  33.766  54.262  0.00  0.00     0.018 A 
ATOM      7  C   UNL d   1      53.738  34.186  54.897  0.00  0.00     0.002 A 
ATOM      8  C   UNL d   1      53.820  33.109  53.961  0.00  0.00     0.003 A 
ATOM      9  C   UNL d   1      54.451  33.945  55.225  0.00  0.00     0.000 A 
ATOM     10  C   UNL d   1      54.852  33.289  54.928  0.00  0.00     0.000 A 
ATOM     11  C   UNL d   1      54.531  32.871  54.292  0.00  0.00     0.000 A 
ATOM     12  C   UNL d   1      53.498  32.694  53.326  0.00  0.00     0.020 A 
ATOM     13  C   UNL d   1      52.779  32.934  52.993  0.00  0.00     0.092 A 
ENDBRANCH   1   4
BRANCH   1  14
ATOM     14  C   UNL d   1      50.954  34.069  52.642  0.00  0.00     0.104 A 
ATOM     15  C   UNL d   1      50.902  34.209  51.828  0.00  0.00     0.014 A 
ATOM     16  C   UNL d   1      50.179  34.448  51.508  0.00  0.00     0.020 A 
ATOM     17  C   UNL d   1      49.519  34.545  51.993  0.00  0.00     0.085 A 
ATOM     18  C   UNL d   1      49.586  34.401  52.805  0.00  0.00     0.020 A 
ATOM     19  C   UNL d   1      50.302  34.164  53.125  0.00  0.00     0.014 A 
BRANCH  17  20
ATOM     20  N   UNL d   1      48.806  34.782  51.665  0.00  0.00    -0.208 NA
ATOM     21  C   UNL d   1      48.354  35.365  52.026  0.00  0.00     0.279 C 
ATOM     22  O   UNL d   1      48.616  35.718  52.724  0.00  0.00    -0.265 OA
ATOM     23  C   UNL d   1      47.636  35.604  51.696  0.00  0.00     0.068 C 
ENDBRANCH  17  20
ENDBRANCH   1  14
TORSDOF 3
ENDMDL
MODEL 2
REMARK VINA RESULT:      -9.1      1.057      4.956
REMARK  3 active torsions:
REMARK  status: ('A' for Active; 'I' for Inactive)
REMARK    1  A    between atoms: N_2  and  S_1 
REMARK    2  A    between atoms: C_4  and  S_1 
REMARK       I    between atoms: C_8  and  N_10 
REMARK    3  A    between atoms: N_10  and  C_16 
ROOT
ATOM      1  S   UNL d   1      50.717  34.254  52.639  0.00  0.00     0.271 S 
ATOM      2  O   UNL d   1      51.095  34.518  51.957  0.00  0.00    -0.200 OA
ATOM      3  O   UNL d   1      50.341  33.987  53.323  0.00  0.00    -0.200 OA
ENDROOT
BRANCH   1   4
ATOM      4  N   UNL d   1      49.994  34.508  52.336  0.00  0.00    -0.229 N 
ATOM      5  C   UNL d   1      49.520  35.013  52.789  0.00  0.00     0.092 A 
ATOM      6  C   UNL d   1      48.799  35.269  52.491  0.00  0.00     0.018 A 
ATOM      7  C   UNL d   1      48.329  35.772  52.943  0.00  0.00     0.002 A 
ATOM      8  C   UNL d   1      48.546  35.025  51.744  0.00  0.00     0.003 A 
ATOM      9  C   UNL d   1      47.608  36.027  52.644  0.00  0.00     0.000 A 
ATOM     10  C   UNL d   1      47.351  35.785  51.899  0.00  0.00     0.000 A 
ATOM     11  C   UNL d   1      47.827  35.281  51.450  0.00  0.00     0.000 A 
ATOM     12  C   UNL d   1      49.023  34.521  51.299  0.00  0.00     0.020 A 
ATOM     13  C   UNL d   1      49.750  34.262  51.597  0.00  0.00     0.092 A 
ENDBRANCH   1   4
BRANCH   1  14
ATOM     14  C   UNL d   1      51.446  34.001  52.936  0.00  0.00     0.104 A 
ATOM     15  C   UNL d   1      51.520  33.232  53.234  0.00  0.00     0.014 A 
ATOM     16  C   UNL d   1      52.250  32.985  53.530  0.00  0.00     0.020 A 
ATOM     17  C   UNL d   1      52.897  33.497  53.528  0.00  0.00     0.085 A 
ATOM     18  C   UNL d   1      52.808  34.263  53.228  0.00  0.00     0.020 A 
ATOM     19  C   UNL d   1      52.084  34.511  52.933  0.00  0.00     0.014 A 
BRANCH  17  20
ATOM     20  N   UNL d   1      53.617  33.242  53.824  0.00  0.00    -0.208 NA
ATOM     21  C   UNL d   1      53.851  33.443  54.585  0.00  0.00     0.279 C 
ATOM     22  O   UNL d   1      53.359  33.905  55.060  0.00  0.00    -0.265 OA
ATOM     23  C   UNL d   1      54.577  33.186  54.883  0.00  0.00     0.068 C 
ENDBRANCH  17  20
ENDBRANCH   1  14
TORSDOF 3
ENDMDL
MODEL 3
REMARK VINA RESULT:      -8.0      1.461      2.219
REMARK  3 active torsions:
REMARK  status: ('A' for Active; 'I' for Inactive)
REMARK    1  A    between atoms: N_2  and  S_1 
REMARK    2  A    between atoms: C_4  and  S_1 
REMARK       I    between atoms: C_8  and  N_10 
REMARK    3  A    between atoms: N_10  and  C_16 
ROOT
ATOM      1  S   UNL d   1      49.747  34.606  52.566  0.00  0.00     0.271 S 
ATOM      2  O   UNL d   1      49.646  34.964  53.301  0.00  0.00    -0.200 OA
ATOM      3  O   UNL d   1      49.845  34.249  51.829  0.00  0.00    -0.200 OA
ENDROOT
BRANCH   1   4
ATOM      4  N   UNL d   1      50.443  34.256  52.833  0.00  0.00    -0.229 N 
ATOM      5  C   UNL d   1      51.135  34.708  52.872  0.00  0.00     0.092 A 
ATOM      6  C   UNL d   1      51.831  34.362  53.137  0.00  0.00     0.018 A 
ATOM      7  C   UNL d   1      52.519  34.814  53.175  0.00  0.00     0.002 A 
ATOM      8  C   UNL d   1      51.843  33.569  53.364  0.00  0.00     0.003 A 
ATOM      9  C   UNL d   1      53.215  34.467  53.441  0.00  0.00     0.000 A 
ATOM     10  C   UNL d   1      53.231  33.675  53.669  0.00  0.00     0.000 A 
ATOM     11  C   UNL d   1      52.538  33.227  53.628  0.00  0.00     0.000 A 
ATOM     12  C   UNL d   1      51.150  33.125  53.323  0.00  0.00     0.020 A 
ATOM     13  C   UNL d   1      50.447  33.471  53.056  0.00  0.00     0.092 A 
ENDBRANCH   1   4
BRANCH   1  14
ATOM     14  C   UNL d   1      49.047  34.961  52.305  0.00  0.00     0.104 A 
ATOM     15  C   UNL d   1      48.777  34.813  51.537  0.00  0.00     0.014 A 
ATOM     16  C   UNL d   1      48.078  35.170  51.281  0.00  0.00     0.020 A 
ATOM     17  C   UNL d   1      47.654  35.667  51.785  0.00  0.00     0.085 A 
ATOM     18  C   UNL d   1      47.936  35.807  52.551  0.00  0.00     0.020 A 
ATOM     19  C   UNL d   1      48.630  35.454  52.807  0.00  0.00     0.014 A 
BRANCH  17  20
ATOM     20  N   UNL d   1      46.961  36.017  51.522  0.00  0.00    -0.208 NA
ATOM     21  C   UNL d   1      46.239  35.641  51.623  0.00  0.00     0.279 C 
ATOM     22  O   UNL d   1      46.205  34.904  51.993  0.00  0.00    -0.265 OA
ATOM     23  C   UNL d   1      45.541  35.993  51.358  0.00  0.00     0.068 C 
ENDBRANCH  17  20
ENDBRANCH   1  14
TORSDOF 3
ENDMDL
