MODEL 1
REMARK VINA RESULT:      70.6      0.000      0.000
REMARK  3 active torsions:
REMARK  status: ('A' for Active; 'I' for Inactive)
REMARK    1  A    between atoms: N_2  and  C_1 
REMARK       I    between atoms: C_4  and  N_2 
REMARK    2  A    between atoms: C_8  and  C_4 
REMARK    3  A    between atoms: C_10  and  C_5 
ROOT
ATOM      1  C   UNL d   1      59.792  48.836  50.584  0.00  0.00     0.197 A 
ATOM      2  N   UNL d   1      59.015  48.742  50.365  0.00  0.00    -0.221 NA
ATOM      3  C   UNL d   1      58.581  49.300  50.853  0.00  0.00     0.090 A 
ATOM      4  S   UNL d   1      59.874  49.413  51.175  0.00  0.00    -0.046 SA
ATOM      5  C   UNL d   1      59.135  49.699  51.341  0.00  0.00     0.058 A 
ENDROOT
BRANCH   1   6
ATOM      6  N   UNL d   1      60.438  48.398  50.252  0.00  0.00    -0.183 NA
ATOM      7  C   UNL d   1      60.519  47.585  50.460  0.00  0.00     0.281 C 
ATOM      8  O   UNL d   1      59.980  47.226  50.978  0.00  0.00    -0.265 OA
BRANCH   7   9
ATOM      9  C   UNL d   1      61.135  47.129  50.156  0.00  0.00     0.058 A 
ATOM     10  C   UNL d   1      61.802  47.512  49.880  0.00  0.00     0.006 A 
ATOM     11  C   UNL d   1      62.433  47.056  49.569  0.00  0.00     0.012 A 
ATOM     12  C   UNL d   1      62.395  46.237  49.535  0.00  0.00     0.058 A 
ATOM     13  C   UNL d   1      61.704  45.853  49.821  0.00  0.00     0.012 A 
ATOM     14 CL   UNL d   1      62.955  45.806  49.257  0.00  0.00    -0.082 Cl
ATOM     15  C   UNL d   1      61.076  46.306  50.131  0.00  0.00     0.006 A 
ENDBRANCH   7   9
ENDBRANCH   1   6
BRANCH   3  16
ATOM     16  C   UNL d   1      57.773  49.434  50.856  0.00  0.00     0.018 A 
ATOM     17  C   UNL d   1      57.357  49.522  51.563  0.00  0.00     0.002 A 
ATOM     18  C   UNL d   1      56.533  49.659  51.566  0.00  0.00     0.000 A 
ATOM     19  C   UNL d   1      56.133  49.706  50.836  0.00  0.00     0.000 A 
ATOM     20  C   UNL d   1      56.551  49.618  50.136  0.00  0.00     0.000 A 
ATOM     21  C   UNL d   1      57.375  49.481  50.149  0.00  0.00     0.002 A 
ENDBRANCH   3  16
TORSDOF 3
ENDMDL
