MODEL 1
REMARK VINA RESULT:      -3.1      0.000      0.000
REMARK  3 active torsions:
REMARK  status: ('A' for Active; 'I' for Inactive)
REMARK    1  A    between atoms: C_4  and  C_1 
REMARK    2  A    between atoms: C_13  and  N_2 
REMARK    3  A    between atoms: C_10  and  C_13 
ROOT
ATOM      1  C   UNL d   1      58.171  -1.636  29.981  0.00  0.00     0.171 A 
ATOM      2  N   UNL d   1      58.316  -0.743  29.973  0.00  0.00    -0.286 N 
ATOM      3  N   UNL d   1      57.581  -1.802  30.646  0.00  0.00    -0.225 NA
ATOM      4  C   UNL d   1      57.824  -0.364  30.622  0.00  0.00     0.083 A 
ATOM      5  C   UNL d   1      57.361  -1.030  31.046  0.00  0.00     0.099 A 
ATOM      6  C   UNL d   1      57.735   0.500  30.884  0.00  0.00     0.019 A 
ATOM      7  C   UNL d   1      56.817  -0.822  31.725  0.00  0.00     0.021 A 
ATOM      8  C   UNL d   1      57.184   0.682  31.567  0.00  0.00     0.002 A 
ATOM      9  C   UNL d   1      56.721   0.015  31.992  0.00  0.00     0.002 A 
ENDROOT
BRANCH   2  10
ATOM     10  C   UNL d   1      58.482   0.006  29.914  0.00  0.00     0.106 C 
BRANCH  10  11
ATOM     11  C   UNL d   1      59.112   0.233  29.458  0.00  0.00     0.118 A 
ATOM     12  O   UNL d   1      59.873   0.211  29.659  0.00  0.00    -0.299 OA
ATOM     13  C   UNL d   1      60.336   0.483  29.055  0.00  0.00     0.134 A 
ATOM     14 BR   UNL d   1      61.130   0.578  28.966  0.00  0.00    -0.022 Br
ATOM     15  C   UNL d   1      59.837   0.681  28.456  0.00  0.00     0.034 A 
ATOM     16  C   UNL d   1      59.069   0.532  28.689  0.00  0.00     0.029 A 
ENDBRANCH  10  11
ENDBRANCH   2  10
BRANCH   1  17
ATOM     17  C   UNL d   1      58.540  -2.240  29.435  0.00  0.00     0.135 A 
ATOM     18  O   UNL d   1      59.283  -2.553  29.540  0.00  0.00    -0.297 OA
ATOM     19  C   UNL d   1      59.389  -3.073  28.921  0.00  0.00     0.134 A 
ATOM     20 BR   UNL d   1      59.882  -3.605  28.558  0.00  0.00    -0.022 Br
ATOM     21  C   UNL d   1      58.718  -3.065  28.458  0.00  0.00     0.034 A 
ATOM     22  C   UNL d   1      58.198  -2.541  28.792  0.00  0.00     0.030 A 
ENDBRANCH   1  17
TORSDOF 3
ENDMDL
MODEL 2
REMARK VINA RESULT:      -0.6      1.638      3.232
REMARK  3 active torsions:
REMARK  status: ('A' for Active; 'I' for Inactive)
REMARK    1  A    between atoms: C_4  and  C_1 
REMARK    2  A    between atoms: C_13  and  N_2 
REMARK    3  A    between atoms: C_10  and  C_13 
ROOT
ATOM      1  C   UNL d   1      58.132  -1.445  30.137  0.00  0.00     0.171 A 
ATOM      2  N   UNL d   1      58.960  -1.340  29.790  0.00  0.00    -0.286 N 
ATOM      3  N   UNL d   1      57.838  -2.261  29.879  0.00  0.00    -0.225 NA
ATOM      4  C   UNL d   1      59.175  -2.079  29.326  0.00  0.00     0.083 A 
ATOM      5  C   UNL d   1      58.469  -2.659  29.382  0.00  0.00     0.099 A 
ATOM      6  C   UNL d   1      59.921  -2.301  28.859  0.00  0.00     0.019 A 
ATOM      7  C   UNL d   1      58.519  -3.451  28.970  0.00  0.00     0.021 A 
ATOM      8  C   UNL d   1      59.945  -3.102  28.456  0.00  0.00     0.002 A 
ATOM      9  C   UNL d   1      59.239  -3.682  28.512  0.00  0.00     0.002 A 
ENDROOT
BRANCH   2  10
ATOM     10  C   UNL d   1      59.667  -1.189  29.524  0.00  0.00     0.106 C 
BRANCH  10  11
ATOM     11  C   UNL d   1      60.053  -0.529  29.791  0.00  0.00     0.118 A 
ATOM     12  O   UNL d   1      60.394  -0.433  30.494  0.00  0.00    -0.299 OA
ATOM     13  C   UNL d   1      60.723   0.303  30.554  0.00  0.00     0.134 A 
ATOM     14 BR   UNL d   1      61.128   0.682  31.136  0.00  0.00    -0.022 Br
ATOM     15  C   UNL d   1      60.577   0.675  29.856  0.00  0.00     0.034 A 
ATOM     16  C   UNL d   1      60.160   0.172  29.368  0.00  0.00     0.029 A 
ENDBRANCH  10  11
ENDBRANCH   2  10
BRANCH   1  17
ATOM     17  C   UNL d   1      57.687  -0.854  30.639  0.00  0.00     0.135 A 
ATOM     18  O   UNL d   1      57.542  -0.950  31.434  0.00  0.00    -0.297 OA
ATOM     19  C   UNL d   1      57.126  -0.286  31.661  0.00  0.00     0.134 A 
ATOM     20 BR   UNL d   1      56.760   0.112  32.266  0.00  0.00    -0.022 Br
ATOM     21  C   UNL d   1      57.028   0.193  31.009  0.00  0.00     0.034 A 
ATOM     22  C   UNL d   1      57.383  -0.174  30.381  0.00  0.00     0.030 A 
ENDBRANCH   1  17
TORSDOF 3
ENDMDL
