MODEL 1
REMARK VINA RESULT:      -3.1      0.000      0.000
REMARK  5 active torsions:
REMARK  status: ('A' for Active; 'I' for Inactive)
REMARK    1  A    between atoms: C_7  and  N_1 
REMARK    2  A    between atoms: C_14  and  N_5 
REMARK    3  A    between atoms: C_8  and  C_7 
REMARK    4  A    between atoms: C_16  and  C_14 
REMARK    5  A    between atoms: O_15  and  C_16 
ROOT
ATOM      1  N   UNL d   1      58.434  -0.584  29.519  0.00  0.00    -0.273 N 
ATOM      2  C   UNL d   1      58.474   0.252  29.556  0.00  0.00     0.153 A 
ATOM      3  S   UNL d   1      58.136   0.648  30.185  0.00  0.00    -0.039 SA
ATOM      4  C   UNL d   1      58.057  -1.008  30.112  0.00  0.00     0.168 A 
ATOM      5  N   UNL d   1      57.714  -0.604  30.749  0.00  0.00    -0.280 N 
ATOM      6  C   UNL d   1      57.754   0.232  30.786  0.00  0.00     0.120 A 
ATOM      7  S   UNL d   1      58.860   0.676  28.949  0.00  0.00    -0.052 SA
ENDROOT
BRANCH   1   8
ATOM      8  C   UNL d   1      58.781  -0.975  28.876  0.00  0.00     0.107 C 
BRANCH   8   9
ATOM      9  C   UNL d   1      59.078  -1.744  28.955  0.00  0.00     0.118 A 
ATOM     10  O   UNL d   1      59.802  -1.948  29.303  0.00  0.00    -0.304 OA
ATOM     11  C   UNL d   1      59.870  -2.771  29.262  0.00  0.00     0.123 A 
ATOM     12  C   UNL d   1      59.204  -3.067  28.898  0.00  0.00     0.029 A 
ATOM     13  C   UNL d   1      58.713  -2.433  28.707  0.00  0.00     0.028 A 
ENDBRANCH   8   9
ENDBRANCH   1   8
BRANCH   5  14
ATOM     14  C   UNL d   1      57.334  -1.015  31.349  0.00  0.00     0.108 C 
BRANCH  14  15
ATOM     15  C   UNL d   1      56.761  -0.636  31.808  0.00  0.00     0.135 C 
BRANCH  15  16
ATOM     16  O   UNL d   1      56.236  -1.085  32.257  0.00  0.00    -0.325 OA
ATOM     17  C   UNL d   1      56.009  -0.822  32.997  0.00  0.00     0.182 C 
ENDBRANCH  15  16
ENDBRANCH  14  15
ENDBRANCH   5  14
TORSDOF 5
ENDMDL
MODEL 2
REMARK VINA RESULT:      -2.6      1.574      3.457
REMARK  5 active torsions:
REMARK  status: ('A' for Active; 'I' for Inactive)
REMARK    1  A    between atoms: C_7  and  N_1 
REMARK    2  A    between atoms: C_14  and  N_5 
REMARK    3  A    between atoms: C_8  and  C_7 
REMARK    4  A    between atoms: C_16  and  C_14 
REMARK    5  A    between atoms: O_15  and  C_16 
ROOT
ATOM      1  N   UNL d   1      59.354   0.022  29.692  0.00  0.00    -0.273 N 
ATOM      2  C   UNL d   1      60.184   0.019  29.575  0.00  0.00     0.153 A 
ATOM      3  S   UNL d   1      60.542  -0.625  29.222  0.00  0.00    -0.039 SA
ATOM      4  C   UNL d   1      58.898  -0.617  29.454  0.00  0.00     0.168 A 
ATOM      5  N   UNL d   1      59.264  -1.269  29.096  0.00  0.00    -0.280 N 
ATOM      6  C   UNL d   1      60.094  -1.273  28.979  0.00  0.00     0.120 A 
ATOM      7  S   UNL d   1      60.640   0.674  29.820  0.00  0.00    -0.052 SA
ENDROOT
BRANCH   1   8
ATOM      8  C   UNL d   1      59.002   0.681  30.052  0.00  0.00     0.107 C 
BRANCH   8   9
ATOM      9  C   UNL d   1      58.330   0.597  30.527  0.00  0.00     0.118 A 
ATOM     10  O   UNL d   1      57.545   0.597  30.259  0.00  0.00    -0.304 OA
ATOM     11  C   UNL d   1      57.060   0.498  30.921  0.00  0.00     0.123 A 
ATOM     12  C   UNL d   1      57.533   0.439  31.582  0.00  0.00     0.029 A 
ATOM     13  C   UNL d   1      58.319   0.500  31.341  0.00  0.00     0.028 A 
ENDBRANCH   8   9
ENDBRANCH   1   8
BRANCH   5  14
ATOM     14  C   UNL d   1      58.821  -1.916  28.853  0.00  0.00     0.108 C 
BRANCH  14  15
ATOM     15  C   UNL d   1      59.062  -2.680  29.056  0.00  0.00     0.135 C 
BRANCH  15  16
ATOM     16  O   UNL d   1      58.531  -3.306  28.988  0.00  0.00    -0.325 OA
ATOM     17  C   UNL d   1      58.723  -3.949  28.521  0.00  0.00     0.182 C 
ENDBRANCH  15  16
ENDBRANCH  14  15
ENDBRANCH   5  14
TORSDOF 5
ENDMDL
MODEL 3
REMARK VINA RESULT:      -2.1      1.844      4.091
REMARK  5 active torsions:
REMARK  status: ('A' for Active; 'I' for Inactive)
REMARK    1  A    between atoms: C_7  and  N_1 
REMARK    2  A    between atoms: C_14  and  N_5 
REMARK    3  A    between atoms: C_8  and  C_7 
REMARK    4  A    between atoms: C_16  and  C_14 
REMARK    5  A    between atoms: O_15  and  C_16 
ROOT
ATOM      1  N   UNL d   1      57.408   0.463  32.471  0.00  0.00    -0.273 N 
ATOM      2  C   UNL d   1      58.188   0.610  32.740  0.00  0.00     0.153 A 
ATOM      3  S   UNL d   1      58.797   0.682  32.201  0.00  0.00    -0.039 SA
ATOM      4  C   UNL d   1      57.253   0.391  31.668  0.00  0.00     0.168 A 
ATOM      5  N   UNL d   1      57.873   0.465  31.124  0.00  0.00    -0.280 N 
ATOM      6  C   UNL d   1      58.653   0.611  31.393  0.00  0.00     0.120 A 
ATOM      7  S   UNL d   1      58.337   0.682  33.559  0.00  0.00    -0.052 SA
ENDROOT
BRANCH   1   8
ATOM      8  C   UNL d   1      56.797   0.392  33.027  0.00  0.00     0.107 C 
BRANCH   8   9
ATOM      9  C   UNL d   1      56.296  -0.266  33.025  0.00  0.00     0.118 A 
ATOM     10  O   UNL d   1      56.535  -1.056  33.104  0.00  0.00    -0.304 OA
ATOM     11  C   UNL d   1      55.854  -1.523  33.072  0.00  0.00     0.123 A 
ATOM     12  C   UNL d   1      55.210  -1.034  32.976  0.00  0.00     0.029 A 
ATOM     13  C   UNL d   1      55.480  -0.256  32.947  0.00  0.00     0.028 A 
ENDBRANCH   8   9
ENDBRANCH   1   8
BRANCH   5  14
ATOM     14  C   UNL d   1      57.732   0.395  30.318  0.00  0.00     0.108 C 
BRANCH  14  15
ATOM     15  C   UNL d   1      58.296   0.037  29.831  0.00  0.00     0.135 C 
BRANCH  15  16
ATOM     16  O   UNL d   1      58.091  -0.182  29.064  0.00  0.00    -0.325 OA
ATOM     17  C   UNL d   1      58.672  -0.239  28.491  0.00  0.00     0.182 C 
ENDBRANCH  15  16
ENDBRANCH  14  15
ENDBRANCH   5  14
TORSDOF 5
ENDMDL
MODEL 4
REMARK VINA RESULT:      -1.2      8.664      9.276
REMARK  5 active torsions:
REMARK  status: ('A' for Active; 'I' for Inactive)
REMARK    1  A    between atoms: C_7  and  N_1 
REMARK    2  A    between atoms: C_14  and  N_5 
REMARK    3  A    between atoms: C_8  and  C_7 
REMARK    4  A    between atoms: C_16  and  C_14 
REMARK    5  A    between atoms: O_15  and  C_16 
ROOT
ATOM      1  N   UNL d   1      60.208  -8.921  35.301  0.00  0.00    -0.273 N 
ATOM      2  C   UNL d   1      60.808  -9.052  35.872  0.00  0.00     0.153 A 
ATOM      3  S   UNL d   1      61.078  -8.431  36.329  0.00  0.00    -0.039 SA
ATOM      4  C   UNL d   1      59.889  -8.171  35.199  0.00  0.00     0.168 A 
ATOM      5  N   UNL d   1      60.165  -7.543  35.663  0.00  0.00    -0.280 N 
ATOM      6  C   UNL d   1      60.765  -7.674  36.234  0.00  0.00     0.120 A 
ATOM      7  S   UNL d   1      61.126  -9.818  35.970  0.00  0.00    -0.052 SA
ENDROOT
BRANCH   1   8
ATOM      8  C   UNL d   1      59.942  -9.559  34.844  0.00  0.00     0.107 C 
BRANCH   8   9
ATOM      9  C   UNL d   1      59.582  -9.434  34.109  0.00  0.00     0.118 A 
ATOM     10  O   UNL d   1      58.797  -9.196  33.990  0.00  0.00    -0.304 OA
ATOM     11  C   UNL d   1      58.678  -9.141  33.174  0.00  0.00     0.123 A 
ATOM     12  C   UNL d   1      59.373  -9.340  32.798  0.00  0.00     0.029 A 
ATOM     13  C   UNL d   1      59.934  -9.522  33.374  0.00  0.00     0.028 A 
ENDBRANCH   8   9
ENDBRANCH   1   8
BRANCH   5  14
ATOM     14  C   UNL d   1      59.856  -6.788  35.572  0.00  0.00     0.108 C 
BRANCH  14  15
ATOM     15  C   UNL d   1      60.175  -6.158  36.000  0.00  0.00     0.135 C 
BRANCH  15  16
ATOM     16  O   UNL d   1      60.294  -5.432  35.629  0.00  0.00    -0.325 OA
ATOM     17  C   UNL d   1      60.945  -4.978  35.827  0.00  0.00     0.182 C 
ENDBRANCH  15  16
ENDBRANCH  14  15
ENDBRANCH   5  14
TORSDOF 5
ENDMDL
MODEL 5
REMARK VINA RESULT:      -1.2      1.618      2.042
REMARK  5 active torsions:
REMARK  status: ('A' for Active; 'I' for Inactive)
REMARK    1  A    between atoms: C_7  and  N_1 
REMARK    2  A    between atoms: C_14  and  N_5 
REMARK    3  A    between atoms: C_8  and  C_7 
REMARK    4  A    between atoms: C_16  and  C_14 
REMARK    5  A    between atoms: O_15  and  C_16 
ROOT
ATOM      1  N   UNL d   1      58.887   0.641  30.929  0.00  0.00    -0.273 N 
ATOM      2  C   UNL d   1      59.372   0.668  31.613  0.00  0.00     0.153 A 
ATOM      3  S   UNL d   1      59.029   0.680  32.354  0.00  0.00    -0.039 SA
ATOM      4  C   UNL d   1      58.070   0.626  31.000  0.00  0.00     0.168 A 
ATOM      5  N   UNL d   1      57.725   0.639  31.753  0.00  0.00    -0.280 N 
ATOM      6  C   UNL d   1      58.209   0.665  32.437  0.00  0.00     0.120 A 
ATOM      7  S   UNL d   1      60.203   0.682  31.532  0.00  0.00    -0.052 SA
ENDROOT
BRANCH   1   8
ATOM      8  C   UNL d   1      59.246   0.629  30.182  0.00  0.00     0.107 C 
BRANCH   8   9
ATOM      9  C   UNL d   1      58.940   0.163  29.571  0.00  0.00     0.118 A 
ATOM     10  O   UNL d   1      59.106  -0.639  29.445  0.00  0.00    -0.304 OA
ATOM     11  C   UNL d   1      58.682  -0.876  28.776  0.00  0.00     0.123 A 
ATOM     12  C   UNL d   1      58.264  -0.235  28.496  0.00  0.00     0.029 A 
ATOM     13  C   UNL d   1      58.422   0.409  28.986  0.00  0.00     0.028 A 
ENDBRANCH   8   9
ENDBRANCH   1   8
BRANCH   5  14
ATOM     14  C   UNL d   1      56.908   0.625  31.840  0.00  0.00     0.108 C 
BRANCH  14  15
ATOM     15  C   UNL d   1      56.569   0.224  32.478  0.00  0.00     0.135 C 
BRANCH  15  16
ATOM     16  O   UNL d   1      55.888  -0.225  32.361  0.00  0.00    -0.325 OA
ATOM     17  C   UNL d   1      55.465  -0.494  33.007  0.00  0.00     0.182 C 
ENDBRANCH  15  16
ENDBRANCH  14  15
ENDBRANCH   5  14
TORSDOF 5
ENDMDL
MODEL 6
REMARK VINA RESULT:      -0.4      8.371      8.908
REMARK  5 active torsions:
REMARK  status: ('A' for Active; 'I' for Inactive)
REMARK    1  A    between atoms: C_7  and  N_1 
REMARK    2  A    between atoms: C_14  and  N_5 
REMARK    3  A    between atoms: C_8  and  C_7 
REMARK    4  A    between atoms: C_16  and  C_14 
REMARK    5  A    between atoms: O_15  and  C_16 
ROOT
ATOM      1  N   UNL d   1      59.839  -9.732  30.079  0.00  0.00    -0.273 N 
ATOM      2  C   UNL d   1      60.670  -9.642  30.137  0.00  0.00     0.153 A 
ATOM      3  S   UNL d   1      61.026  -9.612  30.872  0.00  0.00    -0.039 SA
ATOM      4  C   UNL d   1      59.379  -9.790  30.756  0.00  0.00     0.168 A 
ATOM      5  N   UNL d   1      59.742  -9.759  31.500  0.00  0.00    -0.280 N 
ATOM      6  C   UNL d   1      60.573  -9.669  31.559  0.00  0.00     0.120 A 
ATOM      7  S   UNL d   1      61.131  -9.584  29.443  0.00  0.00    -0.052 SA
ENDROOT
BRANCH   1   8
ATOM      8  C   UNL d   1      59.490  -9.761  29.328  0.00  0.00     0.107 C 
BRANCH   8   9
ATOM      9  C   UNL d   1      58.731  -9.456  29.200  0.00  0.00     0.118 A 
ATOM     10  O   UNL d   1      58.556  -8.749  28.805  0.00  0.00    -0.304 OA
ATOM     11  C   UNL d   1      57.734  -8.664  28.807  0.00  0.00     0.123 A 
ATOM     12  C   UNL d   1      57.409  -9.303  29.194  0.00  0.00     0.029 A 
ATOM     13  C   UNL d   1      58.025  -9.794  29.438  0.00  0.00     0.028 A 
ENDBRANCH   8   9
ENDBRANCH   1   8
BRANCH   5  14
ATOM     14  C   UNL d   1      59.295  -9.815  32.187  0.00  0.00     0.108 C 
BRANCH  14  15
ATOM     15  C   UNL d   1      59.648  -9.679  32.921  0.00  0.00     0.135 C 
BRANCH  15  16
ATOM     16  O   UNL d   1      59.239  -9.258  33.498  0.00  0.00    -0.325 OA
ATOM     17  C   UNL d   1      59.257  -9.515  34.275  0.00  0.00     0.182 C 
ENDBRANCH  15  16
ENDBRANCH  14  15
ENDBRANCH   5  14
TORSDOF 5
ENDMDL
MODEL 7
REMARK VINA RESULT:      -0.4      2.483      4.986
REMARK  5 active torsions:
REMARK  status: ('A' for Active; 'I' for Inactive)
REMARK    1  A    between atoms: C_7  and  N_1 
REMARK    2  A    between atoms: C_14  and  N_5 
REMARK    3  A    between atoms: C_8  and  C_7 
REMARK    4  A    between atoms: C_16  and  C_14 
REMARK    5  A    between atoms: O_15  and  C_16 
ROOT
ATOM      1  N   UNL d   1      55.993  -0.085  32.708  0.00  0.00    -0.273 N 
ATOM      2  C   UNL d   1      56.038  -0.908  32.554  0.00  0.00     0.153 A 
ATOM      3  S   UNL d   1      56.564  -1.189  31.996  0.00  0.00    -0.039 SA
ATOM      4  C   UNL d   1      56.475   0.440  32.302  0.00  0.00     0.168 A 
ATOM      5  N   UNL d   1      57.008   0.152  31.737  0.00  0.00    -0.280 N 
ATOM      6  C   UNL d   1      57.053  -0.670  31.583  0.00  0.00     0.120 A 
ATOM      7  S   UNL d   1      55.544  -1.436  32.971  0.00  0.00    -0.052 SA
ENDROOT
BRANCH   1   8
ATOM      8  C   UNL d   1      55.454   0.188  33.276  0.00  0.00     0.107 C 
BRANCH   8   9
ATOM      9  C   UNL d   1      55.704   0.380  34.041  0.00  0.00     0.118 A 
ATOM     10  O   UNL d   1      56.490   0.505  34.275  0.00  0.00    -0.304 OA
ATOM     11  C   UNL d   1      56.480   0.682  35.082  0.00  0.00     0.123 A 
ATOM     12  C   UNL d   1      55.707   0.667  35.340  0.00  0.00     0.029 A 
ATOM     13  C   UNL d   1      55.225   0.480  34.698  0.00  0.00     0.028 A 
ENDBRANCH   8   9
ENDBRANCH   1   8
BRANCH   5  14
ATOM     14  C   UNL d   1      57.497   0.667  31.323  0.00  0.00     0.108 C 
BRANCH  14  15
ATOM     15  C   UNL d   1      58.054   0.367  30.793  0.00  0.00     0.135 C 
BRANCH  15  16
ATOM     16  O   UNL d   1      58.815   0.682  30.780  0.00  0.00    -0.325 OA
ATOM     17  C   UNL d   1      59.338   0.454  30.194  0.00  0.00     0.182 C 
ENDBRANCH  15  16
ENDBRANCH  14  15
ENDBRANCH   5  14
TORSDOF 5
ENDMDL
