MODEL 1
REMARK VINA RESULT:      33.9      0.000      0.000
REMARK  5 active torsions:
REMARK  status: ('A' for Active; 'I' for Inactive)
REMARK    1  A    between atoms: C_13  and  C_5 
REMARK    2  A    between atoms: C_16  and  C_13 
REMARK    3  A    between atoms: C_19  and  C_16 
REMARK    4  A    between atoms: C_17  and  C_18 
REMARK    5  A    between atoms: C_18  and  C_19 
ROOT
ATOM      1  C   UNL d   1     -54.793-101.238 -38.314  0.00  0.00     0.111 A 
ATOM      2  C   UNL d   1     -54.792-101.480 -36.892  0.00  0.00     0.062 A 
ATOM      3  C   UNL d   1     -54.745-100.439 -38.178  0.00  0.00     0.213 A 
ATOM      4  C   UNL d   1     -54.741-100.636 -36.765  0.00  0.00     0.105 A 
ATOM      5  C   UNL d   1     -54.818-101.774 -37.663  0.00  0.00     0.018 A 
ATOM      6  O   UNL d   1     -54.718-100.124 -37.371  0.00  0.00    -0.287 OA
ATOM      7  C   UNL d   1     -54.819-101.532 -39.085  0.00  0.00     0.105 C 
ATOM      8  C   UNL d   1     -54.814-101.984 -36.247  0.00  0.00     0.198 A 
ATOM      9  N   UNL d   1     -54.845-101.832 -39.873  0.00  0.00    -0.191 NA
ATOM     10  N   UNL d   1     -54.719 -99.874 -38.835  0.00  0.00    -0.120 N 
ATOM     11  O   UNL d   1     -54.864-102.807 -36.399  0.00  0.00    -0.286 OA
ATOM     12  C   UNL d   1     -54.715-100.339 -35.977  0.00  0.00     0.025 A 
ATOM     13  C   UNL d   1     -54.788-101.684 -35.475  0.00  0.00     0.042 A 
ATOM     14  C   UNL d   1     -54.739-100.864 -35.336  0.00  0.00     0.005 A 
ENDROOT
BRANCH   5  15
ATOM     15  C   UNL d   1     -54.865-102.568 -37.798  0.00  0.00     0.001 C 
BRANCH  15  16
ATOM     16  C   UNL d   1     -55.281-102.862 -38.430  0.00  0.00     0.000 C 
BRANCH  16  17
ATOM     17  C   UNL d   1     -56.136-102.869 -38.451  0.00  0.00     0.000 C 
BRANCH  17  18
ATOM     18  C   UNL d   1     -56.520-102.795 -39.171  0.00  0.00     0.000 C 
BRANCH  18  19
ATOM     19  C   UNL d   1     -57.338-102.880 -39.186  0.00  0.00     0.000 C 
ATOM     20  C   UNL d   1     -57.770-102.525 -39.769  0.00  0.00     0.000 C 
ENDBRANCH  18  19
ENDBRANCH  17  18
ENDBRANCH  16  17
ENDBRANCH  15  16
ENDBRANCH   5  15
TORSDOF 5
ENDMDL
MODEL 2
REMARK VINA RESULT:      35.6      6.283      7.369
REMARK  5 active torsions:
REMARK  status: ('A' for Active; 'I' for Inactive)
REMARK    1  A    between atoms: C_13  and  C_5 
REMARK    2  A    between atoms: C_16  and  C_13 
REMARK    3  A    between atoms: C_19  and  C_16 
REMARK    4  A    between atoms: C_17  and  C_18 
REMARK    5  A    between atoms: C_18  and  C_19 
ROOT
ATOM      1  C   UNL d   1     -58.635 -98.871 -44.267  0.00  0.00     0.111 A 
ATOM      2  C   UNL d   1     -58.667 -98.887 -42.826  0.00  0.00     0.062 A 
ATOM      3  C   UNL d   1     -59.443 -98.943 -44.286  0.00  0.00     0.213 A 
ATOM      4  C   UNL d   1     -59.518 -98.963 -42.862  0.00  0.00     0.105 A 
ATOM      5  C   UNL d   1     -58.233 -98.841 -43.526  0.00  0.00     0.018 A 
ATOM      6  O   UNL d   1     -59.905 -98.992 -43.555  0.00  0.00    -0.287 OA
ATOM      7  C   UNL d   1     -58.201 -98.825 -44.968  0.00  0.00     0.105 C 
ATOM      8  C   UNL d   1     -58.296 -98.861 -42.096  0.00  0.00     0.198 A 
ATOM      9  N   UNL d   1     -57.756 -98.778 -45.684  0.00  0.00    -0.191 NA
ATOM     10  N   UNL d   1     -59.872 -98.975 -45.039  0.00  0.00    -0.120 N 
ATOM     11  O   UNL d   1     -57.461 -98.785 -42.088  0.00  0.00    -0.286 OA
ATOM     12  C   UNL d   1     -59.958 -99.010 -42.146  0.00  0.00     0.025 A 
ATOM     13  C   UNL d   1     -58.736 -98.907 -41.396  0.00  0.00     0.042 A 
ATOM     14  C   UNL d   1     -59.566 -98.982 -41.415  0.00  0.00     0.005 A 
ENDROOT
BRANCH   5  15
ATOM     15  C   UNL d   1     -57.429 -98.769 -43.507  0.00  0.00     0.001 C 
BRANCH  15  16
ATOM     16  C   UNL d   1     -56.985 -98.845 -44.182  0.00  0.00     0.000 C 
BRANCH  16  17
ATOM     17  C   UNL d   1     -56.226 -99.240 -44.186  0.00  0.00     0.000 C 
BRANCH  17  18
ATOM     18  C   UNL d   1     -56.174-100.006 -44.471  0.00  0.00     0.000 C 
BRANCH  18  19
ATOM     19  C   UNL d   1     -55.426-100.322 -44.605  0.00  0.00     0.000 C 
ATOM     20  C   UNL d   1     -55.217-101.023 -44.263  0.00  0.00     0.000 C 
ENDBRANCH  18  19
ENDBRANCH  17  18
ENDBRANCH  16  17
ENDBRANCH  15  16
ENDBRANCH   5  15
TORSDOF 5
ENDMDL
