MODEL 1
REMARK VINA RESULT:      -7.5      0.000      0.000
REMARK  5 active torsions:
REMARK  status: ('A' for Active; 'I' for Inactive)
REMARK    1  A    between atoms: C_2  and  N_1 
REMARK    2  A    between atoms: O_4  and  N_1 
REMARK    3  A    between atoms: C_8  and  C_2 
REMARK    4  A    between atoms: C_3  and  O_4 
REMARK    5  A    between atoms: C_5  and  C_3 
ROOT
ATOM      1  O   UNL d   1      53.025  32.824  53.369  0.00  0.00    -0.168 OA
ENDROOT
BRANCH   1   2
ATOM      2  C   UNL d   1      52.515  33.505  53.698  0.00  0.00     0.319 C 
ATOM      3  O   UNL d   1      52.732  33.907  54.472  0.00  0.00    -0.257 OA
BRANCH   2   4
ATOM      4  C   UNL d   1      51.843  33.758  53.281  0.00  0.00     0.065 A 
ATOM      5  C   UNL d   1      51.089  33.576  53.553  0.00  0.00     0.006 A 
ATOM      6  C   UNL d   1      50.441  33.826  53.141  0.00  0.00     0.007 A 
ATOM      7  C   UNL d   1      50.508  34.265  52.445  0.00  0.00     0.035 A 
ATOM      8  C   UNL d   1      51.264  34.448  52.172  0.00  0.00     0.007 A 
ATOM      9 BR   UNL d   1      49.843  34.520  52.026  0.00  0.00    -0.049 Br
ATOM     10  C   UNL d   1      51.944  34.199  52.583  0.00  0.00     0.006 A 
ENDBRANCH   2   4
ENDBRANCH   1   2
BRANCH   1  11
ATOM     11  N   UNL d   1      53.182  32.161  53.817  0.00  0.00    -0.102 NA
BRANCH  11  12
ATOM     12  C   UNL d   1      53.633  31.541  53.522  0.00  0.00     0.210 C 
ATOM     13  N   UNL d   1      54.362  31.705  53.173  0.00  0.00    -0.125 N 
BRANCH  12  14
ATOM     14  C   UNL d   1      53.376  30.764  53.567  0.00  0.00     0.043 A 
ATOM     15  C   UNL d   1      52.965  30.417  52.954  0.00  0.00     0.024 A 
ATOM     16  C   UNL d   1      52.708  29.638  52.997  0.00  0.00     0.099 A 
ATOM     17  N   UNL d   1      52.876  29.209  53.684  0.00  0.00    -0.242 NA
ATOM     18  C   UNL d   1      53.287  29.540  54.309  0.00  0.00     0.099 A 
ATOM     19  C   UNL d   1      53.538  30.324  54.247  0.00  0.00     0.024 A 
ENDBRANCH  12  14
ENDBRANCH  11  12
ENDBRANCH   1  11
TORSDOF 5
ENDMDL
MODEL 2
REMARK VINA RESULT:      -7.5      2.249      4.490
REMARK  5 active torsions:
REMARK  status: ('A' for Active; 'I' for Inactive)
REMARK    1  A    between atoms: C_2  and  N_1 
REMARK    2  A    between atoms: O_4  and  N_1 
REMARK    3  A    between atoms: C_8  and  C_2 
REMARK    4  A    between atoms: C_3  and  O_4 
REMARK    5  A    between atoms: C_5  and  C_3 
ROOT
ATOM      1  O   UNL d   1      52.321  32.014  53.306  0.00  0.00    -0.168 OA
ENDROOT
BRANCH   1   2
ATOM      2  C   UNL d   1      52.750  31.317  52.903  0.00  0.00     0.319 C 
ATOM      3  O   UNL d   1      52.986  31.364  52.036  0.00  0.00    -0.257 OA
BRANCH   2   4
ATOM      4  C   UNL d   1      52.925  30.631  53.337  0.00  0.00     0.065 A 
ATOM      5  C   UNL d   1      53.622  30.578  53.770  0.00  0.00     0.006 A 
ATOM      6  C   UNL d   1      53.784  29.908  54.189  0.00  0.00     0.007 A 
ATOM      7  C   UNL d   1      53.269  29.263  54.200  0.00  0.00     0.035 A 
ATOM      8  C   UNL d   1      52.571  29.316  53.766  0.00  0.00     0.007 A 
ATOM      9 BR   UNL d   1      53.438  28.578  54.630  0.00  0.00    -0.049 Br
ATOM     10  C   UNL d   1      52.385  29.999  53.327  0.00  0.00     0.006 A 
ENDBRANCH   2   4
ENDBRANCH   1   2
BRANCH   1  11
ATOM     11  N   UNL d   1      52.529  32.786  53.146  0.00  0.00    -0.102 NA
BRANCH  11  12
ATOM     12  C   UNL d   1      52.131  33.417  53.489  0.00  0.00     0.210 C 
ATOM     13  N   UNL d   1      51.306  33.407  53.512  0.00  0.00    -0.125 N 
BRANCH  12  14
ATOM     14  C   UNL d   1      52.532  34.056  53.808  0.00  0.00     0.043 A 
ATOM     15  C   UNL d   1      52.854  34.025  54.556  0.00  0.00     0.024 A 
ATOM     16  C   UNL d   1      53.257  34.665  54.877  0.00  0.00     0.099 A 
ATOM     17  N   UNL d   1      53.330  35.350  54.419  0.00  0.00    -0.242 NA
ATOM     18  C   UNL d   1      53.013  35.400  53.666  0.00  0.00     0.099 A 
ATOM     19  C   UNL d   1      52.612  34.747  53.360  0.00  0.00     0.024 A 
ENDBRANCH  12  14
ENDBRANCH  11  12
ENDBRANCH   1  11
TORSDOF 5
ENDMDL
MODEL 3
REMARK VINA RESULT:      -7.4      1.733      2.651
REMARK  5 active torsions:
REMARK  status: ('A' for Active; 'I' for Inactive)
REMARK    1  A    between atoms: C_2  and  N_1 
REMARK    2  A    between atoms: O_4  and  N_1 
REMARK    3  A    between atoms: C_8  and  C_2 
REMARK    4  A    between atoms: C_3  and  O_4 
REMARK    5  A    between atoms: C_5  and  C_3 
ROOT
ATOM      1  O   UNL d   1      52.702  32.644  53.698  0.00  0.00    -0.168 OA
ENDROOT
BRANCH   1   2
ATOM      2  C   UNL d   1      52.253  32.714  52.907  0.00  0.00     0.319 C 
ATOM      3  O   UNL d   1      52.497  32.218  52.198  0.00  0.00    -0.257 OA
BRANCH   2   4
ATOM      4  C   UNL d   1      51.614  33.239  52.838  0.00  0.00     0.065 A 
ATOM      5  C   UNL d   1      50.940  33.139  53.298  0.00  0.00     0.006 A 
ATOM      6  C   UNL d   1      50.323  33.654  53.224  0.00  0.00     0.007 A 
ATOM      7  C   UNL d   1      50.343  34.288  52.696  0.00  0.00     0.035 A 
ATOM      8  C   UNL d   1      51.019  34.388  52.235  0.00  0.00     0.007 A 
ATOM      9 BR   UNL d   1      49.710  34.814  52.622  0.00  0.00    -0.049 Br
ATOM     10  C   UNL d   1      51.666  33.868  52.296  0.00  0.00     0.006 A 
ENDBRANCH   2   4
ENDBRANCH   1   2
BRANCH   1  11
ATOM     11  N   UNL d   1      53.513  32.557  53.717  0.00  0.00    -0.102 NA
BRANCH  11  12
ATOM     12  C   UNL d   1      53.915  32.436  54.423  0.00  0.00     0.210 C 
ATOM     13  N   UNL d   1      53.778  31.743  54.849  0.00  0.00    -0.125 N 
BRANCH  12  14
ATOM     14  C   UNL d   1      54.448  32.986  54.714  0.00  0.00     0.043 A 
ATOM     15  C   UNL d   1      55.046  33.286  54.247  0.00  0.00     0.024 A 
ATOM     16  C   UNL d   1      55.581  33.837  54.537  0.00  0.00     0.099 A 
ATOM     17  N   UNL d   1      55.500  34.084  55.322  0.00  0.00    -0.242 NA
ATOM     18  C   UNL d   1      54.907  33.794  55.806  0.00  0.00     0.099 A 
ATOM     19  C   UNL d   1      54.378  33.241  55.497  0.00  0.00     0.024 A 
ENDBRANCH  12  14
ENDBRANCH  11  12
ENDBRANCH   1  11
TORSDOF 5
ENDMDL
MODEL 4
REMARK VINA RESULT:      -7.3      1.770      2.261
REMARK  5 active torsions:
REMARK  status: ('A' for Active; 'I' for Inactive)
REMARK    1  A    between atoms: C_2  and  N_1 
REMARK    2  A    between atoms: O_4  and  N_1 
REMARK    3  A    between atoms: C_8  and  C_2 
REMARK    4  A    between atoms: C_3  and  O_4 
REMARK    5  A    between atoms: C_5  and  C_3 
ROOT
ATOM      1  O   UNL d   1      53.430  31.936  53.482  0.00  0.00    -0.168 OA
ENDROOT
BRANCH   1   2
ATOM      2  C   UNL d   1      53.994  32.647  53.579  0.00  0.00     0.319 C 
ATOM      3  O   UNL d   1      54.871  32.562  53.400  0.00  0.00    -0.257 OA
BRANCH   2   4
ATOM      4  C   UNL d   1      53.698  33.379  53.835  0.00  0.00     0.065 A 
ATOM      5  C   UNL d   1      53.233  33.838  53.337  0.00  0.00     0.006 A 
ATOM      6  C   UNL d   1      52.949  34.549  53.594  0.00  0.00     0.007 A 
ATOM      7  C   UNL d   1      53.111  34.837  54.350  0.00  0.00     0.035 A 
ATOM      8  C   UNL d   1      53.578  34.377  54.849  0.00  0.00     0.007 A 
ATOM      9 BR   UNL d   1      52.820  35.565  54.610  0.00  0.00    -0.049 Br
ATOM     10  C   UNL d   1      53.880  33.641  54.603  0.00  0.00     0.006 A 
ENDBRANCH   2   4
ENDBRANCH   1   2
BRANCH   1  11
ATOM     11  N   UNL d   1      53.689  31.172  53.606  0.00  0.00    -0.102 NA
BRANCH  11  12
ATOM     12  C   UNL d   1      53.183  30.530  53.524  0.00  0.00     0.210 C 
ATOM     13  N   UNL d   1      52.598  30.551  52.944  0.00  0.00    -0.125 N 
BRANCH  12  14
ATOM     14  C   UNL d   1      53.247  29.870  54.005  0.00  0.00     0.043 A 
ATOM     15  C   UNL d   1      52.944  29.864  54.762  0.00  0.00     0.024 A 
ATOM     16  C   UNL d   1      53.007  29.203  55.244  0.00  0.00     0.099 A 
ATOM     17  N   UNL d   1      53.390  28.534  54.943  0.00  0.00    -0.242 NA
ATOM     18  C   UNL d   1      53.700  28.520  54.185  0.00  0.00     0.099 A 
ATOM     19  C   UNL d   1      53.627  29.195  53.715  0.00  0.00     0.024 A 
ENDBRANCH  12  14
ENDBRANCH  11  12
ENDBRANCH   1  11
TORSDOF 5
ENDMDL
MODEL 5
REMARK VINA RESULT:      -7.2      2.020      4.216
REMARK  5 active torsions:
REMARK  status: ('A' for Active; 'I' for Inactive)
REMARK    1  A    between atoms: C_2  and  N_1 
REMARK    2  A    between atoms: O_4  and  N_1 
REMARK    3  A    between atoms: C_8  and  C_2 
REMARK    4  A    between atoms: C_3  and  O_4 
REMARK    5  A    between atoms: C_5  and  C_3 
ROOT
ATOM      1  O   UNL d   1      53.111  33.088  53.624  0.00  0.00    -0.168 OA
ENDROOT
BRANCH   1   2
ATOM      2  C   UNL d   1      53.745  32.459  53.435  0.00  0.00     0.319 C 
ATOM      3  O   UNL d   1      54.540  32.699  53.093  0.00  0.00    -0.257 OA
BRANCH   2   4
ATOM      4  C   UNL d   1      53.588  31.657  53.580  0.00  0.00     0.065 A 
ATOM      5  C   UNL d   1      53.371  31.155  52.966  0.00  0.00     0.006 A 
ATOM      6  C   UNL d   1      53.221  30.377  53.116  0.00  0.00     0.007 A 
ATOM      7  C   UNL d   1      53.277  30.059  53.876  0.00  0.00     0.035 A 
ATOM      8  C   UNL d   1      53.493  30.561  54.492  0.00  0.00     0.007 A 
ATOM      9 BR   UNL d   1      53.122  29.261  54.027  0.00  0.00    -0.049 Br
ATOM     10  C   UNL d   1      53.653  31.367  54.358  0.00  0.00     0.006 A 
ENDBRANCH   2   4
ENDBRANCH   1   2
BRANCH   1  11
ATOM     11  N   UNL d   1      52.872  33.628  53.061  0.00  0.00    -0.102 NA
BRANCH  11  12
ATOM     12  C   UNL d   1      52.327  34.216  53.235  0.00  0.00     0.210 C 
ATOM     13  N   UNL d   1      52.511  34.776  53.812  0.00  0.00    -0.125 N 
BRANCH  12  14
ATOM     14  C   UNL d   1      51.605  34.261  52.850  0.00  0.00     0.043 A 
ATOM     15  C   UNL d   1      51.558  34.272  52.036  0.00  0.00     0.024 A 
ATOM     16  C   UNL d   1      50.835  34.316  51.649  0.00  0.00     0.099 A 
ATOM     17  N   UNL d   1      50.148  34.350  52.108  0.00  0.00    -0.242 NA
ATOM     18  C   UNL d   1      50.175  34.340  52.926  0.00  0.00     0.099 A 
ATOM     19  C   UNL d   1      50.910  34.295  53.297  0.00  0.00     0.024 A 
ENDBRANCH  12  14
ENDBRANCH  11  12
ENDBRANCH   1  11
TORSDOF 5
ENDMDL
MODEL 6
REMARK VINA RESULT:      -6.9      2.938      4.748
REMARK  5 active torsions:
REMARK  status: ('A' for Active; 'I' for Inactive)
REMARK    1  A    between atoms: C_2  and  N_1 
REMARK    2  A    between atoms: O_4  and  N_1 
REMARK    3  A    between atoms: C_8  and  C_2 
REMARK    4  A    between atoms: C_3  and  O_4 
REMARK    5  A    between atoms: C_5  and  C_3 
ROOT
ATOM      1  O   UNL d   1      51.678  34.119  53.245  0.00  0.00    -0.168 OA
ENDROOT
BRANCH   1   2
ATOM      2  C   UNL d   1      52.527  34.450  53.205  0.00  0.00     0.319 C 
ATOM      3  O   UNL d   1      52.754  35.053  52.578  0.00  0.00    -0.257 OA
BRANCH   2   4
ATOM      4  C   UNL d   1      53.098  34.193  53.750  0.00  0.00     0.065 A 
ATOM      5  C   UNL d   1      53.218  34.602  54.453  0.00  0.00     0.006 A 
ATOM      6  C   UNL d   1      53.775  34.345  54.977  0.00  0.00     0.007 A 
ATOM      7  C   UNL d   1      54.237  33.677  54.832  0.00  0.00     0.035 A 
ATOM      8  C   UNL d   1      54.118  33.267  54.128  0.00  0.00     0.007 A 
ATOM      9 BR   UNL d   1      54.807  33.416  55.371  0.00  0.00    -0.049 Br
ATOM     10  C   UNL d   1      53.548  33.516  53.574  0.00  0.00     0.006 A 
ENDBRANCH   2   4
ENDBRANCH   1   2
BRANCH   1  11
ATOM     11  N   UNL d   1      51.070  34.464  52.823  0.00  0.00    -0.102 NA
BRANCH  11  12
ATOM     12  C   UNL d   1      50.317  34.138  52.813  0.00  0.00     0.210 C 
ATOM     13  N   UNL d   1      50.198  33.390  53.139  0.00  0.00    -0.125 N 
BRANCH  12  14
ATOM     14  C   UNL d   1      49.680  34.539  52.488  0.00  0.00     0.043 A 
ATOM     15  C   UNL d   1      49.250  35.078  52.924  0.00  0.00     0.024 A 
ATOM     16  C   UNL d   1      48.612  35.480  52.599  0.00  0.00     0.099 A 
ATOM     17  N   UNL d   1      48.412  35.324  51.811  0.00  0.00    -0.242 NA
ATOM     18  C   UNL d   1      48.832  34.787  51.358  0.00  0.00     0.099 A 
ATOM     19  C   UNL d   1      49.470  34.393  51.702  0.00  0.00     0.024 A 
ENDBRANCH  12  14
ENDBRANCH  11  12
ENDBRANCH   1  11
TORSDOF 5
ENDMDL
MODEL 7
REMARK VINA RESULT:      -6.8      3.811      6.009
REMARK  5 active torsions:
REMARK  status: ('A' for Active; 'I' for Inactive)
REMARK    1  A    between atoms: C_2  and  N_1 
REMARK    2  A    between atoms: O_4  and  N_1 
REMARK    3  A    between atoms: C_8  and  C_2 
REMARK    4  A    between atoms: C_3  and  O_4 
REMARK    5  A    between atoms: C_5  and  C_3 
ROOT
ATOM      1  O   UNL d   1      49.502  35.036  53.026  0.00  0.00    -0.168 OA
ENDROOT
BRANCH   1   2
ATOM      2  C   UNL d   1      50.024  34.504  52.499  0.00  0.00     0.319 C 
ATOM      3  O   UNL d   1      49.769  34.299  51.662  0.00  0.00    -0.257 OA
BRANCH   2   4
ATOM      4  C   UNL d   1      50.741  34.206  52.793  0.00  0.00     0.065 A 
ATOM      5  C   UNL d   1      51.445  34.612  52.667  0.00  0.00     0.006 A 
ATOM      6  C   UNL d   1      52.137  34.314  52.955  0.00  0.00     0.007 A 
ATOM      7  C   UNL d   1      52.167  33.606  53.379  0.00  0.00     0.035 A 
ATOM      8  C   UNL d   1      51.461  33.199  53.505  0.00  0.00     0.007 A 
ATOM      9 BR   UNL d   1      52.877  33.303  53.673  0.00  0.00    -0.049 Br
ATOM     10  C   UNL d   1      50.736  33.490  53.216  0.00  0.00     0.006 A 
ENDBRANCH   2   4
ENDBRANCH   1   2
BRANCH   1  11
ATOM     11  N   UNL d   1      48.792  35.331  52.756  0.00  0.00    -0.102 NA
BRANCH  11  12
ATOM     12  C   UNL d   1      48.335  35.837  53.214  0.00  0.00     0.210 C 
ATOM     13  N   UNL d   1      48.658  36.157  53.902  0.00  0.00    -0.125 N 
BRANCH  12  14
ATOM     14  C   UNL d   1      47.567  36.030  53.005  0.00  0.00     0.043 A 
ATOM     15  C   UNL d   1      47.381  36.279  52.250  0.00  0.00     0.024 A 
ATOM     16  C   UNL d   1      46.612  36.473  52.040  0.00  0.00     0.099 A 
ATOM     17  N   UNL d   1      46.022  36.410  52.616  0.00  0.00    -0.242 NA
ATOM     18  C   UNL d   1      46.188  36.162  53.378  0.00  0.00     0.099 A 
ATOM     19  C   UNL d   1      46.967  35.971  53.571  0.00  0.00     0.024 A 
ENDBRANCH  12  14
ENDBRANCH  11  12
ENDBRANCH   1  11
TORSDOF 5
ENDMDL
