MODEL 1
REMARK VINA RESULT:      -0.9      0.000      0.000
REMARK  6 active torsions:
REMARK  status: ('A' for Active; 'I' for Inactive)
REMARK    1  A    between atoms: C_11  and  C_4 
REMARK    2  A    between atoms: N_10  and  C_5 
REMARK    3  A    between atoms: C_16  and  C_9 
REMARK    4  A    between atoms: C_13  and  N_10 
REMARK    5  A    between atoms: C_14  and  C_13 
REMARK    6  A    between atoms: C_21  and  C_16 
ROOT
ATOM      1  N   UNL d   1      32.784  20.600 -22.352  0.00  0.00    -0.195 N 
ATOM      2  C   UNL d   1      32.762  21.359 -22.029  0.00  0.00     0.167 A 
ATOM      3  N   UNL d   1      32.464  20.058 -21.101  0.00  0.00    -0.163 NA
ATOM      4  C   UNL d   1      32.593  21.458 -21.255  0.00  0.00     0.055 A 
ATOM      5  C   UNL d   1      32.956  20.522 -23.136  0.00  0.00     0.167 A 
ATOM      6  C   UNL d   1      32.442  20.816 -20.778  0.00  0.00     0.104 A 
ATOM      7  N   UNL d   1      32.913  22.000 -22.506  0.00  0.00    -0.227 NA
ATOM      8  C   UNL d   1      33.106  21.146 -23.611  0.00  0.00     0.058 A 
ATOM      9  C   UNL d   1      33.084  21.904 -23.288  0.00  0.00     0.086 A 
ATOM     10  C   UNL d   1      32.271  20.909 -19.998  0.00  0.00     0.023 C 
ENDROOT
BRANCH   5  11
ATOM     11  N   UNL d   1      32.979  19.740 -23.469  0.00  0.00    -0.224 NA
BRANCH  11  12
ATOM     12  C   UNL d   1      32.884  19.324 -24.198  0.00  0.00     0.120 C 
BRANCH  12  13
ATOM     13  C   UNL d   1      32.523  18.564 -24.221  0.00  0.00     0.101 A 
ATOM     14  N   UNL d   1      31.705  18.486 -24.439  0.00  0.00    -0.242 NA
ATOM     15  C   UNL d   1      31.349  17.719 -24.459  0.00  0.00     0.099 A 
ATOM     16  C   UNL d   1      31.804  17.032 -24.263  0.00  0.00     0.021 A 
ATOM     17  C   UNL d   1      32.625  17.119 -24.045  0.00  0.00     0.003 A 
ATOM     18  C   UNL d   1      32.982  17.885 -24.024  0.00  0.00     0.021 A 
ENDBRANCH  12  13
ENDBRANCH  11  12
ENDBRANCH   5  11
BRANCH   9  19
ATOM     19  C   UNL d   1      33.241  22.576 -23.779  0.00  0.00     0.019 C 
BRANCH  19  20
ATOM     20  C   UNL d   1      32.613  22.945 -24.226  0.00  0.00     0.002 C 
ATOM     21  C   UNL d   1      32.781  23.579 -24.749  0.00  0.00     0.000 C 
ENDBRANCH  19  20
ENDBRANCH   9  19
BRANCH   4  22
ATOM     22  C   UNL d   1      32.571  22.205 -20.936  0.00  0.00     0.004 A 
ATOM     23  C   UNL d   1      33.221  22.492 -20.546  0.00  0.00     0.000 A 
ATOM     24  C   UNL d   1      33.199  23.239 -20.228  0.00  0.00     0.000 A 
ATOM     25  C   UNL d   1      32.528  23.698 -20.300  0.00  0.00     0.000 A 
ATOM     26  C   UNL d   1      31.875  23.412 -20.691  0.00  0.00     0.000 A 
ATOM     27  C   UNL d   1      31.897  22.653 -21.014  0.00  0.00     0.000 A 
ENDBRANCH   4  22
TORSDOF 6
ENDMDL
