MODEL 1
REMARK VINA RESULT:      -7.3      0.000      0.000
REMARK  4 active torsions:
REMARK  status: ('A' for Active; 'I' for Inactive)
REMARK    1  A    between atoms: C_2  and  N_1 
REMARK    2  A    between atoms: C_14  and  C_7 
REMARK    3  A    between atoms: O_20  and  C_14 
REMARK    4  A    between atoms: C_23  and  O_20 
ROOT
ATOM      1  C   UNL d   1     -39.242  14.351  18.276  0.00  0.00     0.105 A 
ATOM      2  C   UNL d   1     -39.352  14.729  17.544  0.00  0.00     0.086 A 
ATOM      3  S   UNL d   1     -38.757  13.700  18.169  0.00  0.00    -0.069 SA
ATOM      4  C   UNL d   1     -38.914  14.275  17.004  0.00  0.00     0.013 A 
ATOM      5  C   UNL d   1     -38.556  13.653  17.386  0.00  0.00     0.031 A 
ATOM      6  C   UNL d   1     -38.793  14.351  16.196  0.00  0.00     0.001 A 
ATOM      7  C   UNL d   1     -38.097  13.125  16.996  0.00  0.00     0.006 A 
ATOM      8  C   UNL d   1     -38.322  13.812  15.780  0.00  0.00     0.000 A 
ATOM      9  C   UNL d   1     -37.973  13.198  16.181  0.00  0.00     0.001 A 
ENDROOT
BRANCH   1  10
ATOM     10  N   UNL d   1     -39.616  14.673  18.955  0.00  0.00    -0.236 N 
ATOM     11  C   UNL d   1     -40.300  14.332  19.255  0.00  0.00     0.266 A 
ATOM     12  C   UNL d   1     -40.508  14.775  19.900  0.00  0.00     0.069 A 
ATOM     13  O   UNL d   1     -40.680  13.656  18.932  0.00  0.00    -0.267 OA
ATOM     14  C   UNL d   1     -41.137  14.706  20.424  0.00  0.00     0.165 A 
ATOM     15  C   UNL d   1     -39.952  15.393  19.999  0.00  0.00     0.069 A 
ATOM     16  C   UNL d   1     -41.228  15.239  21.049  0.00  0.00     0.006 A 
ATOM     17  O   UNL d   1     -40.438  15.259  20.323  0.00  0.00    -0.341 OA
ATOM     18  C   UNL d   1     -40.672  15.857  21.148  0.00  0.00     0.006 A 
ATOM     19  C   UNL d   1     -40.042  15.922  20.619  0.00  0.00     0.165 A 
ATOM     20  C   UNL d   1     -39.406  15.324  19.415  0.00  0.00     0.266 A 
ATOM     21  O   UNL d   1     -38.858  15.737  19.315  0.00  0.00    -0.267 OA
ENDBRANCH   1  10
BRANCH   2  22
ATOM     22  C   UNL d   1     -39.799  15.408  17.382  0.00  0.00     0.302 C 
ATOM     23  O   UNL d   1     -39.649  15.918  17.479  0.00  0.00    -0.259 OA
BRANCH  22  24
ATOM     24  O   UNL d   1     -40.562  15.316  17.033  0.00  0.00    -0.271 OA
BRANCH  24  25
ATOM     25  C   UNL d   1     -40.867  15.922  16.596  0.00  0.00     0.126 C 
ATOM     26  C   UNL d   1     -41.681  15.892  16.401  0.00  0.00     0.029 C 
ENDBRANCH  24  25
ENDBRANCH  22  24
ENDBRANCH   2  22
TORSDOF 4
ENDMDL
MODEL 2
REMARK VINA RESULT:      -7.0      8.144     10.281
REMARK  4 active torsions:
REMARK  status: ('A' for Active; 'I' for Inactive)
REMARK    1  A    between atoms: C_2  and  N_1 
REMARK    2  A    between atoms: C_14  and  C_7 
REMARK    3  A    between atoms: O_20  and  C_14 
REMARK    4  A    between atoms: C_23  and  O_20 
ROOT
ATOM      1  C   UNL d   1     -48.583  14.413  23.063  0.00  0.00     0.105 A 
ATOM      2  C   UNL d   1     -49.187  14.262  22.512  0.00  0.00     0.086 A 
ATOM      3  S   UNL d   1     -48.835  14.995  23.581  0.00  0.00    -0.069 SA
ATOM      4  C   UNL d   1     -49.802  14.777  22.726  0.00  0.00     0.013 A 
ATOM      5  C   UNL d   1     -49.585  15.219  23.373  0.00  0.00     0.031 A 
ATOM      6  C   UNL d   1     -50.547  14.903  22.407  0.00  0.00     0.001 A 
ATOM      7  C   UNL d   1     -50.076  15.762  23.698  0.00  0.00     0.006 A 
ATOM      8  C   UNL d   1     -51.064  15.461  22.732  0.00  0.00     0.000 A 
ATOM      9  C   UNL d   1     -50.828  15.892  23.379  0.00  0.00     0.001 A 
ENDROOT
BRANCH   1  10
ATOM     10  N   UNL d   1     -47.868  13.978  23.005  0.00  0.00    -0.236 N 
ATOM     11  C   UNL d   1     -47.227  14.282  22.592  0.00  0.00     0.266 A 
ATOM     12  C   UNL d   1     -46.640  13.728  22.647  0.00  0.00     0.069 A 
ATOM     13  O   UNL d   1     -47.218  15.027  22.202  0.00  0.00    -0.267 OA
ATOM     14  C   UNL d   1     -45.874  13.718  22.348  0.00  0.00     0.165 A 
ATOM     15  C   UNL d   1     -46.918  13.077  23.095  0.00  0.00     0.069 A 
ATOM     16  C   UNL d   1     -45.375  13.074  22.483  0.00  0.00     0.006 A 
ATOM     17  O   UNL d   1     -46.384  13.165  22.837  0.00  0.00    -0.341 OA
ATOM     18  C   UNL d   1     -45.653  12.424  22.931  0.00  0.00     0.006 A 
ATOM     19  C   UNL d   1     -46.422  12.438  23.229  0.00  0.00     0.165 A 
ATOM     20  C   UNL d   1     -47.674  13.237  23.312  0.00  0.00     0.266 A 
ATOM     21  O   UNL d   1     -48.087  12.828  23.688  0.00  0.00    -0.267 OA
ENDBRANCH   1  10
BRANCH   2  22
ATOM     22  C   UNL d   1     -49.182  13.719  21.885  0.00  0.00     0.302 C 
ATOM     23  O   UNL d   1     -48.936  13.785  21.410  0.00  0.00    -0.259 OA
BRANCH  22  24
ATOM     24  O   UNL d   1     -49.597  12.989  21.980  0.00  0.00    -0.271 OA
BRANCH  24  25
ATOM     25  C   UNL d   1     -49.850  12.596  21.323  0.00  0.00     0.126 C 
ATOM     26  C   UNL d   1     -50.121  11.810  21.418  0.00  0.00     0.029 C 
ENDBRANCH  24  25
ENDBRANCH  22  24
ENDBRANCH   2  22
TORSDOF 4
ENDMDL
MODEL 3
REMARK VINA RESULT:      -6.8      8.150      9.995
REMARK  4 active torsions:
REMARK  status: ('A' for Active; 'I' for Inactive)
REMARK    1  A    between atoms: C_2  and  N_1 
REMARK    2  A    between atoms: C_14  and  C_7 
REMARK    3  A    between atoms: O_20  and  C_14 
REMARK    4  A    between atoms: C_23  and  O_20 
ROOT
ATOM      1  C   UNL d   1     -47.742  13.550  22.216  0.00  0.00     0.105 A 
ATOM      2  C   UNL d   1     -47.586  12.950  22.769  0.00  0.00     0.086 A 
ATOM      3  S   UNL d   1     -47.039  13.768  21.855  0.00  0.00    -0.069 SA
ATOM      4  C   UNL d   1     -46.767  12.823  22.719  0.00  0.00     0.013 A 
ATOM      5  C   UNL d   1     -46.440  13.320  22.165  0.00  0.00     0.031 A 
ATOM      6  C   UNL d   1     -46.267  12.308  23.116  0.00  0.00     0.001 A 
ATOM      7  C   UNL d   1     -45.655  13.315  22.003  0.00  0.00     0.006 A 
ATOM      8  C   UNL d   1     -45.455  12.292  22.959  0.00  0.00     0.000 A 
ATOM      9  C   UNL d   1     -45.148  12.797  22.401  0.00  0.00     0.001 A 
ENDROOT
BRANCH   1  10
ATOM     10  N   UNL d   1     -48.532  13.817  22.123  0.00  0.00    -0.236 N 
ATOM     11  C   UNL d   1     -48.988  13.557  21.493  0.00  0.00     0.266 A 
ATOM     12  C   UNL d   1     -49.709  13.918  21.572  0.00  0.00     0.069 A 
ATOM     13  O   UNL d   1     -48.727  13.022  20.900  0.00  0.00    -0.267 OA
ATOM     14  C   UNL d   1     -50.389  13.876  21.114  0.00  0.00     0.165 A 
ATOM     15  C   UNL d   1     -49.698  14.402  22.255  0.00  0.00     0.069 A 
ATOM     16  C   UNL d   1     -51.064  14.306  21.317  0.00  0.00     0.006 A 
ATOM     17  O   UNL d   1     -50.139  14.305  21.861  0.00  0.00    -0.341 OA
ATOM     18  C   UNL d   1     -51.054  14.790  22.000  0.00  0.00     0.006 A 
ATOM     19  C   UNL d   1     -50.369  14.830  22.457  0.00  0.00     0.165 A 
ATOM     20  C   UNL d   1     -48.972  14.336  22.589  0.00  0.00     0.266 A 
ATOM     21  O   UNL d   1     -48.755  14.656  23.164  0.00  0.00    -0.267 OA
ENDBRANCH   1  10
BRANCH   2  22
ATOM     22  C   UNL d   1     -48.125  12.559  23.264  0.00  0.00     0.302 C 
ATOM     23  O   UNL d   1     -48.373  12.772  23.694  0.00  0.00    -0.259 OA
BRANCH  22  24
ATOM     24  O   UNL d   1     -48.316  11.754  23.097  0.00  0.00    -0.271 OA
BRANCH  24  25
ATOM     25  C   UNL d   1     -48.575  11.282  23.698  0.00  0.00     0.126 C 
ATOM     26  C   UNL d   1     -49.357  10.985  23.651  0.00  0.00     0.029 C 
ENDBRANCH  24  25
ENDBRANCH  22  24
ENDBRANCH   2  22
TORSDOF 4
ENDMDL
MODEL 4
REMARK VINA RESULT:      -6.4      7.886      9.770
REMARK  4 active torsions:
REMARK  status: ('A' for Active; 'I' for Inactive)
REMARK    1  A    between atoms: C_2  and  N_1 
REMARK    2  A    between atoms: C_14  and  C_7 
REMARK    3  A    between atoms: O_20  and  C_14 
REMARK    4  A    between atoms: C_23  and  O_20 
ROOT
ATOM      1  C   UNL d   1     -47.481  13.568  22.166  0.00  0.00     0.105 A 
ATOM      2  C   UNL d   1     -47.302  12.976  22.721  0.00  0.00     0.086 A 
ATOM      3  S   UNL d   1     -46.796  13.774  21.767  0.00  0.00    -0.069 SA
ATOM      4  C   UNL d   1     -46.487  12.842  22.633  0.00  0.00     0.013 A 
ATOM      5  C   UNL d   1     -46.185  13.327  22.054  0.00  0.00     0.031 A 
ATOM      6  C   UNL d   1     -45.971  12.330  23.013  0.00  0.00     0.001 A 
ATOM      7  C   UNL d   1     -45.409  13.313  21.854  0.00  0.00     0.006 A 
ATOM      8  C   UNL d   1     -45.168  12.305  22.817  0.00  0.00     0.000 A 
ATOM      9  C   UNL d   1     -44.886  12.798  22.236  0.00  0.00     0.001 A 
ENDROOT
BRANCH   1  10
ATOM     10  N   UNL d   1     -48.272  13.839  22.108  0.00  0.00    -0.236 N 
ATOM     11  C   UNL d   1     -48.539  14.454  22.582  0.00  0.00     0.266 A 
ATOM     12  C   UNL d   1     -49.315  14.570  22.385  0.00  0.00     0.069 A 
ATOM     13  O   UNL d   1     -48.070  14.859  23.149  0.00  0.00    -0.267 OA
ATOM     14  C   UNL d   1     -49.872  15.105  22.668  0.00  0.00     0.165 A 
ATOM     15  C   UNL d   1     -49.531  14.026  21.787  0.00  0.00     0.069 A 
ATOM     16  C   UNL d   1     -50.642  15.111  22.370  0.00  0.00     0.006 A 
ATOM     17  O   UNL d   1     -49.859  14.449  22.056  0.00  0.00    -0.341 OA
ATOM     18  C   UNL d   1     -50.858  14.567  21.772  0.00  0.00     0.006 A 
ATOM     19  C   UNL d   1     -50.296  14.033  21.491  0.00  0.00     0.165 A 
ATOM     20  C   UNL d   1     -48.885  13.579  21.621  0.00  0.00     0.266 A 
ATOM     21  O   UNL d   1     -48.850  13.068  21.154  0.00  0.00    -0.267 OA
ENDBRANCH   1  10
BRANCH   2  22
ATOM     22  C   UNL d   1     -47.818  12.598  23.249  0.00  0.00     0.302 C 
ATOM     23  O   UNL d   1     -48.027  12.813  23.698  0.00  0.00    -0.259 OA
BRANCH  22  24
ATOM     24  O   UNL d   1     -48.050  11.802  23.087  0.00  0.00    -0.271 OA
BRANCH  24  25
ATOM     25  C   UNL d   1     -48.297  11.337  23.698  0.00  0.00     0.126 C 
ATOM     26  C   UNL d   1     -48.989  10.878  23.584  0.00  0.00     0.029 C 
ENDBRANCH  24  25
ENDBRANCH  22  24
ENDBRANCH   2  22
TORSDOF 4
ENDMDL
MODEL 5
REMARK VINA RESULT:      -6.3      1.429      2.467
REMARK  4 active torsions:
REMARK  status: ('A' for Active; 'I' for Inactive)
REMARK    1  A    between atoms: C_2  and  N_1 
REMARK    2  A    between atoms: C_14  and  C_7 
REMARK    3  A    between atoms: O_20  and  C_14 
REMARK    4  A    between atoms: C_23  and  O_20 
ROOT
ATOM      1  C   UNL d   1     -40.058  15.214  19.083  0.00  0.00     0.105 A 
ATOM      2  C   UNL d   1     -39.677  14.923  18.405  0.00  0.00     0.086 A 
ATOM      3  S   UNL d   1     -40.728  15.628  18.854  0.00  0.00    -0.069 SA
ATOM      4  C   UNL d   1     -40.146  15.180  17.770  0.00  0.00     0.013 A 
ATOM      5  C   UNL d   1     -40.781  15.606  18.046  0.00  0.00     0.031 A 
ATOM      6  C   UNL d   1     -40.074  15.079  16.959  0.00  0.00     0.001 A 
ATOM      7  C   UNL d   1     -41.326  15.922  17.551  0.00  0.00     0.006 A 
ATOM      8  C   UNL d   1     -40.630  15.399  16.436  0.00  0.00     0.000 A 
ATOM      9  C   UNL d   1     -41.257  15.821  16.733  0.00  0.00     0.001 A 
ENDROOT
BRANCH   1  10
ATOM     10  N   UNL d   1     -39.723  15.051  19.834  0.00  0.00    -0.236 N 
ATOM     11  C   UNL d   1     -40.038  14.463  20.312  0.00  0.00     0.266 A 
ATOM     12  C   UNL d   1     -39.588  14.455  20.985  0.00  0.00     0.069 A 
ATOM     13  O   UNL d   1     -40.697  13.983  20.111  0.00  0.00    -0.267 OA
ATOM     14  C   UNL d   1     -39.633  13.990  21.661  0.00  0.00     0.165 A 
ATOM     15  C   UNL d   1     -38.992  15.040  20.924  0.00  0.00     0.069 A 
ATOM     16  C   UNL d   1     -39.097  14.092  22.282  0.00  0.00     0.006 A 
ATOM     17  O   UNL d   1     -39.107  14.656  21.369  0.00  0.00    -0.341 OA
ATOM     18  C   UNL d   1     -38.502  14.678  22.221  0.00  0.00     0.006 A 
ATOM     19  C   UNL d   1     -38.461  15.142  21.541  0.00  0.00     0.165 A 
ATOM     20  C   UNL d   1     -39.081  15.404  20.214  0.00  0.00     0.266 A 
ATOM     21  O   UNL d   1     -38.690  15.919  19.966  0.00  0.00    -0.267 OA
ENDBRANCH   1  10
BRANCH   2  22
ATOM     22  C   UNL d   1     -38.980  14.474  18.364  0.00  0.00     0.302 C 
ATOM     23  O   UNL d   1     -38.479  14.656  18.445  0.00  0.00    -0.259 OA
BRANCH  22  24
ATOM     24  O   UNL d   1     -39.040  13.652  18.179  0.00  0.00    -0.271 OA
BRANCH  24  25
ATOM     25  C   UNL d   1     -38.382  13.260  17.925  0.00  0.00     0.126 C 
ATOM     26  C   UNL d   1     -38.424  12.426  17.864  0.00  0.00     0.029 C 
ENDBRANCH  24  25
ENDBRANCH  22  24
ENDBRANCH   2  22
TORSDOF 4
ENDMDL
MODEL 6
REMARK VINA RESULT:      -6.3      1.569      3.579
REMARK  4 active torsions:
REMARK  status: ('A' for Active; 'I' for Inactive)
REMARK    1  A    between atoms: C_2  and  N_1 
REMARK    2  A    between atoms: C_14  and  C_7 
REMARK    3  A    between atoms: O_20  and  C_14 
REMARK    4  A    between atoms: C_23  and  O_20 
ROOT
ATOM      1  C   UNL d   1     -39.597  14.650  19.672  0.00  0.00     0.105 A 
ATOM      2  C   UNL d   1     -38.926  14.166  19.744  0.00  0.00     0.086 A 
ATOM      3  S   UNL d   1     -39.902  14.795  20.418  0.00  0.00    -0.069 SA
ATOM      4  C   UNL d   1     -38.847  14.032  20.559  0.00  0.00     0.013 A 
ATOM      5  C   UNL d   1     -39.440  14.414  20.964  0.00  0.00     0.031 A 
ATOM      6  C   UNL d   1     -38.301  13.602  20.994  0.00  0.00     0.001 A 
ATOM      7  C   UNL d   1     -39.498  14.379  21.762  0.00  0.00     0.006 A 
ATOM      8  C   UNL d   1     -38.348  13.556  21.819  0.00  0.00     0.000 A 
ATOM      9  C   UNL d   1     -38.949  13.946  22.204  0.00  0.00     0.001 A 
ENDROOT
BRANCH   1  10
ATOM     10  N   UNL d   1     -39.837  14.894  18.906  0.00  0.00    -0.236 N 
ATOM     11  C   UNL d   1     -40.489  14.551  18.544  0.00  0.00     0.266 A 
ATOM     12  C   UNL d   1     -40.561  14.911  17.822  0.00  0.00     0.069 A 
ATOM     13  O   UNL d   1     -40.964  13.948  18.885  0.00  0.00    -0.267 OA
ATOM     14  C   UNL d   1     -41.105  14.804  17.215  0.00  0.00     0.165 A 
ATOM     15  C   UNL d   1     -39.952  15.479  17.737  0.00  0.00     0.069 A 
ATOM     16  C   UNL d   1     -41.058  15.249  16.521  0.00  0.00     0.006 A 
ATOM     17  O   UNL d   1     -40.391  15.328  17.358  0.00  0.00    -0.341 OA
ATOM     18  C   UNL d   1     -40.449  15.817  16.436  0.00  0.00     0.006 A 
ATOM     19  C   UNL d   1     -39.906  15.922  17.048  0.00  0.00     0.165 A 
ATOM     20  C   UNL d   1     -39.510  15.464  18.407  0.00  0.00     0.266 A 
ATOM     21  O   UNL d   1     -38.956  15.858  18.541  0.00  0.00    -0.267 OA
ENDBRANCH   1  10
BRANCH   2  22
ATOM     22  C   UNL d   1     -38.437  13.877  19.139  0.00  0.00     0.302 C 
ATOM     23  O   UNL d   1     -38.083  14.166  18.851  0.00  0.00    -0.259 OA
BRANCH  22  24
ATOM     24  O   UNL d   1     -38.482  13.057  18.940  0.00  0.00    -0.271 OA
BRANCH  24  25
ATOM     25  C   UNL d   1     -37.940  12.750  18.428  0.00  0.00     0.126 C 
ATOM     26  C   UNL d   1     -38.122  12.022  18.057  0.00  0.00     0.029 C 
ENDBRANCH  24  25
ENDBRANCH  22  24
ENDBRANCH   2  22
TORSDOF 4
ENDMDL
MODEL 7
REMARK VINA RESULT:      -6.1      7.979     10.036
REMARK  4 active torsions:
REMARK  status: ('A' for Active; 'I' for Inactive)
REMARK    1  A    between atoms: C_2  and  N_1 
REMARK    2  A    between atoms: C_14  and  C_7 
REMARK    3  A    between atoms: O_20  and  C_14 
REMARK    4  A    between atoms: C_23  and  O_20 
ROOT
ATOM      1  C   UNL d   1     -48.328  12.625  22.929  0.00  0.00     0.105 A 
ATOM      2  C   UNL d   1     -48.944  13.152  22.747  0.00  0.00     0.086 A 
ATOM      3  S   UNL d   1     -48.642  11.971  23.309  0.00  0.00    -0.069 SA
ATOM      4  C   UNL d   1     -49.630  12.784  23.035  0.00  0.00     0.013 A 
ATOM      5  C   UNL d   1     -49.443  12.069  23.374  0.00  0.00     0.031 A 
ATOM      6  C   UNL d   1     -50.418  13.013  23.030  0.00  0.00     0.001 A 
ATOM      7  C   UNL d   1     -50.002  11.595  23.697  0.00  0.00     0.006 A 
ATOM      8  C   UNL d   1     -51.006  12.534  23.361  0.00  0.00     0.000 A 
ATOM      9  C   UNL d   1     -50.798  11.823  23.695  0.00  0.00     0.001 A 
ENDROOT
BRANCH   1  10
ATOM     10  N   UNL d   1     -47.545  12.831  22.711  0.00  0.00    -0.236 N 
ATOM     11  C   UNL d   1     -47.215  12.541  22.017  0.00  0.00     0.266 A 
ATOM     12  C   UNL d   1     -46.465  12.845  21.980  0.00  0.00     0.069 A 
ATOM     13  O   UNL d   1     -47.607  12.031  21.477  0.00  0.00    -0.267 OA
ATOM     14  C   UNL d   1     -45.872  12.754  21.419  0.00  0.00     0.165 A 
ATOM     15  C   UNL d   1     -46.331  13.325  22.652  0.00  0.00     0.069 A 
ATOM     16  C   UNL d   1     -45.142  13.130  21.511  0.00  0.00     0.006 A 
ATOM     17  O   UNL d   1     -45.967  13.197  22.194  0.00  0.00    -0.341 OA
ATOM     18  C   UNL d   1     -45.007  13.610  22.183  0.00  0.00     0.006 A 
ATOM     19  C   UNL d   1     -45.606  13.699  22.743  0.00  0.00     0.165 A 
ATOM     20  C   UNL d   1     -46.998  13.312  23.098  0.00  0.00     0.266 A 
ATOM     21  O   UNL d   1     -47.097  13.645  23.698  0.00  0.00    -0.267 OA
ENDBRANCH   1  10
BRANCH   2  22
ATOM     22  C   UNL d   1     -48.892  13.886  22.364  0.00  0.00     0.302 C 
ATOM     23  O   UNL d   1     -48.802  13.964  21.837  0.00  0.00    -0.259 OA
BRANCH  22  24
ATOM     24  O   UNL d   1     -48.984  14.589  22.822  0.00  0.00    -0.271 OA
BRANCH  24  25
ATOM     25  C   UNL d   1     -49.157  15.281  22.445  0.00  0.00     0.126 C 
ATOM     26  C   UNL d   1     -49.479  15.905  22.902  0.00  0.00     0.029 C 
ENDBRANCH  24  25
ENDBRANCH  22  24
ENDBRANCH   2  22
TORSDOF 4
ENDMDL
MODEL 8
REMARK VINA RESULT:      -5.7      8.005     10.245
REMARK  4 active torsions:
REMARK  status: ('A' for Active; 'I' for Inactive)
REMARK    1  A    between atoms: C_2  and  N_1 
REMARK    2  A    between atoms: C_14  and  C_7 
REMARK    3  A    between atoms: O_20  and  C_14 
REMARK    4  A    between atoms: C_23  and  O_20 
ROOT
ATOM      1  C   UNL d   1     -48.502  14.107  22.416  0.00  0.00     0.105 A 
ATOM      2  C   UNL d   1     -49.004  13.686  22.927  0.00  0.00     0.086 A 
ATOM      3  S   UNL d   1     -48.902  14.762  22.131  0.00  0.00    -0.069 SA
ATOM      4  C   UNL d   1     -49.713  14.118  22.932  0.00  0.00     0.013 A 
ATOM      5  C   UNL d   1     -49.647  14.768  22.449  0.00  0.00     0.031 A 
ATOM      6  C   UNL d   1     -50.425  13.999  23.322  0.00  0.00     0.001 A 
ATOM      7  C   UNL d   1     -50.252  15.284  22.349  0.00  0.00     0.006 A 
ATOM      8  C   UNL d   1     -51.058  14.524  23.229  0.00  0.00     0.000 A 
ATOM      9  C   UNL d   1     -50.971  15.168  22.741  0.00  0.00     0.001 A 
ENDROOT
BRANCH   1  10
ATOM     10  N   UNL d   1     -47.726  13.815  22.285  0.00  0.00    -0.236 N 
ATOM     11  C   UNL d   1     -47.093  14.105  22.719  0.00  0.00     0.266 A 
ATOM     12  C   UNL d   1     -46.438  13.709  22.453  0.00  0.00     0.069 A 
ATOM     13  O   UNL d   1     -47.149  14.696  23.314  0.00  0.00    -0.267 OA
ATOM     14  C   UNL d   1     -45.648  13.759  22.675  0.00  0.00     0.165 A 
ATOM     15  C   UNL d   1     -46.667  13.172  21.853  0.00  0.00     0.069 A 
ATOM     16  C   UNL d   1     -45.077  13.285  22.312  0.00  0.00     0.006 A 
ATOM     17  O   UNL d   1     -46.124  13.282  22.082  0.00  0.00    -0.341 OA
ATOM     18  C   UNL d   1     -45.305  12.749  21.712  0.00  0.00     0.006 A 
ATOM     19  C   UNL d   1     -46.099  12.703  21.493  0.00  0.00     0.165 A 
ATOM     20  C   UNL d   1     -47.461  13.243  21.754  0.00  0.00     0.266 A 
ATOM     21  O   UNL d   1     -47.850  12.887  21.304  0.00  0.00    -0.267 OA
ENDBRANCH   1  10
BRANCH   2  22
ATOM     22  C   UNL d   1     -48.840  12.988  23.344  0.00  0.00     0.302 C 
ATOM     23  O   UNL d   1     -48.438  12.915  23.698  0.00  0.00    -0.259 OA
BRANCH  22  24
ATOM     24  O   UNL d   1     -49.335  12.315  23.218  0.00  0.00    -0.271 OA
BRANCH  24  25
ATOM     25  C   UNL d   1     -49.213  11.652  23.661  0.00  0.00     0.126 C 
ATOM     26  C   UNL d   1     -49.832  11.088  23.697  0.00  0.00     0.029 C 
ENDBRANCH  24  25
ENDBRANCH  22  24
ENDBRANCH   2  22
TORSDOF 4
ENDMDL
MODEL 9
REMARK VINA RESULT:      -5.7      1.224      4.064
REMARK  4 active torsions:
REMARK  status: ('A' for Active; 'I' for Inactive)
REMARK    1  A    between atoms: C_2  and  N_1 
REMARK    2  A    between atoms: C_14  and  C_7 
REMARK    3  A    between atoms: O_20  and  C_14 
REMARK    4  A    between atoms: C_23  and  O_20 
ROOT
ATOM      1  C   UNL d   1     -40.085  15.083  18.784  0.00  0.00     0.105 A 
ATOM      2  C   UNL d   1     -39.740  15.164  19.536  0.00  0.00     0.086 A 
ATOM      3  S   UNL d   1     -40.877  15.287  18.831  0.00  0.00    -0.069 SA
ATOM      4  C   UNL d   1     -40.358  15.423  20.026  0.00  0.00     0.013 A 
ATOM      5  C   UNL d   1     -41.044  15.496  19.595  0.00  0.00     0.031 A 
ATOM      6  C   UNL d   1     -40.385  15.605  20.825  0.00  0.00     0.001 A 
ATOM      7  C   UNL d   1     -41.730  15.737  19.932  0.00  0.00     0.006 A 
ATOM      8  C   UNL d   1     -41.086  15.855  21.186  0.00  0.00     0.000 A 
ATOM      9  C   UNL d   1     -41.761  15.922  20.737  0.00  0.00     0.001 A 
ENDROOT
BRANCH   1  10
ATOM     10  N   UNL d   1     -39.604  14.826  18.147  0.00  0.00    -0.236 N 
ATOM     11  C   UNL d   1     -39.637  14.048  17.886  0.00  0.00     0.266 A 
ATOM     12  C   UNL d   1     -39.110  13.992  17.275  0.00  0.00     0.069 A 
ATOM     13  O   UNL d   1     -40.133  13.454  18.214  0.00  0.00    -0.267 OA
ATOM     14  C   UNL d   1     -38.900  13.357  16.797  0.00  0.00     0.165 A 
ATOM     15  C   UNL d   1     -38.749  14.738  17.155  0.00  0.00     0.069 A 
ATOM     16  C   UNL d   1     -38.337  13.445  16.199  0.00  0.00     0.006 A 
ATOM     17  O   UNL d   1     -38.665  14.221  16.864  0.00  0.00    -0.341 OA
ATOM     18  C   UNL d   1     -37.976  14.191  16.080  0.00  0.00     0.006 A 
ATOM     19  C   UNL d   1     -38.189  14.825  16.562  0.00  0.00     0.165 A 
ATOM     20  C   UNL d   1     -39.057  15.246  17.695  0.00  0.00     0.266 A 
ATOM     21  O   UNL d   1     -38.893  15.916  17.767  0.00  0.00    -0.267 OA
ENDBRANCH   1  10
BRANCH   2  22
ATOM     22  C   UNL d   1     -38.953  15.020  19.755  0.00  0.00     0.302 C 
ATOM     23  O   UNL d   1     -38.529  15.332  19.639  0.00  0.00    -0.259 OA
BRANCH  22  24
ATOM     24  O   UNL d   1     -38.779  14.324  20.202  0.00  0.00    -0.271 OA
BRANCH  24  25
ATOM     25  C   UNL d   1     -38.074  14.277  20.591  0.00  0.00     0.126 C 
ATOM     26  C   UNL d   1     -37.940  13.607  21.075  0.00  0.00     0.029 C 
ENDBRANCH  24  25
ENDBRANCH  22  24
ENDBRANCH   2  22
TORSDOF 4
ENDMDL
