MODEL 1
REMARK VINA RESULT:      -5.4      0.000      0.000
REMARK  4 active torsions:
REMARK  status: ('A' for Active; 'I' for Inactive)
REMARK       I    between atoms: C_3  and  N_7 
REMARK    1  A    between atoms: C_6  and  C_3 
REMARK    2  A    between atoms: C_8  and  C_6 
REMARK    3  A    between atoms: N_7  and  C_9 
REMARK    4  A    between atoms: C_13  and  C_8 
ROOT
ATOM      1  C   UNL d   1      57.396  -0.699  30.999  0.00  0.00     0.279 C 
ATOM      2  N   UNL d   1      57.879  -0.274  30.478  0.00  0.00    -0.207 NA
ATOM      3  O   UNL d   1      57.337  -1.511  30.927  0.00  0.00    -0.265 OA
ENDROOT
BRANCH   1   4
ATOM      4  C   UNL d   1      56.979  -0.298  31.588  0.00  0.00     0.062 C 
BRANCH   4   5
ATOM      5  C   UNL d   1      56.664  -0.712  32.223  0.00  0.00     0.005 C 
BRANCH   5   6
ATOM      6  C   UNL d   1      56.287  -0.316  32.833  0.00  0.00     0.000 A 
ATOM      7  C   UNL d   1      55.491  -0.471  33.000  0.00  0.00     0.000 A 
ATOM      8  C   UNL d   1      55.123  -0.071  33.610  0.00  0.00     0.000 A 
ATOM      9  C   UNL d   1      55.533   0.480  34.057  0.00  0.00     0.000 A 
ATOM     10  C   UNL d   1      56.323   0.636  33.895  0.00  0.00     0.000 A 
ATOM     11  C   UNL d   1      56.705   0.238  33.280  0.00  0.00     0.000 A 
ENDBRANCH   5   6
ENDBRANCH   4   5
ENDBRANCH   1   4
BRANCH   2  12
ATOM     12  C   UNL d   1      58.294  -0.672  29.894  0.00  0.00     0.097 A 
ATOM     13  C   UNL d   1      58.669   0.039  29.703  0.00  0.00     0.118 A 
ATOM     14  S   UNL d   1      59.192  -0.106  29.077  0.00  0.00     0.213 S 
ATOM     15  O   UNL d   1      59.176   0.672  29.342  0.00  0.00    -0.217 OA
ATOM     16  O   UNL d   1      59.691  -0.327  28.455  0.00  0.00    -0.217 OA
ATOM     17  C   UNL d   1      59.139  -0.910  28.882  0.00  0.00     0.100 A 
ATOM     18  C   UNL d   1      58.588  -1.260  29.382  0.00  0.00     0.032 A 
ENDBRANCH   2  12
TORSDOF 4
ENDMDL
MODEL 2
REMARK VINA RESULT:      -4.8      1.868      4.719
REMARK  4 active torsions:
REMARK  status: ('A' for Active; 'I' for Inactive)
REMARK       I    between atoms: C_3  and  N_7 
REMARK    1  A    between atoms: C_6  and  C_3 
REMARK    2  A    between atoms: C_8  and  C_6 
REMARK    3  A    between atoms: N_7  and  C_9 
REMARK    4  A    between atoms: C_13  and  C_8 
ROOT
ATOM      1  C   UNL d   1      57.396  -0.118  31.081  0.00  0.00     0.279 C 
ATOM      2  N   UNL d   1      57.014  -0.562  31.665  0.00  0.00    -0.207 NA
ATOM      3  O   UNL d   1      57.240   0.682  31.012  0.00  0.00    -0.265 OA
ENDROOT
BRANCH   1   4
ATOM      4  C   UNL d   1      57.931  -0.486  30.573  0.00  0.00     0.062 C 
BRANCH   4   5
ATOM      5  C   UNL d   1      58.261  -0.068  29.948  0.00  0.00     0.005 C 
BRANCH   5   6
ATOM      6  C   UNL d   1      58.837  -0.408  29.475  0.00  0.00     0.000 A 
ATOM      7  C   UNL d   1      58.631  -0.989  28.923  0.00  0.00     0.000 A 
ATOM      8  C   UNL d   1      59.213  -1.323  28.455  0.00  0.00     0.000 A 
ATOM      9  C   UNL d   1      59.994  -1.088  28.528  0.00  0.00     0.000 A 
ATOM     10  C   UNL d   1      60.202  -0.513  29.075  0.00  0.00     0.000 A 
ATOM     11  C   UNL d   1      59.623  -0.168  29.553  0.00  0.00     0.000 A 
ENDBRANCH   5   6
ENDBRANCH   4   5
ENDBRANCH   1   4
BRANCH   2  12
ATOM     12  C   UNL d   1      56.481  -0.196  32.170  0.00  0.00     0.097 A 
ATOM     13  C   UNL d   1      56.302  -0.938  32.487  0.00  0.00     0.118 A 
ATOM     14  S   UNL d   1      55.730  -0.834  33.077  0.00  0.00     0.213 S 
ATOM     15  O   UNL d   1      55.966  -1.612  32.957  0.00  0.00    -0.217 OA
ATOM     16  O   UNL d   1      55.162  -0.652  33.651  0.00  0.00    -0.217 OA
ATOM     17  C   UNL d   1      55.558  -0.024  33.125  0.00  0.00     0.100 A 
ATOM     18  C   UNL d   1      56.018   0.370  32.569  0.00  0.00     0.032 A 
ENDBRANCH   2  12
TORSDOF 4
ENDMDL
MODEL 3
REMARK VINA RESULT:      -2.9      9.449      9.843
REMARK  4 active torsions:
REMARK  status: ('A' for Active; 'I' for Inactive)
REMARK       I    between atoms: C_3  and  N_7 
REMARK    1  A    between atoms: C_6  and  C_3 
REMARK    2  A    between atoms: C_8  and  C_6 
REMARK    3  A    between atoms: N_7  and  C_9 
REMARK    4  A    between atoms: C_13  and  C_8 
ROOT
ATOM      1  C   UNL d   1      59.437  -9.734  32.698  0.00  0.00     0.279 C 
ATOM      2  N   UNL d   1      58.673  -9.817  32.393  0.00  0.00    -0.207 NA
ATOM      3  O   UNL d   1      60.072  -9.652  32.188  0.00  0.00    -0.265 OA
ENDROOT
BRANCH   1   4
ATOM      4  C   UNL d   1      59.553  -9.734  33.515  0.00  0.00     0.062 C 
BRANCH   4   5
ATOM      5  C   UNL d   1      60.123  -9.247  33.850  0.00  0.00     0.005 C 
BRANCH   5   6
ATOM      6  C   UNL d   1      60.133  -9.111  34.658  0.00  0.00     0.000 A 
ATOM      7  C   UNL d   1      60.494  -9.655  35.166  0.00  0.00     0.000 A 
ATOM      8  C   UNL d   1      60.500  -9.511  35.971  0.00  0.00     0.000 A 
ATOM      9  C   UNL d   1      60.152  -8.836  36.278  0.00  0.00     0.000 A 
ATOM     10  C   UNL d   1      59.793  -8.294  35.777  0.00  0.00     0.000 A 
ATOM     11  C   UNL d   1      59.781  -8.429  34.962  0.00  0.00     0.000 A 
ENDBRANCH   5   6
ENDBRANCH   4   5
ENDBRANCH   1   4
BRANCH   2  12
ATOM     12  C   UNL d   1      58.558  -9.817  31.581  0.00  0.00     0.097 A 
ATOM     13  C   UNL d   1      57.743  -9.818  31.716  0.00  0.00     0.118 A 
ATOM     14  S   UNL d   1      57.361  -9.818  30.981  0.00  0.00     0.213 S 
ATOM     15  O   UNL d   1      56.859  -9.818  31.633  0.00  0.00    -0.217 OA
ATOM     16  O   UNL d   1      57.051  -9.818  30.213  0.00  0.00    -0.217 OA
ATOM     17  C   UNL d   1      57.943  -9.818  30.391  0.00  0.00     0.100 A 
ATOM     18  C   UNL d   1      58.679  -9.817  30.757  0.00  0.00     0.032 A 
ENDBRANCH   2  12
TORSDOF 4
ENDMDL
MODEL 4
REMARK VINA RESULT:      -2.8      2.788      5.026
REMARK  4 active torsions:
REMARK  status: ('A' for Active; 'I' for Inactive)
REMARK       I    between atoms: C_3  and  N_7 
REMARK    1  A    between atoms: C_6  and  C_3 
REMARK    2  A    between atoms: C_8  and  C_6 
REMARK    3  A    between atoms: N_7  and  C_9 
REMARK    4  A    between atoms: C_13  and  C_8 
ROOT
ATOM      1  C   UNL d   1      56.969   0.669  33.080  0.00  0.00     0.279 C 
ATOM      2  N   UNL d   1      56.162   0.657  33.261  0.00  0.00    -0.207 NA
ATOM      3  O   UNL d   1      57.521   0.681  33.684  0.00  0.00    -0.265 OA
ENDROOT
BRANCH   1   4
ATOM      4  C   UNL d   1      57.211   0.669  32.291  0.00  0.00     0.062 C 
BRANCH   4   5
ATOM      5  C   UNL d   1      57.719   0.085  32.016  0.00  0.00     0.005 C 
BRANCH   5   6
ATOM      6  C   UNL d   1      57.914   0.042  31.222  0.00  0.00     0.000 A 
ATOM      7  C   UNL d   1      58.344   0.653  30.865  0.00  0.00     0.000 A 
ATOM      8  C   UNL d   1      58.535   0.601  30.072  0.00  0.00     0.000 A 
ATOM      9  C   UNL d   1      58.304  -0.047  29.628  0.00  0.00     0.000 A 
ATOM     10  C   UNL d   1      57.877  -0.655  29.977  0.00  0.00     0.000 A 
ATOM     11  C   UNL d   1      57.679  -0.613  30.779  0.00  0.00     0.000 A 
ENDBRANCH   5   6
ENDBRANCH   4   5
ENDBRANCH   1   4
BRANCH   2  12
ATOM     12  C   UNL d   1      55.922   0.657  34.045  0.00  0.00     0.097 A 
ATOM     13  C   UNL d   1      55.138   0.668  33.784  0.00  0.00     0.118 A 
ATOM     14  S   UNL d   1      54.646   0.672  34.451  0.00  0.00     0.213 S 
ATOM     15  O   UNL d   1      54.252   0.680  33.729  0.00  0.00    -0.217 OA
ATOM     16  O   UNL d   1      54.220   0.675  35.161  0.00  0.00    -0.217 OA
ATOM     17  C   UNL d   1      55.129   0.663  35.124  0.00  0.00     0.100 A 
ATOM     18  C   UNL d   1      55.913   0.654  34.878  0.00  0.00     0.032 A 
ENDBRANCH   2  12
TORSDOF 4
ENDMDL
MODEL 5
REMARK VINA RESULT:      -2.6      9.523      9.820
REMARK  4 active torsions:
REMARK  status: ('A' for Active; 'I' for Inactive)
REMARK       I    between atoms: C_3  and  N_7 
REMARK    1  A    between atoms: C_6  and  C_3 
REMARK    2  A    between atoms: C_8  and  C_6 
REMARK    3  A    between atoms: N_7  and  C_9 
REMARK    4  A    between atoms: C_13  and  C_8 
ROOT
ATOM      1  C   UNL d   1      58.111  -9.816  32.179  0.00  0.00     0.279 C 
ATOM      2  N   UNL d   1      58.136  -9.818  31.352  0.00  0.00    -0.207 NA
ATOM      3  O   UNL d   1      57.389  -9.813  32.564  0.00  0.00    -0.265 OA
ENDROOT
BRANCH   1   4
ATOM      4  C   UNL d   1      58.815  -9.817  32.609  0.00  0.00     0.062 C 
BRANCH   4   5
ATOM      5  C   UNL d   1      58.852  -9.446  33.341  0.00  0.00     0.005 C 
BRANCH   5   6
ATOM      6  C   UNL d   1      59.564  -9.377  33.738  0.00  0.00     0.000 A 
ATOM      7  C   UNL d   1      60.234  -9.777  33.464  0.00  0.00     0.000 A 
ATOM      8  C   UNL d   1      60.941  -9.702  33.868  0.00  0.00     0.000 A 
ATOM      9  C   UNL d   1      60.992  -9.235  34.539  0.00  0.00     0.000 A 
ATOM     10  C   UNL d   1      60.330  -8.835  34.814  0.00  0.00     0.000 A 
ATOM     11  C   UNL d   1      59.610  -8.904  34.414  0.00  0.00     0.000 A 
ENDBRANCH   5   6
ENDBRANCH   4   5
ENDBRANCH   1   4
BRANCH   2  12
ATOM     12  C   UNL d   1      57.436  -9.817  30.925  0.00  0.00     0.097 A 
ATOM     13  C   UNL d   1      57.884  -9.809  30.230  0.00  0.00     0.118 A 
ATOM     14  S   UNL d   1      57.360  -9.805  29.588  0.00  0.00     0.213 S 
ATOM     15  O   UNL d   1      58.158  -9.800  29.386  0.00  0.00    -0.217 OA
ATOM     16  O   UNL d   1      56.779  -9.802  28.999  0.00  0.00    -0.217 OA
ATOM     17  C   UNL d   1      56.588  -9.810  29.888  0.00  0.00     0.100 A 
ATOM     18  C   UNL d   1      56.632  -9.818  30.709  0.00  0.00     0.032 A 
ENDBRANCH   2  12
TORSDOF 4
ENDMDL
