MODEL 1
REMARK VINA RESULT:      21.2      0.000      0.000
REMARK  4 active torsions:
REMARK  status: ('A' for Active; 'I' for Inactive)
REMARK    1  A    between atoms: C_2  and  S_1 
REMARK    2  A    between atoms: N_3  and  S_1 
REMARK    3  A    between atoms: C_18  and  N_8 
REMARK    4  A    between atoms: C_21  and  C_18 
ROOT
ATOM      1  S   UNL d   1      45.621 -15.715  44.324  0.00  0.00     0.271 S 
ATOM      2  O   UNL d   1      46.151 -15.637  44.952  0.00  0.00    -0.200 OA
ATOM      3  O   UNL d   1      45.091 -15.790  43.697  0.00  0.00    -0.200 OA
ENDROOT
BRANCH   1   4
ATOM      4  C   UNL d   1      45.398 -14.925  44.403  0.00  0.00     0.104 A 
ATOM      5  C   UNL d   1      44.650 -14.738  44.721  0.00  0.00     0.012 A 
ATOM      6  C   UNL d   1      44.419 -13.950  44.803  0.00  0.00     0.001 A 
ATOM      7  C   UNL d   1      44.139 -15.344  44.954  0.00  0.00     0.001 C 
ATOM      8  C   UNL d   1      44.933 -13.351  44.569  0.00  0.00     0.000 A 
ATOM      9  C   UNL d   1      45.676 -13.535  44.253  0.00  0.00     0.001 A 
ATOM     10  C   UNL d   1      44.706 -12.562  44.649  0.00  0.00     0.000 C 
ATOM     11  C   UNL d   1      45.904 -14.325  44.172  0.00  0.00     0.012 A 
ATOM     12  C   UNL d   1      46.645 -14.506  43.857  0.00  0.00     0.001 C 
ENDBRANCH   1   4
BRANCH   1  13
ATOM     13  N   UNL d   1      45.836 -16.507  44.236  0.00  0.00    -0.226 N 
ATOM     14  C   UNL d   1      45.901 -16.991  44.904  0.00  0.00     0.111 A 
ATOM     15  C   UNL d   1      46.116 -17.783  44.816  0.00  0.00     0.100 A 
ATOM     16  N   UNL d   1      46.266 -18.091  44.067  0.00  0.00    -0.297 N 
ATOM     17  C   UNL d   1      46.200 -17.603  43.400  0.00  0.00     0.100 A 
ATOM     18  C   UNL d   1      45.985 -16.811  43.480  0.00  0.00     0.111 A 
BRANCH  16  19
ATOM     19  C   UNL d   1      46.481 -18.883  43.984  0.00  0.00     0.126 C 
BRANCH  19  20
ATOM     20  C   UNL d   1      46.173 -19.333  43.366  0.00  0.00     0.253 C 
ATOM     21  O   UNL d   1      46.179 -20.157  43.409  0.00  0.00    -0.281 OA
ENDBRANCH  19  20
ENDBRANCH  16  19
ENDBRANCH   1  13
TORSDOF 4
ENDMDL
