MODEL 1
REMARK VINA RESULT:      -4.9      0.000      0.000
REMARK  3 active torsions:
REMARK  status: ('A' for Active; 'I' for Inactive)
REMARK    1  A    between atoms: S_10  and  C_6 
REMARK    2  A    between atoms: C_13  and  S_10 
REMARK    3  A    between atoms: C_14  and  C_13 
ROOT
ATOM      1  C   UNL d   1      57.446  -0.739  30.933  0.00  0.00     0.141 A 
ATOM      2  O   UNL d   1      57.051  -1.323  31.361  0.00  0.00    -0.303 OA
ATOM      3  C   UNL d   1      57.248  -0.004  31.256  0.00  0.00     0.110 A 
ATOM      4  C   UNL d   1      56.731  -0.135  31.882  0.00  0.00     0.043 A 
ATOM      5  C   UNL d   1      56.606  -0.948  31.951  0.00  0.00     0.102 A 
ATOM      6  C   UNL d   1      57.959  -0.784  30.294  0.00  0.00     0.137 A 
ATOM      7  N   UNL d   1      58.280  -0.090  29.970  0.00  0.00    -0.215 NA
ATOM      8  N   UNL d   1      57.569   0.681  30.932  0.00  0.00    -0.222 NA
ATOM      9  C   UNL d   1      58.082   0.637  30.292  0.00  0.00     0.200 A 
ATOM     10  C   UNL d   1      56.355   0.390  32.402  0.00  0.00     0.004 A 
ATOM     11  C   UNL d   1      56.105  -1.244  32.540  0.00  0.00     0.025 A 
ATOM     12  C   UNL d   1      55.854   0.093  32.991  0.00  0.00     0.000 A 
ATOM     13  C   UNL d   1      55.732  -0.718  33.057  0.00  0.00     0.002 A 
ENDROOT
BRANCH   6  14
ATOM     14  S   UNL d   1      58.163  -1.518  29.964  0.00  0.00    -0.065 SA
BRANCH  14  15
ATOM     15  C   UNL d   1      58.810  -1.570  29.453  0.00  0.00     0.037 C 
BRANCH  15  16
ATOM     16  C   UNL d   1      58.950  -2.265  29.034  0.00  0.00     0.007 C 
ATOM     17  C   UNL d   1      59.725  -2.487  28.868  0.00  0.00     0.001 C 
ENDBRANCH  15  16
ENDBRANCH  14  15
ENDBRANCH   6  14
TORSDOF 3
ENDMDL
MODEL 2
REMARK VINA RESULT:      -4.3      1.984      4.274
REMARK  3 active torsions:
REMARK  status: ('A' for Active; 'I' for Inactive)
REMARK    1  A    between atoms: S_10  and  C_6 
REMARK    2  A    between atoms: C_13  and  S_10 
REMARK    3  A    between atoms: C_14  and  C_13 
ROOT
ATOM      1  C   UNL d   1      56.342  -0.167  32.513  0.00  0.00     0.141 A 
ATOM      2  O   UNL d   1      56.700   0.503  32.190  0.00  0.00    -0.303 OA
ATOM      3  C   UNL d   1      56.570  -0.823  32.063  0.00  0.00     0.110 A 
ATOM      4  C   UNL d   1      57.068  -0.558  31.465  0.00  0.00     0.043 A 
ATOM      5  C   UNL d   1      57.152   0.260  31.539  0.00  0.00     0.102 A 
ATOM      6  C   UNL d   1      55.840  -0.262  33.154  0.00  0.00     0.137 A 
ATOM      7  N   UNL d   1      55.560  -1.017  33.354  0.00  0.00    -0.215 NA
ATOM      8  N   UNL d   1      56.290  -1.570  32.265  0.00  0.00    -0.222 NA
ATOM      9  C   UNL d   1      55.788  -1.665  32.907  0.00  0.00     0.200 A 
ATOM     10  C   UNL d   1      57.460  -0.962  30.857  0.00  0.00     0.004 A 
ATOM     11  C   UNL d   1      57.627   0.681  31.007  0.00  0.00     0.025 A 
ATOM     12  C   UNL d   1      57.935  -0.541  30.325  0.00  0.00     0.000 A 
ATOM     13  C   UNL d   1      58.016   0.274  30.402  0.00  0.00     0.002 A 
ENDROOT
BRANCH   6  14
ATOM     14  S   UNL d   1      55.606   0.392  33.610  0.00  0.00    -0.065 SA
BRANCH  14  15
ATOM     15  C   UNL d   1      55.126   0.276  34.273  0.00  0.00     0.037 C 
BRANCH  15  16
ATOM     16  C   UNL d   1      55.307   0.650  34.984  0.00  0.00     0.007 C 
ATOM     17  C   UNL d   1      54.740   0.682  35.579  0.00  0.00     0.001 C 
ENDBRANCH  15  16
ENDBRANCH  14  15
ENDBRANCH   6  14
TORSDOF 3
ENDMDL
MODEL 3
REMARK VINA RESULT:      -3.9      0.830      3.626
REMARK  3 active torsions:
REMARK  status: ('A' for Active; 'I' for Inactive)
REMARK    1  A    between atoms: S_10  and  C_6 
REMARK    2  A    between atoms: C_13  and  S_10 
REMARK    3  A    between atoms: C_14  and  C_13 
ROOT
ATOM      1  C   UNL d   1      57.801  -0.933  30.581  0.00  0.00     0.141 A 
ATOM      2  O   UNL d   1      57.811  -1.720  30.334  0.00  0.00    -0.303 OA
ATOM      3  C   UNL d   1      58.317  -0.504  30.096  0.00  0.00     0.110 A 
ATOM      4  C   UNL d   1      58.644  -1.026  29.552  0.00  0.00     0.043 A 
ATOM      5  C   UNL d   1      58.335  -1.779  29.693  0.00  0.00     0.102 A 
ATOM      6  C   UNL d   1      57.391  -0.556  31.182  0.00  0.00     0.137 A 
ATOM      7  N   UNL d   1      57.492   0.259  31.305  0.00  0.00    -0.215 NA
ATOM      8  N   UNL d   1      58.414   0.303  30.222  0.00  0.00    -0.222 NA
ATOM      9  C   UNL d   1      58.003   0.682  30.824  0.00  0.00     0.200 A 
ATOM     10  C   UNL d   1      59.189  -0.910  28.938  0.00  0.00     0.004 A 
ATOM     11  C   UNL d   1      58.568  -2.421  29.225  0.00  0.00     0.025 A 
ATOM     12  C   UNL d   1      59.421  -1.551  28.470  0.00  0.00     0.000 A 
ATOM     13  C   UNL d   1      59.111  -2.300  28.615  0.00  0.00     0.002 A 
ENDROOT
BRANCH   6  14
ATOM     14  S   UNL d   1      56.872  -0.979  31.673  0.00  0.00    -0.065 SA
BRANCH  14  15
ATOM     15  C   UNL d   1      56.467  -0.585  32.275  0.00  0.00     0.037 C 
BRANCH  15  16
ATOM     16  C   UNL d   1      55.958  -1.001  32.772  0.00  0.00     0.007 C 
ATOM     17  C   UNL d   1      55.485  -0.587  33.303  0.00  0.00     0.001 C 
ENDBRANCH  15  16
ENDBRANCH  14  15
ENDBRANCH   6  14
TORSDOF 3
ENDMDL
MODEL 4
REMARK VINA RESULT:      -3.6      2.018      2.919
REMARK  3 active torsions:
REMARK  status: ('A' for Active; 'I' for Inactive)
REMARK    1  A    between atoms: S_10  and  C_6 
REMARK    2  A    between atoms: C_13  and  S_10 
REMARK    3  A    between atoms: C_14  and  C_13 
ROOT
ATOM      1  C   UNL d   1      56.511   0.675  33.032  0.00  0.00     0.141 A 
ATOM      2  O   UNL d   1      55.713   0.675  32.823  0.00  0.00    -0.303 OA
ATOM      3  C   UNL d   1      56.562   0.677  33.858  0.00  0.00     0.110 A 
ATOM      4  C   UNL d   1      55.796   0.678  34.157  0.00  0.00     0.043 A 
ATOM      5  C   UNL d   1      55.268   0.677  33.523  0.00  0.00     0.102 A 
ATOM      6  C   UNL d   1      57.194   0.673  32.578  0.00  0.00     0.137 A 
ATOM      7  N   UNL d   1      57.938   0.673  32.946  0.00  0.00    -0.215 NA
ATOM      8  N   UNL d   1      57.302   0.677  34.219  0.00  0.00    -0.222 NA
ATOM      9  C   UNL d   1      57.985   0.675  33.764  0.00  0.00     0.200 A 
ATOM     10  C   UNL d   1      55.511   0.681  34.936  0.00  0.00     0.004 A 
ATOM     11  C   UNL d   1      54.451   0.679  33.659  0.00  0.00     0.025 A 
ATOM     12  C   UNL d   1      54.695   0.682  35.072  0.00  0.00     0.000 A 
ATOM     13  C   UNL d   1      54.171   0.681  34.437  0.00  0.00     0.002 A 
ENDROOT
BRANCH   6  14
ATOM     14  S   UNL d   1      57.152   0.671  31.748  0.00  0.00    -0.065 SA
BRANCH  14  15
ATOM     15  C   UNL d   1      57.845   0.602  31.305  0.00  0.00     0.037 C 
BRANCH  15  16
ATOM     16  C   UNL d   1      57.820   0.674  30.484  0.00  0.00     0.007 C 
ATOM     17  C   UNL d   1      58.332   0.223  30.023  0.00  0.00     0.001 C 
ENDBRANCH  15  16
ENDBRANCH  14  15
ENDBRANCH   6  14
TORSDOF 3
ENDMDL
MODEL 5
REMARK VINA RESULT:      -3.5      9.040      9.276
REMARK  3 active torsions:
REMARK  status: ('A' for Active; 'I' for Inactive)
REMARK    1  A    between atoms: S_10  and  C_6 
REMARK    2  A    between atoms: C_13  and  S_10 
REMARK    3  A    between atoms: C_14  and  C_13 
ROOT
ATOM      1  C   UNL d   1      59.738  -9.059  34.094  0.00  0.00     0.141 A 
ATOM      2  O   UNL d   1      59.202  -8.785  34.658  0.00  0.00    -0.303 OA
ATOM      3  C   UNL d   1      60.489  -8.774  34.292  0.00  0.00     0.110 A 
ATOM      4  C   UNL d   1      60.416  -8.325  34.977  0.00  0.00     0.043 A 
ATOM      5  C   UNL d   1      59.623  -8.328  35.208  0.00  0.00     0.102 A 
ATOM      6  C   UNL d   1      59.638  -9.528  33.429  0.00  0.00     0.137 A 
ATOM      7  N   UNL d   1      60.291  -9.719  32.953  0.00  0.00    -0.215 NA
ATOM      8  N   UNL d   1      61.133  -8.966  33.817  0.00  0.00    -0.222 NA
ATOM      9  C   UNL d   1      61.033  -9.436  33.152  0.00  0.00     0.200 A 
ATOM     10  C   UNL d   1      60.977  -7.910  35.424  0.00  0.00     0.004 A 
ATOM     11  C   UNL d   1      59.383  -7.918  35.885  0.00  0.00     0.025 A 
ATOM     12  C   UNL d   1      60.737  -7.500  36.102  0.00  0.00     0.000 A 
ATOM     13  C   UNL d   1      59.946  -7.506  36.329  0.00  0.00     0.002 A 
ENDROOT
BRANCH   6  14
ATOM     14  S   UNL d   1      58.887  -9.818  33.223  0.00  0.00    -0.065 SA
BRANCH  14  15
ATOM     15  C   UNL d   1      58.653  -9.816  32.431  0.00  0.00     0.037 C 
BRANCH  15  16
ATOM     16  C   UNL d   1      57.855  -9.746  32.236  0.00  0.00     0.007 C 
ATOM     17  C   UNL d   1      57.637  -9.685  31.445  0.00  0.00     0.001 C 
ENDBRANCH  15  16
ENDBRANCH  14  15
ENDBRANCH   6  14
TORSDOF 3
ENDMDL
MODEL 6
REMARK VINA RESULT:      -3.2      1.914      3.928
REMARK  3 active torsions:
REMARK  status: ('A' for Active; 'I' for Inactive)
REMARK    1  A    between atoms: S_10  and  C_6 
REMARK    2  A    between atoms: C_13  and  S_10 
REMARK    3  A    between atoms: C_14  and  C_13 
ROOT
ATOM      1  C   UNL d   1      57.267   0.431  31.811  0.00  0.00     0.141 A 
ATOM      2  O   UNL d   1      56.965   0.329  31.050  0.00  0.00    -0.303 OA
ATOM      3  C   UNL d   1      58.083   0.557  31.750  0.00  0.00     0.110 A 
ATOM      4  C   UNL d   1      58.282   0.534  30.953  0.00  0.00     0.043 A 
ATOM      5  C   UNL d   1      57.596   0.393  30.516  0.00  0.00     0.102 A 
ATOM      6  C   UNL d   1      56.906   0.424  32.547  0.00  0.00     0.137 A 
ATOM      7  N   UNL d   1      57.357   0.544  33.233  0.00  0.00    -0.215 NA
ATOM      8  N   UNL d   1      58.526   0.676  32.433  0.00  0.00    -0.222 NA
ATOM      9  C   UNL d   1      58.164   0.669  33.170  0.00  0.00     0.200 A 
ATOM     10  C   UNL d   1      59.010   0.624  30.566  0.00  0.00     0.004 A 
ATOM     11  C   UNL d   1      57.630   0.341  29.690  0.00  0.00     0.025 A 
ATOM     12  C   UNL d   1      59.044   0.572  29.741  0.00  0.00     0.000 A 
ATOM     13  C   UNL d   1      58.358   0.432  29.309  0.00  0.00     0.002 A 
ENDROOT
BRANCH   6  14
ATOM     14  S   UNL d   1      56.088   0.297  32.616  0.00  0.00    -0.065 SA
BRANCH  14  15
ATOM     15  C   UNL d   1      55.701   0.506  33.315  0.00  0.00     0.037 C 
BRANCH  15  16
ATOM     16  C   UNL d   1      54.910   0.302  33.427  0.00  0.00     0.007 C 
ATOM     17  C   UNL d   1      54.474   0.682  34.013  0.00  0.00     0.001 C 
ENDBRANCH  15  16
ENDBRANCH  14  15
ENDBRANCH   6  14
TORSDOF 3
ENDMDL
MODEL 7
REMARK VINA RESULT:      -2.9      1.357      3.968
REMARK  3 active torsions:
REMARK  status: ('A' for Active; 'I' for Inactive)
REMARK    1  A    between atoms: S_10  and  C_6 
REMARK    2  A    between atoms: C_13  and  S_10 
REMARK    3  A    between atoms: C_14  and  C_13 
ROOT
ATOM      1  C   UNL d   1      58.814  -0.743  29.645  0.00  0.00     0.141 A 
ATOM      2  O   UNL d   1      58.430  -1.471  29.596  0.00  0.00    -0.303 OA
ATOM      3  C   UNL d   1      59.562  -0.822  29.300  0.00  0.00     0.110 A 
ATOM      4  C   UNL d   1      59.638  -1.598  29.039  0.00  0.00     0.043 A 
ATOM      5  C   UNL d   1      58.942  -2.004  29.219  0.00  0.00     0.102 A 
ATOM      6  C   UNL d   1      58.580  -0.023  29.959  0.00  0.00     0.137 A 
ATOM      7  N   UNL d   1      59.093   0.629  29.930  0.00  0.00    -0.215 NA
ATOM      8  N   UNL d   1      60.067  -0.173  29.274  0.00  0.00    -0.222 NA
ATOM      9  C   UNL d   1      59.832   0.548  29.588  0.00  0.00     0.200 A 
ATOM     10  C   UNL d   1      60.260  -1.990  28.655  0.00  0.00     0.004 A 
ATOM     11  C   UNL d   1      58.860  -2.803  29.018  0.00  0.00     0.025 A 
ATOM     12  C   UNL d   1      60.178  -2.789  28.455  0.00  0.00     0.000 A 
ATOM     13  C   UNL d   1      59.482  -3.190  28.636  0.00  0.00     0.002 A 
ENDROOT
BRANCH   6  14
ATOM     14  S   UNL d   1      57.831   0.065  30.307  0.00  0.00    -0.065 SA
BRANCH  14  15
ATOM     15  C   UNL d   1      57.749   0.525  30.988  0.00  0.00     0.037 C 
BRANCH  15  16
ATOM     16  C   UNL d   1      57.005   0.638  31.324  0.00  0.00     0.007 C 
ATOM     17  C   UNL d   1      56.927   0.630  32.144  0.00  0.00     0.001 C 
ENDBRANCH  15  16
ENDBRANCH  14  15
ENDBRANCH   6  14
TORSDOF 3
ENDMDL
MODEL 8
REMARK VINA RESULT:      -2.1      1.500      3.879
REMARK  3 active torsions:
REMARK  status: ('A' for Active; 'I' for Inactive)
REMARK    1  A    between atoms: S_10  and  C_6 
REMARK    2  A    between atoms: C_13  and  S_10 
REMARK    3  A    between atoms: C_14  and  C_13 
ROOT
ATOM      1  C   UNL d   1      57.718  -0.021  31.192  0.00  0.00     0.141 A 
ATOM      2  O   UNL d   1      58.240   0.571  30.952  0.00  0.00    -0.303 OA
ATOM      3  C   UNL d   1      57.751  -0.635  30.638  0.00  0.00     0.110 A 
ATOM      4  C   UNL d   1      58.292  -0.421  30.058  0.00  0.00     0.043 A 
ATOM      5  C   UNL d   1      58.597   0.323  30.246  0.00  0.00     0.102 A 
ATOM      6  C   UNL d   1      57.220  -0.078  31.841  0.00  0.00     0.137 A 
ATOM      7  N   UNL d   1      56.747  -0.753  31.944  0.00  0.00    -0.215 NA
ATOM      8  N   UNL d   1      57.281  -1.302  30.744  0.00  0.00    -0.222 NA
ATOM      9  C   UNL d   1      56.782  -1.359  31.394  0.00  0.00     0.200 A 
ATOM     10  C   UNL d   1      58.549  -0.814  29.374  0.00  0.00     0.004 A 
ATOM     11  C   UNL d   1      59.160   0.680  29.755  0.00  0.00     0.025 A 
ATOM     12  C   UNL d   1      59.111  -0.457  28.884  0.00  0.00     0.000 A 
ATOM     13  C   UNL d   1      59.413   0.285  29.075  0.00  0.00     0.002 A 
ENDROOT
BRANCH   6  14
ATOM     14  S   UNL d   1      57.181   0.534  32.401  0.00  0.00    -0.065 SA
BRANCH  14  15
ATOM     15  C   UNL d   1      56.748   0.423  33.097  0.00  0.00     0.037 C 
BRANCH  15  16
ATOM     16  C   UNL d   1      57.051   0.682  33.817  0.00  0.00     0.007 C 
ATOM     17  C   UNL d   1      56.577   0.651  34.490  0.00  0.00     0.001 C 
ENDBRANCH  15  16
ENDBRANCH  14  15
ENDBRANCH   6  14
TORSDOF 3
ENDMDL
MODEL 9
REMARK VINA RESULT:      -1.9      9.053      9.415
REMARK  3 active torsions:
REMARK  status: ('A' for Active; 'I' for Inactive)
REMARK    1  A    between atoms: S_10  and  C_6 
REMARK    2  A    between atoms: C_13  and  S_10 
REMARK    3  A    between atoms: C_14  and  C_13 
ROOT
ATOM      1  C   UNL d   1      59.389  -9.647  32.189  0.00  0.00     0.141 A 
ATOM      2  O   UNL d   1      58.857  -9.582  32.815  0.00  0.00    -0.303 OA
ATOM      3  C   UNL d   1      60.156  -9.589  32.495  0.00  0.00     0.110 A 
ATOM      4  C   UNL d   1      60.095  -9.489  33.309  0.00  0.00     0.043 A 
ATOM      5  C   UNL d   1      59.295  -9.484  33.513  0.00  0.00     0.102 A 
ATOM      6  C   UNL d   1      59.274  -9.750  31.384  0.00  0.00     0.137 A 
ATOM      7  N   UNL d   1      59.928  -9.797  30.874  0.00  0.00    -0.215 NA
ATOM      8  N   UNL d   1      60.800  -9.637  31.986  0.00  0.00    -0.222 NA
ATOM      9  C   UNL d   1      60.685  -9.740  31.179  0.00  0.00     0.200 A 
ATOM     10  C   UNL d   1      60.674  -9.401  33.896  0.00  0.00     0.004 A 
ATOM     11  C   UNL d   1      59.065  -9.391  34.302  0.00  0.00     0.025 A 
ATOM     12  C   UNL d   1      60.444  -9.308  34.686  0.00  0.00     0.000 A 
ATOM     13  C   UNL d   1      59.645  -9.303  34.885  0.00  0.00     0.002 A 
ENDROOT
BRANCH   6  14
ATOM     14  S   UNL d   1      58.508  -9.809  31.068  0.00  0.00    -0.065 SA
BRANCH  14  15
ATOM     15  C   UNL d   1      58.404  -9.817  30.249  0.00  0.00     0.037 C 
BRANCH  15  16
ATOM     16  C   UNL d   1      57.645  -9.803  29.929  0.00  0.00     0.007 C 
ATOM     17  C   UNL d   1      57.466  -9.257  29.339  0.00  0.00     0.001 C 
ENDBRANCH  15  16
ENDBRANCH  14  15
ENDBRANCH   6  14
TORSDOF 3
ENDMDL
