MODEL 1
REMARK VINA RESULT:     -10.0      0.000      0.000
REMARK  2 active torsions:
REMARK  status: ('A' for Active; 'I' for Inactive)
REMARK       I    between atoms: C_6  and  N_7 
REMARK    1  A    between atoms: C_9  and  C_6 
REMARK    2  A    between atoms: N_7  and  C_13 
ROOT
ATOM      1  N   UNL d   1      50.744  33.896  52.572  0.00  0.00    -0.169 NA
ATOM      2  C   UNL d   1      50.932  33.907  53.371  0.00  0.00     0.282 A 
ATOM      3  C   UNL d   1      51.394  34.166  52.153  0.00  0.00     0.282 A 
ATOM      4  C   UNL d   1      51.710  34.189  53.446  0.00  0.00     0.064 A 
ATOM      5  C   UNL d   1      51.986  34.346  52.692  0.00  0.00     0.063 A 
ATOM      6  C   UNL d   1      52.754  34.636  52.593  0.00  0.00     0.006 A 
ATOM      7  C   UNL d   1      52.185  34.316  54.110  0.00  0.00     0.024 A 
ATOM      8  O   UNL d   1      50.425  33.675  53.977  0.00  0.00    -0.265 OA
ATOM      9  O   UNL d   1      51.451  34.247  51.334  0.00  0.00    -0.265 OA
ATOM     10  C   UNL d   1      52.946  34.604  54.010  0.00  0.00     0.085 A 
ATOM     11  C   UNL d   1      53.235  34.766  53.250  0.00  0.00     0.019 A 
ENDROOT
BRANCH  10  12
ATOM     12  N   UNL d   1      53.422  34.731  54.673  0.00  0.00    -0.208 NA
ATOM     13  C   UNL d   1      53.943  34.147  54.921  0.00  0.00     0.279 C 
ATOM     14  O   UNL d   1      54.414  34.277  55.581  0.00  0.00    -0.265 OA
BRANCH  13  15
ATOM     15  C   UNL d   1      53.995  33.439  54.517  0.00  0.00     0.058 A 
ATOM     16  C   UNL d   1      53.561  32.788  54.784  0.00  0.00     0.005 A 
ATOM     17  C   UNL d   1      53.606  32.072  54.387  0.00  0.00     0.000 A 
ATOM     18  C   UNL d   1      54.089  31.999  53.712  0.00  0.00     0.000 A 
ATOM     19  C   UNL d   1      54.520  32.653  53.448  0.00  0.00     0.000 A 
ATOM     20  C   UNL d   1      54.139  31.277  53.304  0.00  0.00     0.000 C 
ATOM     21  C   UNL d   1      54.468  33.367  53.855  0.00  0.00     0.005 A 
ENDBRANCH  13  15
ENDBRANCH  10  12
TORSDOF 2
ENDMDL
MODEL 2
REMARK VINA RESULT:      -9.5      1.664      3.583
REMARK  2 active torsions:
REMARK  status: ('A' for Active; 'I' for Inactive)
REMARK       I    between atoms: C_6  and  N_7 
REMARK    1  A    between atoms: C_9  and  C_6 
REMARK    2  A    between atoms: N_7  and  C_13 
ROOT
ATOM      1  N   UNL d   1      54.874  33.610  55.695  0.00  0.00    -0.169 NA
ATOM      2  C   UNL d   1      54.377  32.960  55.623  0.00  0.00     0.282 A 
ATOM      3  C   UNL d   1      55.119  33.828  54.944  0.00  0.00     0.282 A 
ATOM      4  C   UNL d   1      54.315  32.775  54.816  0.00  0.00     0.064 A 
ATOM      5  C   UNL d   1      54.775  33.313  54.406  0.00  0.00     0.063 A 
ATOM      6  C   UNL d   1      54.821  33.264  53.582  0.00  0.00     0.006 A 
ATOM      7  C   UNL d   1      53.896  32.183  54.420  0.00  0.00     0.024 A 
ATOM      8  O   UNL d   1      54.012  32.574  56.253  0.00  0.00    -0.265 OA
ATOM      9  O   UNL d   1      55.624  34.452  54.756  0.00  0.00    -0.265 OA
ATOM     10  C   UNL d   1      53.943  32.136  53.602  0.00  0.00     0.085 A 
ATOM     11  C   UNL d   1      54.406  32.676  53.178  0.00  0.00     0.019 A 
ENDROOT
BRANCH  10  12
ATOM     12  N   UNL d   1      53.524  31.544  53.206  0.00  0.00    -0.208 NA
ATOM     13  C   UNL d   1      52.787  31.710  52.884  0.00  0.00     0.279 C 
ATOM     14  O   UNL d   1      52.374  31.119  52.491  0.00  0.00    -0.265 OA
BRANCH  13  15
ATOM     15  C   UNL d   1      52.463  32.456  52.953  0.00  0.00     0.058 A 
ATOM     16  C   UNL d   1      51.914  32.605  53.553  0.00  0.00     0.005 A 
ATOM     17  C   UNL d   1      51.582  33.351  53.632  0.00  0.00     0.000 A 
ATOM     18  C   UNL d   1      51.798  33.961  53.107  0.00  0.00     0.000 A 
ATOM     19  C   UNL d   1      52.347  33.808  52.509  0.00  0.00     0.000 A 
ATOM     20  C   UNL d   1      51.465  34.720  53.181  0.00  0.00     0.000 C 
ATOM     21  C   UNL d   1      52.674  33.056  52.439  0.00  0.00     0.005 A 
ENDBRANCH  13  15
ENDBRANCH  10  12
TORSDOF 2
ENDMDL
MODEL 3
REMARK VINA RESULT:      -9.4      1.490      1.986
REMARK  2 active torsions:
REMARK  status: ('A' for Active; 'I' for Inactive)
REMARK       I    between atoms: C_6  and  N_7 
REMARK    1  A    between atoms: C_9  and  C_6 
REMARK    2  A    between atoms: N_7  and  C_13 
ROOT
ATOM      1  N   UNL d   1      50.905  34.320  53.199  0.00  0.00    -0.169 NA
ATOM      2  C   UNL d   1      50.910  33.525  53.406  0.00  0.00     0.282 A 
ATOM      3  C   UNL d   1      51.614  34.490  52.823  0.00  0.00     0.282 A 
ATOM      4  C   UNL d   1      51.632  33.201  53.154  0.00  0.00     0.064 A 
ATOM      5  C   UNL d   1      52.059  33.801  52.797  0.00  0.00     0.063 A 
ATOM      6  C   UNL d   1      52.809  33.640  52.489  0.00  0.00     0.006 A 
ATOM      7  C   UNL d   1      51.939  32.436  53.212  0.00  0.00     0.024 A 
ATOM      8  O   UNL d   1      50.297  33.136  53.794  0.00  0.00    -0.265 OA
ATOM      9  O   UNL d   1      51.845  35.223  52.523  0.00  0.00    -0.265 OA
ATOM     10  C   UNL d   1      52.684  32.278  52.906  0.00  0.00     0.085 A 
ATOM     11  C   UNL d   1      53.123  32.879  52.543  0.00  0.00     0.019 A 
ENDROOT
BRANCH  10  12
ATOM     12  N   UNL d   1      52.991  31.513  52.964  0.00  0.00    -0.208 NA
ATOM     13  C   UNL d   1      53.606  31.358  53.486  0.00  0.00     0.279 C 
ATOM     14  O   UNL d   1      53.908  30.596  53.541  0.00  0.00    -0.265 OA
BRANCH  13  15
ATOM     15  C   UNL d   1      53.916  31.953  53.950  0.00  0.00     0.058 A 
ATOM     16  C   UNL d   1      53.634  32.055  54.720  0.00  0.00     0.005 A 
ATOM     17  C   UNL d   1      53.939  32.651  55.196  0.00  0.00     0.000 A 
ATOM     18  C   UNL d   1      54.534  33.154  54.902  0.00  0.00     0.000 A 
ATOM     19  C   UNL d   1      54.814  33.049  54.132  0.00  0.00     0.000 A 
ATOM     20  C   UNL d   1      54.848  33.760  55.378  0.00  0.00     0.000 C 
ATOM     21  C   UNL d   1      54.501  32.448  53.664  0.00  0.00     0.005 A 
ENDBRANCH  13  15
ENDBRANCH  10  12
TORSDOF 2
ENDMDL
MODEL 4
REMARK VINA RESULT:      -9.4      1.592      3.283
REMARK  2 active torsions:
REMARK  status: ('A' for Active; 'I' for Inactive)
REMARK       I    between atoms: C_6  and  N_7 
REMARK    1  A    between atoms: C_9  and  C_6 
REMARK    2  A    between atoms: N_7  and  C_13 
ROOT
ATOM      1  N   UNL d   1      54.630  31.773  53.401  0.00  0.00    -0.169 NA
ATOM      2  C   UNL d   1      54.829  32.569  53.380  0.00  0.00     0.282 A 
ATOM      3  C   UNL d   1      53.992  31.683  53.908  0.00  0.00     0.282 A 
ATOM      4  C   UNL d   1      54.307  32.976  53.881  0.00  0.00     0.064 A 
ATOM      5  C   UNL d   1      53.796  32.423  54.202  0.00  0.00     0.063 A 
ATOM      6  C   UNL d   1      53.208  32.671  54.728  0.00  0.00     0.006 A 
ATOM      7  C   UNL d   1      54.246  33.777  54.075  0.00  0.00     0.024 A 
ATOM      8  O   UNL d   1      55.443  32.889  52.933  0.00  0.00    -0.265 OA
ATOM      9  O   UNL d   1      53.611  30.976  54.094  0.00  0.00    -0.265 OA
ATOM     10  C   UNL d   1      53.662  34.020  54.598  0.00  0.00     0.085 A 
ATOM     11  C   UNL d   1      53.140  33.468  54.928  0.00  0.00     0.019 A 
ENDROOT
BRANCH  10  12
ATOM     12  N   UNL d   1      53.600  34.821  54.792  0.00  0.00    -0.208 NA
ATOM     13  C   UNL d   1      53.059  35.297  54.397  0.00  0.00     0.279 C 
ATOM     14  O   UNL d   1      53.001  36.092  54.594  0.00  0.00    -0.265 OA
BRANCH  13  15
ATOM     15  C   UNL d   1      52.581  34.985  53.814  0.00  0.00     0.058 A 
ATOM     16  C   UNL d   1      52.830  35.019  53.026  0.00  0.00     0.005 A 
ATOM     17  C   UNL d   1      52.358  34.710  52.431  0.00  0.00     0.000 A 
ATOM     18  C   UNL d   1      51.626  34.360  52.619  0.00  0.00     0.000 A 
ATOM     19  C   UNL d   1      51.381  34.328  53.407  0.00  0.00     0.000 A 
ATOM     20  C   UNL d   1      51.143  34.044  52.021  0.00  0.00     0.000 C 
ATOM     21  C   UNL d   1      51.863  34.641  53.997  0.00  0.00     0.005 A 
ENDBRANCH  13  15
ENDBRANCH  10  12
TORSDOF 2
ENDMDL
MODEL 5
REMARK VINA RESULT:      -8.7      1.777      3.074
REMARK  2 active torsions:
REMARK  status: ('A' for Active; 'I' for Inactive)
REMARK       I    between atoms: C_6  and  N_7 
REMARK    1  A    between atoms: C_9  and  C_6 
REMARK    2  A    between atoms: N_7  and  C_13 
ROOT
ATOM      1  N   UNL d   1      53.080  30.241  53.578  0.00  0.00    -0.169 NA
ATOM      2  C   UNL d   1      53.236  30.651  54.272  0.00  0.00     0.282 A 
ATOM      3  C   UNL d   1      53.311  30.710  52.947  0.00  0.00     0.282 A 
ATOM      4  C   UNL d   1      53.568  31.384  54.066  0.00  0.00     0.064 A 
ATOM      5  C   UNL d   1      53.611  31.412  53.249  0.00  0.00     0.063 A 
ATOM      6  C   UNL d   1      53.922  32.083  52.882  0.00  0.00     0.006 A 
ATOM      7  C   UNL d   1      53.831  32.015  54.529  0.00  0.00     0.024 A 
ATOM      8  O   UNL d   1      53.083  30.368  55.031  0.00  0.00    -0.265 OA
ATOM      9  O   UNL d   1      53.255  30.518  52.147  0.00  0.00    -0.265 OA
ATOM     10  C   UNL d   1      54.140  32.681  54.163  0.00  0.00     0.085 A 
ATOM     11  C   UNL d   1      54.187  32.719  53.336  0.00  0.00     0.019 A 
ENDROOT
BRANCH  10  12
ATOM     12  N   UNL d   1      54.403  33.313  54.625  0.00  0.00    -0.208 NA
ATOM     13  C   UNL d   1      53.973  34.013  54.644  0.00  0.00     0.279 C 
ATOM     14  O   UNL d   1      54.238  34.639  55.105  0.00  0.00    -0.265 OA
BRANCH  13  15
ATOM     15  C   UNL d   1      53.286  34.089  54.210  0.00  0.00     0.058 A 
ATOM     16  C   UNL d   1      53.322  34.417  53.452  0.00  0.00     0.005 A 
ATOM     17  C   UNL d   1      52.638  34.499  53.005  0.00  0.00     0.000 A 
ATOM     18  C   UNL d   1      51.905  34.252  53.316  0.00  0.00     0.000 A 
ATOM     19  C   UNL d   1      51.875  33.925  54.074  0.00  0.00     0.000 A 
ATOM     20  C   UNL d   1      51.209  34.332  52.870  0.00  0.00     0.000 C 
ATOM     21  C   UNL d   1      52.567  33.847  54.513  0.00  0.00     0.005 A 
ENDBRANCH  13  15
ENDBRANCH  10  12
TORSDOF 2
ENDMDL
MODEL 6
REMARK VINA RESULT:      -8.3      2.186      3.314
REMARK  2 active torsions:
REMARK  status: ('A' for Active; 'I' for Inactive)
REMARK       I    between atoms: C_6  and  N_7 
REMARK    1  A    between atoms: C_9  and  C_6 
REMARK    2  A    between atoms: N_7  and  C_13 
ROOT
ATOM      1  N   UNL d   1      52.612  29.513  53.815  0.00  0.00    -0.169 NA
ATOM      2  C   UNL d   1      52.082  30.115  53.637  0.00  0.00     0.282 A 
ATOM      3  C   UNL d   1      53.366  29.772  53.624  0.00  0.00     0.282 A 
ATOM      4  C   UNL d   1      52.517  30.754  53.332  0.00  0.00     0.064 A 
ATOM      5  C   UNL d   1      53.305  30.534  53.328  0.00  0.00     0.063 A 
ATOM      6  C   UNL d   1      53.873  31.066  53.050  0.00  0.00     0.006 A 
ATOM      7  C   UNL d   1      52.280  31.498  53.063  0.00  0.00     0.024 A 
ATOM      8  O   UNL d   1      51.267  30.073  53.748  0.00  0.00    -0.265 OA
ATOM      9  O   UNL d   1      54.066  29.346  53.712  0.00  0.00    -0.265 OA
ATOM     10  C   UNL d   1      52.845  32.025  52.788  0.00  0.00     0.085 A 
ATOM     11  C   UNL d   1      53.646  31.812  52.780  0.00  0.00     0.019 A 
ENDROOT
BRANCH  10  12
ATOM     12  N   UNL d   1      52.609  32.770  52.519  0.00  0.00    -0.208 NA
ATOM     13  C   UNL d   1      52.824  33.443  52.937  0.00  0.00     0.279 C 
ATOM     14  O   UNL d   1      52.588  34.181  52.666  0.00  0.00    -0.265 OA
BRANCH  13  15
ATOM     15  C   UNL d   1      53.270  33.383  53.618  0.00  0.00     0.058 A 
ATOM     16  C   UNL d   1      52.889  33.379  54.352  0.00  0.00     0.005 A 
ATOM     17  C   UNL d   1      53.327  33.319  55.044  0.00  0.00     0.000 A 
ATOM     18  C   UNL d   1      54.158  33.262  55.008  0.00  0.00     0.000 A 
ATOM     19  C   UNL d   1      54.534  33.266  54.272  0.00  0.00     0.000 A 
ATOM     20  C   UNL d   1      54.607  33.201  55.704  0.00  0.00     0.000 C 
ATOM     21  C   UNL d   1      54.085  33.327  53.585  0.00  0.00     0.005 A 
ENDBRANCH  13  15
ENDBRANCH  10  12
TORSDOF 2
ENDMDL
