MODEL 1
REMARK VINA RESULT:      32.9      0.000      0.000
REMARK  4 active torsions:
REMARK  status: ('A' for Active; 'I' for Inactive)
REMARK    1  A    between atoms: C_7  and  C_1 
REMARK    2  A    between atoms: C_6  and  C_3 
REMARK    3  A    between atoms: O_15  and  C_8 
REMARK    4  A    between atoms: O_16  and  C_12 
ROOT
ATOM      1  C   UNL d   1     -54.854-100.520 -43.169  0.00  0.00     0.042 A 
ATOM      2  C   UNL d   1     -54.807-100.809 -43.938  0.00  0.00     0.098 A 
ATOM      3  C   UNL d   1     -54.836-100.291 -44.573  0.00  0.00     0.048 A 
ATOM      4  C   UNL d   1     -54.931 -99.714 -43.033  0.00  0.00     0.005 A 
ATOM      5  C   UNL d   1     -54.913 -99.478 -44.442  0.00  0.00     0.096 A 
ATOM      6  C   UNL d   1     -54.961 -99.189 -43.668  0.00  0.00     0.024 A 
ENDROOT
BRANCH   1   7
ATOM      7  C   UNL d   1     -54.824-101.046 -42.533  0.00  0.00     0.107 A 
ATOM      8  C   UNL d   1     -54.866-100.906 -41.116  0.00  0.00     0.048 A 
ATOM      9  C   UNL d   1     -54.800-101.725 -41.038  0.00  0.00     0.169 A 
ATOM     10  N   UNL d   1     -54.746-102.212 -41.699  0.00  0.00    -0.142 NA
ATOM     11  N   UNL d   1     -54.759-101.865 -42.450  0.00  0.00    -0.148 NA
BRANCH   9  12
ATOM     12  C   UNL d   1     -54.788-102.063 -40.283  0.00  0.00     0.231 C 
ATOM     13  O   UNL d   1     -54.838-101.580 -39.616  0.00  0.00    -0.643 OA
ATOM     14  O   UNL d   1     -54.726-102.879 -40.197  0.00  0.00    -0.643 OA
ENDBRANCH   9  12
ENDBRANCH   1   7
BRANCH   2  15
ATOM     15  O   UNL d   1     -54.730-101.623 -44.070  0.00  0.00    -0.328 OA
ATOM     16  C   UNL d   1     -54.983-101.949 -44.787  0.00  0.00     0.181 C 
ENDBRANCH   2  15
BRANCH   5  17
ATOM     17  O   UNL d   1     -54.943 -98.957 -45.081  0.00  0.00    -0.328 OA
ATOM     18  C   UNL d   1     -55.666 -98.789 -45.447  0.00  0.00     0.181 C 
ENDBRANCH   5  17
TORSDOF 4
ENDMDL
