MODEL 1
REMARK VINA RESULT:      -2.0      0.000      0.000
REMARK  4 active torsions:
REMARK  status: ('A' for Active; 'I' for Inactive)
REMARK    1  A    between atoms: C_3  and  N_1 
REMARK       I    between atoms: C_4  and  N_1 
REMARK    2  A    between atoms: C_9  and  C_4 
REMARK    3  A    between atoms: C_5  and  C_10 
REMARK    4  A    between atoms: C_10  and  C_9 
ROOT
ATOM      1  N   UNL d   1      32.498  16.523 -24.529  0.00  0.00    -0.189 NA
ATOM      2  C   UNL d   1      31.707  16.298 -24.695  0.00  0.00     0.281 C 
ATOM      3  O   UNL d   1      31.556  15.608 -25.097  0.00  0.00    -0.265 OA
ENDROOT
BRANCH   1   4
ATOM      4  C   UNL d   1      32.633  17.240 -24.113  0.00  0.00     0.166 A 
ATOM      5  N   UNL d   1      32.675  17.245 -23.287  0.00  0.00    -0.225 NA
ATOM      6  C   UNL d   1      32.805  17.927 -22.867  0.00  0.00     0.107 A 
ATOM      7  C   UNL d   1      32.897  18.625 -23.253  0.00  0.00     0.054 A 
ATOM      8  C   UNL d   1      32.863  18.674 -24.087  0.00  0.00     0.011 A 
ATOM      9 BR   UNL d   1      33.032  19.323 -22.771  0.00  0.00    -0.048 Br
ATOM     10  C   UNL d   1      32.734  17.995 -24.511  0.00  0.00     0.039 A 
ENDBRANCH   1   4
BRANCH   2  11
ATOM     11  C   UNL d   1      31.055  16.782 -24.449  0.00  0.00     0.069 C 
BRANCH  11  12
ATOM     12  C   UNL d   1      30.305  16.561 -24.662  0.00  0.00     0.075 C 
BRANCH  12  13
ATOM     13  C   UNL d   1      29.658  16.984 -24.372  0.00  0.00     0.211 C 
ATOM     14  O   UNL d   1      29.399  17.671 -24.776  0.00  0.00    -0.644 OA
ATOM     15  O   UNL d   1      29.282  16.737 -23.710  0.00  0.00    -0.644 OA
ENDBRANCH  12  13
ENDBRANCH  11  12
ENDBRANCH   2  11
TORSDOF 4
ENDMDL
MODEL 2
REMARK VINA RESULT:      -1.9      2.458      3.700
REMARK  4 active torsions:
REMARK  status: ('A' for Active; 'I' for Inactive)
REMARK    1  A    between atoms: C_3  and  N_1 
REMARK       I    between atoms: C_4  and  N_1 
REMARK    2  A    between atoms: C_9  and  C_4 
REMARK    3  A    between atoms: C_5  and  C_10 
REMARK    4  A    between atoms: C_10  and  C_9 
ROOT
ATOM      1  N   UNL d   1      29.943  17.690 -24.982  0.00  0.00    -0.189 NA
ATOM      2  C   UNL d   1      30.760  17.655 -24.792  0.00  0.00     0.281 C 
ATOM      3  O   UNL d   1      31.273  18.206 -25.097  0.00  0.00    -0.265 OA
ENDROOT
BRANCH   1   4
ATOM      4  C   UNL d   1      29.429  17.112 -24.656  0.00  0.00     0.166 A 
ATOM      5  N   UNL d   1      29.056  17.243 -23.930  0.00  0.00    -0.225 NA
ATOM      6  C   UNL d   1      28.555  16.696 -23.599  0.00  0.00     0.107 A 
ATOM      7  C   UNL d   1      28.410  16.003 -23.978  0.00  0.00     0.054 A 
ATOM      8  C   UNL d   1      28.763  15.823 -24.714  0.00  0.00     0.011 A 
ATOM      9 BR   UNL d   1      27.875  15.453 -23.592  0.00  0.00    -0.048 Br
ATOM     10  C   UNL d   1      29.263  16.365 -25.049  0.00  0.00     0.039 A 
ENDBRANCH   1   4
BRANCH   2  11
ATOM     11  C   UNL d   1      31.062  17.048 -24.281  0.00  0.00     0.069 C 
BRANCH  11  12
ATOM     12  C   UNL d   1      31.857  17.036 -24.121  0.00  0.00     0.075 C 
BRANCH  12  13
ATOM     13  C   UNL d   1      32.154  16.496 -23.571  0.00  0.00     0.211 C 
ATOM     14  O   UNL d   1      32.394  16.765 -22.815  0.00  0.00    -0.644 OA
ATOM     15  O   UNL d   1      32.211  15.721 -23.763  0.00  0.00    -0.644 OA
ENDBRANCH  12  13
ENDBRANCH  11  12
ENDBRANCH   2  11
TORSDOF 4
ENDMDL
MODEL 3
REMARK VINA RESULT:      -1.6      2.207      3.267
REMARK  4 active torsions:
REMARK  status: ('A' for Active; 'I' for Inactive)
REMARK    1  A    between atoms: C_3  and  N_1 
REMARK       I    between atoms: C_4  and  N_1 
REMARK    2  A    between atoms: C_9  and  C_4 
REMARK    3  A    between atoms: C_5  and  C_10 
REMARK    4  A    between atoms: C_10  and  C_9 
ROOT
ATOM      1  N   UNL d   1      31.452  15.452 -24.366  0.00  0.00    -0.189 NA
ATOM      2  C   UNL d   1      32.091  15.990 -24.277  0.00  0.00     0.281 C 
ATOM      3  O   UNL d   1      32.844  15.765 -24.484  0.00  0.00    -0.265 OA
ENDROOT
BRANCH   1   4
ATOM      4  C   UNL d   1      30.682  15.704 -24.145  0.00  0.00     0.166 A 
ATOM      5  N   UNL d   1      30.197  16.097 -24.688  0.00  0.00    -0.225 NA
ATOM      6  C   UNL d   1      29.450  16.347 -24.494  0.00  0.00     0.107 A 
ATOM      7  C   UNL d   1      29.160  16.216 -23.757  0.00  0.00     0.054 A 
ATOM      8  C   UNL d   1      29.611  15.823 -23.172  0.00  0.00     0.011 A 
ATOM      9 BR   UNL d   1      28.366  16.497 -23.594  0.00  0.00    -0.048 Br
ATOM     10  C   UNL d   1      30.358  15.571 -23.361  0.00  0.00     0.039 A 
ENDBRANCH   1   4
BRANCH   2  11
ATOM     11  C   UNL d   1      31.964  16.771 -23.971  0.00  0.00     0.069 C 
BRANCH  11  12
ATOM     12  C   UNL d   1      32.604  17.259 -23.874  0.00  0.00     0.075 C 
BRANCH  12  13
ATOM     13  C   UNL d   1      32.489  18.037 -23.622  0.00  0.00     0.211 C 
ATOM     14  O   UNL d   1      32.334  18.636 -24.187  0.00  0.00    -0.644 OA
ATOM     15  O   UNL d   1      32.526  18.214 -22.842  0.00  0.00    -0.644 OA
ENDBRANCH  12  13
ENDBRANCH  11  12
ENDBRANCH   2  11
TORSDOF 4
ENDMDL
