MODEL 1
REMARK VINA RESULT:      -3.8      0.000      0.000
REMARK  4 active torsions:
REMARK  status: ('A' for Active; 'I' for Inactive)
REMARK    1  A    between atoms: C_5  and  N_1 
REMARK    2  A    between atoms: C_7  and  C_3 
REMARK    3  A    between atoms: C_8  and  C_4 
REMARK    4  A    between atoms: N_10  and  C_5 
ROOT
ATOM      1  N   UNL d   1      58.135  -1.291  30.029  0.00  0.00    -0.203 N 
ATOM      2  N   UNL d   1      57.511  -1.336  30.572  0.00  0.00    -0.163 NA
ATOM      3  C   UNL d   1      57.483  -0.663  31.015  0.00  0.00     0.103 A 
ATOM      4  C   UNL d   1      58.518  -0.557  30.133  0.00  0.00     0.087 A 
ATOM      5  C   UNL d   1      58.119  -0.163  30.743  0.00  0.00     0.040 A 
ENDROOT
BRANCH   3   6
ATOM      6  C   UNL d   1      56.929  -0.509  31.619  0.00  0.00     0.019 A 
ATOM      7  C   UNL d   1      56.696   0.261  31.791  0.00  0.00     0.002 A 
ATOM      8  C   UNL d   1      56.139   0.396  32.399  0.00  0.00     0.000 A 
ATOM      9  C   UNL d   1      55.830  -0.234  32.819  0.00  0.00     0.000 A 
ATOM     10  C   UNL d   1      56.075  -0.999  32.633  0.00  0.00     0.000 A 
ATOM     11  C   UNL d   1      55.172  -0.023  33.531  0.00  0.00     0.000 C 
ATOM     12  C   UNL d   1      56.615  -1.137  32.044  0.00  0.00     0.002 A 
ENDBRANCH   3   6
BRANCH   1  13
ATOM     13  C   UNL d   1      58.352  -1.879  29.465  0.00  0.00     0.222 C 
ATOM     14  S   UNL d   1      58.042  -1.827  28.679  0.00  0.00    -0.037 SA
BRANCH  13  15
ATOM     15  N   UNL d   1      58.870  -2.516  29.668  0.00  0.00    -0.214 NA
ATOM     16  C   UNL d   1      58.835  -3.232  29.244  0.00  0.00     0.122 C 
ENDBRANCH  13  15
ENDBRANCH   1  13
BRANCH   4  17
ATOM     17  C   UNL d   1      59.169  -0.250  29.726  0.00  0.00     0.018 A 
ATOM     18  C   UNL d   1      59.931  -0.349  30.013  0.00  0.00     0.002 A 
ATOM     19  C   UNL d   1      60.579  -0.044  29.607  0.00  0.00     0.007 A 
ATOM     20  C   UNL d   1      60.460   0.366  28.905  0.00  0.00     0.035 A 
ATOM     21  C   UNL d   1      59.719   0.471  28.613  0.00  0.00     0.007 A 
ATOM     22 BR   UNL d   1      61.133   0.670  28.507  0.00  0.00    -0.049 Br
ATOM     23  C   UNL d   1      59.068   0.164  29.020  0.00  0.00     0.002 A 
ENDBRANCH   4  17
TORSDOF 4
ENDMDL
