MODEL 1
REMARK VINA RESULT:     111.2      0.000      0.000
REMARK  8 active torsions:
REMARK  status: ('A' for Active; 'I' for Inactive)
REMARK    1  A    between atoms: C_25  and  N_5 
REMARK    2  A    between atoms: C_11  and  C_6 
REMARK       I    between atoms: N_15  and  C_11 
REMARK    3  A    between atoms: C_26  and  N_15 
REMARK    4  A    between atoms: C_17  and  C_26 
REMARK    5  A    between atoms: C_30  and  C_25 
REMARK    6  A    between atoms: O_29  and  C_30 
REMARK    7  A    between atoms: C_32  and  O_29 
REMARK    8  A    between atoms: C_31  and  C_32 
ROOT
ATOM      1  C   UNL d   1      59.898  49.370  50.803  0.00  0.00     0.155 A 
ATOM      2  C   UNL d   1      59.630  49.325  51.583  0.00  0.00     0.091 A 
ATOM      3  N   UNL d   1      59.354  49.477  50.185  0.00  0.00    -0.210 NA
ATOM      4  N   UNL d   1      58.281  49.495  51.129  0.00  0.00    -0.258 N 
ATOM      5  N   UNL d   1      60.695  49.308  50.637  0.00  0.00    -0.272 N 
ATOM      6  C   UNL d   1      60.980  49.157  52.023  0.00  0.00     0.094 A 
ATOM      7  C   UNL d   1      58.549  49.539  50.350  0.00  0.00     0.152 A 
ATOM      8  C   UNL d   1      58.817  49.388  51.748  0.00  0.00     0.269 A 
ATOM      9  C   UNL d   1      61.248  49.201  51.244  0.00  0.00     0.175 A 
ATOM     10  C   UNL d   1      60.171  49.219  52.199  0.00  0.00     0.016 A 
ATOM     11  C   UNL d   1      58.013  49.645  49.734  0.00  0.00     0.035 A 
ATOM     12  C   UNL d   1      57.473  49.556  51.305  0.00  0.00     0.084 A 
ATOM     13  N   UNL d   1      62.052  49.139  51.080  0.00  0.00    -0.128 N 
ATOM     14  O   UNL d   1      58.555  49.343  52.538  0.00  0.00    -0.266 OA
ATOM     15  C   UNL d   1      56.940  49.663  50.678  0.00  0.00     0.019 A 
ATOM     16  C   UNL d   1      57.208  49.707  49.899  0.00  0.00     0.005 A 
ATOM     17  C   UNL d   1      58.279  49.689  48.960  0.00  0.00     0.003 C 
ENDROOT
BRANCH   6  18
ATOM     18  C   UNL d   1      61.529  49.049  52.643  0.00  0.00     0.282 C 
ATOM     19  N   UNL d   1      61.708  48.288  52.900  0.00  0.00    -0.204 NA
ATOM     20  O   UNL d   1      61.886  49.707  52.991  0.00  0.00    -0.265 OA
BRANCH  19  21
ATOM     21  C   UNL d   1      62.250  48.181  53.512  0.00  0.00     0.127 C 
BRANCH  21  22
ATOM     22  C   UNL d   1      62.246  47.487  53.954  0.00  0.00     0.119 A 
ATOM     23  O   UNL d   1      62.613  47.377  54.684  0.00  0.00    -0.304 OA
ATOM     24  C   UNL d   1      62.471  46.603  54.932  0.00  0.00     0.123 A 
ATOM     25  C   UNL d   1      62.015  46.229  54.352  0.00  0.00     0.029 A 
ATOM     26  C   UNL d   1      61.878  46.784  53.748  0.00  0.00     0.028 A 
ENDBRANCH  21  22
ENDBRANCH  19  21
ENDBRANCH   6  18
BRANCH   5  27
ATOM     27  C   UNL d   1      60.963  49.352  49.857  0.00  0.00     0.110 C 
BRANCH  27  28
ATOM     28  C   UNL d   1      61.310  48.691  49.503  0.00  0.00     0.142 C 
BRANCH  28  29
ATOM     29  O   UNL d   1      61.421  47.996  49.934  0.00  0.00    -0.298 OA
BRANCH  29  30
ATOM     30  C   UNL d   1      61.638  47.306  49.541  0.00  0.00     0.168 C 
BRANCH  30  31
ATOM     31  C   UNL d   1      61.272  46.586  49.724  0.00  0.00     0.261 C 
ATOM     32  O   UNL d   1      61.732  45.945  49.965  0.00  0.00    -0.281 OA
ENDBRANCH  30  31
ENDBRANCH  29  30
ENDBRANCH  28  29
ENDBRANCH  27  28
ENDBRANCH   5  27
TORSDOF 8
ENDMDL
