MODEL 1
REMARK VINA RESULT:      -1.1      0.000      0.000
REMARK  5 active torsions:
REMARK  status: ('A' for Active; 'I' for Inactive)
REMARK    1  A    between atoms: C_10  and  C_4 
REMARK    2  A    between atoms: N_11  and  C_7 
REMARK    3  A    between atoms: C_13  and  N_11 
REMARK    4  A    between atoms: C_15  and  C_13 
REMARK    5  A    between atoms: O_25  and  C_17 
ROOT
ATOM      1  C   UNL d   1      59.861  -1.938  29.240  0.00  0.00     0.186 A 
ATOM      2  N   UNL d   1      59.929  -2.689  28.874  0.00  0.00    -0.193 N 
ATOM      3  N   UNL d   1      59.135  -1.711  29.569  0.00  0.00    -0.206 NA
ATOM      4  C   UNL d   1      60.600  -1.567  29.183  0.00  0.00     0.140 A 
ATOM      5  N   UNL d   1      60.707  -2.770  28.596  0.00  0.00    -0.058 NA
ATOM      6  N   UNL d   1      61.117  -2.076  28.789  0.00  0.00    -0.127 NA
ATOM      7  C   UNL d   1      58.482  -2.211  29.540  0.00  0.00     0.166 A 
ATOM      8  C   UNL d   1      58.558  -2.953  29.175  0.00  0.00     0.054 A 
ATOM      9  C   UNL d   1      59.275  -3.190  28.844  0.00  0.00     0.089 A 
ATOM     10  C   UNL d   1      57.905  -3.453  29.146  0.00  0.00     0.005 A 
ATOM     11  C   UNL d   1      59.341  -3.927  28.484  0.00  0.00     0.019 A 
ATOM     12  C   UNL d   1      57.970  -4.191  28.785  0.00  0.00     0.000 A 
ATOM     13  C   UNL d   1      58.687  -4.428  28.455  0.00  0.00     0.002 A 
ENDROOT
BRANCH   7  14
ATOM     14  N   UNL d   1      57.759  -1.986  29.867  0.00  0.00    -0.225 NA
BRANCH  14  15
ATOM     15  C   UNL d   1      57.634  -1.195  30.078  0.00  0.00     0.101 C 
BRANCH  15  16
ATOM     16  C   UNL d   1      57.298  -1.003  30.806  0.00  0.00     0.019 A 
ATOM     17  C   UNL d   1      56.957  -1.591  31.271  0.00  0.00     0.004 A 
ATOM     18  C   UNL d   1      56.621  -1.399  32.000  0.00  0.00     0.024 A 
ATOM     19  C   UNL d   1      56.630  -0.608  32.262  0.00  0.00     0.094 A 
ATOM     20  C   UNL d   1      56.977  -0.023  31.787  0.00  0.00     0.024 A 
ATOM     21  C   UNL d   1      57.310  -0.226  31.060  0.00  0.00     0.004 A 
BRANCH  19  22
ATOM     22  O   UNL d   1      56.296  -0.412  32.991  0.00  0.00    -0.328 OA
ATOM     23  C   UNL d   1      55.488  -0.539  33.116  0.00  0.00     0.181 C 
ENDBRANCH  19  22
ENDBRANCH  15  16
ENDBRANCH  14  15
ENDBRANCH   7  14
BRANCH   4  24
ATOM     24  C   UNL d   1      60.777  -0.821  29.472  0.00  0.00     0.025 A 
ATOM     25  C   UNL d   1      60.845  -0.706  30.285  0.00  0.00     0.031 A 
ATOM     26  C   UNL d   1      61.024   0.047  30.585  0.00  0.00     0.140 A 
ATOM     27  F   UNL d   1      61.091   0.162  31.398  0.00  0.00    -0.204 F 
ATOM     28  C   UNL d   1      61.133   0.678  30.063  0.00  0.00     0.030 A 
ATOM     29  C   UNL d   1      61.063   0.553  29.243  0.00  0.00     0.002 A 
ATOM     30  C   UNL d   1      60.886  -0.193  28.954  0.00  0.00     0.002 A 
ENDBRANCH   4  24
TORSDOF 5
ENDMDL
