MODEL 1
REMARK VINA RESULT:      -4.3      0.000      0.000
REMARK  8 active torsions:
REMARK  status: ('A' for Active; 'I' for Inactive)
REMARK    1  A    between atoms: N_3  and  C_1 
REMARK    2  A    between atoms: C_20  and  N_2 
REMARK       I    between atoms: C_7  and  N_3 
REMARK    3  A    between atoms: C_10  and  C_7 
REMARK    4  A    between atoms: C_9  and  C_10 
REMARK    5  A    between atoms: C_15  and  C_9 
REMARK       I    between atoms: C_12  and  N_13 
REMARK    6  A    between atoms: N_13  and  C_14 
REMARK    7  A    between atoms: C_26  and  C_20 
REMARK    8  A    between atoms: O_22  and  C_26 
ROOT
ATOM      1  C   UNL d   1      58.152  -0.717  30.112  0.00  0.00     0.182 A 
ATOM      2  N   UNL d   1      58.741  -0.533  29.570  0.00  0.00    -0.283 N 
ATOM      3  S   UNL d   1      58.065  -1.537  30.124  0.00  0.00    -0.048 SA
ATOM      4  C   UNL d   1      58.606  -1.860  29.586  0.00  0.00     0.050 A 
ATOM      5  C   UNL d   1      59.025  -1.237  29.242  0.00  0.00     0.072 A 
ATOM      6  C   UNL d   1      58.769  -2.638  29.367  0.00  0.00     0.027 A 
ATOM      7  C   UNL d   1      59.607  -1.392  28.679  0.00  0.00     0.020 A 
ATOM      8  C   UNL d   1      59.350  -2.792  28.804  0.00  0.00     0.085 A 
ATOM      9  C   UNL d   1      59.770  -2.169  28.460  0.00  0.00     0.021 A 
ENDROOT
BRANCH   1  10
ATOM     10  N   UNL d   1      57.725  -0.171  30.561  0.00  0.00    -0.184 NA
ATOM     11  C   UNL d   1      57.277  -0.433  31.201  0.00  0.00     0.281 C 
ATOM     12  O   UNL d   1      57.258  -1.237  31.387  0.00  0.00    -0.265 OA
BRANCH  11  13
ATOM     13  C   UNL d   1      56.847   0.107  31.655  0.00  0.00     0.063 C 
BRANCH  13  14
ATOM     14  C   UNL d   1      56.948   0.133  32.470  0.00  0.00     0.006 C 
BRANCH  14  15
ATOM     15  C   UNL d   1      56.321   0.306  32.967  0.00  0.00     0.011 A 
ATOM     16  C   UNL d   1      56.464   0.503  33.760  0.00  0.00     0.058 A 
ATOM     17 CL   UNL d   1      57.249   0.524  34.045  0.00  0.00    -0.082 Cl
ATOM     18  C   UNL d   1      55.821   0.680  34.270  0.00  0.00     0.011 A 
ATOM     19  C   UNL d   1      55.053   0.661  33.998  0.00  0.00     0.001 A 
ATOM     20  C   UNL d   1      54.907   0.465  33.206  0.00  0.00     0.000 A 
ATOM     21  C   UNL d   1      55.541   0.289  32.699  0.00  0.00     0.001 A 
ENDBRANCH  14  15
ENDBRANCH  13  14
ENDBRANCH  11  13
ENDBRANCH   1  10
BRANCH   2  22
ATOM     22  C   UNL d   1      59.011   0.226  29.379  0.00  0.00     0.108 C 
BRANCH  22  23
ATOM     23  C   UNL d   1      59.784   0.450  29.552  0.00  0.00     0.135 C 
BRANCH  23  24
ATOM     24  O   UNL d   1      60.022   0.545  30.333  0.00  0.00    -0.325 OA
ATOM     25  C   UNL d   1      60.819   0.682  30.518  0.00  0.00     0.182 C 
ENDBRANCH  23  24
ENDBRANCH  22  23
ENDBRANCH   2  22
BRANCH   8  26
ATOM     26  N   UNL d   1      59.517  -3.582  28.580  0.00  0.00    -0.208 NA
ATOM     27  C   UNL d   1      60.271  -3.880  28.678  0.00  0.00     0.279 C 
ATOM     28  O   UNL d   1      60.434  -4.658  28.457  0.00  0.00    -0.265 OA
ATOM     29  C   UNL d   1      60.875  -3.414  28.996  0.00  0.00     0.068 C 
ENDBRANCH   8  26
TORSDOF 8
ENDMDL
MODEL 2
REMARK VINA RESULT:      -3.7      2.085      5.703
REMARK  8 active torsions:
REMARK  status: ('A' for Active; 'I' for Inactive)
REMARK    1  A    between atoms: N_3  and  C_1 
REMARK    2  A    between atoms: C_20  and  N_2 
REMARK       I    between atoms: C_7  and  N_3 
REMARK    3  A    between atoms: C_10  and  C_7 
REMARK    4  A    between atoms: C_9  and  C_10 
REMARK    5  A    between atoms: C_15  and  C_9 
REMARK       I    between atoms: C_12  and  N_13 
REMARK    6  A    between atoms: N_13  and  C_14 
REMARK    7  A    between atoms: C_26  and  C_20 
REMARK    8  A    between atoms: O_22  and  C_26 
ROOT
ATOM      1  C   UNL d   1      57.640  -0.206  31.614  0.00  0.00     0.182 A 
ATOM      2  N   UNL d   1      57.841   0.252  32.265  0.00  0.00    -0.283 N 
ATOM      3  S   UNL d   1      56.859  -0.455  31.709  0.00  0.00    -0.048 SA
ATOM      4  C   UNL d   1      56.578  -0.148  32.425  0.00  0.00     0.050 A 
ATOM      5  C   UNL d   1      57.188   0.291  32.770  0.00  0.00     0.072 A 
ATOM      6  C   UNL d   1      55.849  -0.211  32.805  0.00  0.00     0.027 A 
ATOM      7  C   UNL d   1      57.067   0.666  33.495  0.00  0.00     0.020 A 
ATOM      8  C   UNL d   1      55.729   0.164  33.529  0.00  0.00     0.085 A 
ATOM      9  C   UNL d   1      56.339   0.602  33.874  0.00  0.00     0.021 A 
ENDROOT
BRANCH   1  10
ATOM     10  N   UNL d   1      58.137  -0.381  30.978  0.00  0.00    -0.184 NA
ATOM     11  C   UNL d   1      57.943  -1.000  30.469  0.00  0.00     0.281 C 
ATOM     12  O   UNL d   1      57.255  -1.437  30.598  0.00  0.00    -0.265 OA
BRANCH  11  13
ATOM     13  C   UNL d   1      58.435  -1.181  29.831  0.00  0.00     0.063 C 
BRANCH  13  14
ATOM     14  C   UNL d   1      58.597  -1.965  29.645  0.00  0.00     0.006 C 
BRANCH  14  15
ATOM     15  C   UNL d   1      59.288  -2.172  29.259  0.00  0.00     0.011 A 
ATOM     16  C   UNL d   1      59.346  -2.908  28.879  0.00  0.00     0.058 A 
ATOM     17 CL   UNL d   1      58.696  -3.433  28.896  0.00  0.00    -0.082 Cl
ATOM     18  C   UNL d   1      60.054  -3.121  28.483  0.00  0.00     0.011 A 
ATOM     19  C   UNL d   1      60.692  -2.613  28.463  0.00  0.00     0.001 A 
ATOM     20  C   UNL d   1      60.638  -1.877  28.840  0.00  0.00     0.000 A 
ATOM     21  C   UNL d   1      59.937  -1.664  29.234  0.00  0.00     0.001 A 
ENDBRANCH  14  15
ENDBRANCH  13  14
ENDBRANCH  11  13
ENDBRANCH   1  10
BRANCH   2  22
ATOM     22  C   UNL d   1      58.571   0.616  32.401  0.00  0.00     0.108 C 
BRANCH  22  23
ATOM     23  C   UNL d   1      59.131   0.261  32.890  0.00  0.00     0.135 C 
BRANCH  23  24
ATOM     24  O   UNL d   1      59.797   0.681  33.129  0.00  0.00    -0.325 OA
ATOM     25  C   UNL d   1      60.486   0.679  32.667  0.00  0.00     0.182 C 
ENDBRANCH  23  24
ENDBRANCH  22  23
ENDBRANCH   2  22
BRANCH   8  26
ATOM     26  N   UNL d   1      54.989   0.100  33.917  0.00  0.00    -0.208 NA
ATOM     27  C   UNL d   1      54.925   0.310  34.703  0.00  0.00     0.279 C 
ATOM     28  O   UNL d   1      54.195   0.247  35.083  0.00  0.00    -0.265 OA
ATOM     29  C   UNL d   1      55.579   0.586  35.125  0.00  0.00     0.068 C 
ENDBRANCH   8  26
TORSDOF 8
ENDMDL
