MODEL 1
REMARK VINA RESULT:      49.8      0.000      0.000
REMARK  6 active torsions:
REMARK  status: ('A' for Active; 'I' for Inactive)
REMARK    1  A    between atoms: C_7  and  S_1 
REMARK    2  A    between atoms: N_11  and  S_1 
REMARK    3  A    between atoms: C_5  and  C_21 
REMARK    4  A    between atoms: C_22  and  N_11 
REMARK    5  A    between atoms: C_20  and  C_13 
REMARK    6  A    between atoms: C_21  and  C_22 
ROOT
ATOM      1  S   UNL d   1     -54.935-102.216 -40.847  0.00  0.00     0.285 S 
ATOM      2  O   UNL d   1     -54.882-102.710 -40.186  0.00  0.00    -0.198 OA
ATOM      3  O   UNL d   1     -54.995-102.879 -41.335  0.00  0.00    -0.198 OA
ENDROOT
BRANCH   1   4
ATOM      4  C   UNL d   1     -54.988-101.729 -41.504  0.00  0.00     0.105 A 
ATOM      5  C   UNL d   1     -54.995-102.066 -42.262  0.00  0.00     0.013 A 
ATOM      6  C   UNL d   1     -55.049-101.568 -42.925  0.00  0.00     0.001 A 
ATOM      7  C   UNL d   1     -55.094-100.757 -42.833  0.00  0.00     0.000 A 
ATOM      8  C   UNL d   1     -55.086-100.424 -42.075  0.00  0.00     0.001 A 
ATOM      9  C   UNL d   1     -55.033-100.910 -41.410  0.00  0.00     0.013 A 
BRANCH   7  10
ATOM     10  C   UNL d   1     -55.147-100.265 -43.487  0.00  0.00     0.000 A 
ATOM     11  C   UNL d   1     -54.716 -99.566 -43.517  0.00  0.00     0.000 A 
ATOM     12  C   UNL d   1     -54.777 -99.079 -44.180  0.00  0.00     0.000 A 
ATOM     13  C   UNL d   1     -55.266 -99.290 -44.807  0.00  0.00     0.000 A 
ATOM     14  C   UNL d   1     -55.700 -99.994 -44.779  0.00  0.00     0.000 A 
ATOM     15  C   UNL d   1     -55.635-100.477 -44.114  0.00  0.00     0.000 A 
ENDBRANCH   7  10
ENDBRANCH   1   4
BRANCH   1  16
ATOM     16  N   UNL d   1     -54.875-101.557 -40.356  0.00  0.00    -0.157 NA
BRANCH  16  17
ATOM     17  C   UNL d   1     -54.713-101.648 -39.564  0.00  0.00     0.114 C 
BRANCH  17  18
ATOM     18  C   UNL d   1     -55.184-102.147 -39.094  0.00  0.00     0.042 C 
BRANCH  18  19
ATOM     19  C   UNL d   1     -55.099-102.124 -38.263  0.00  0.00     0.102 A 
ATOM     20  N   UNL d   1     -55.144-101.454 -37.789  0.00  0.00    -0.227 NA
ATOM     21  C   UNL d   1     -55.030-101.674 -37.003  0.00  0.00     0.148 A 
ATOM     22  C   UNL d   1     -55.017-101.248 -36.303  0.00  0.00     0.037 A 
ATOM     23  N   UNL d   1     -54.912-102.495 -36.982  0.00  0.00    -0.288 N 
ATOM     24  C   UNL d   1     -54.886-101.631 -35.579  0.00  0.00     0.005 A 
ATOM     25  C   UNL d   1     -54.770-102.440 -35.559  0.00  0.00     0.019 A 
ATOM     26  C   UNL d   1     -54.782-102.878 -36.258  0.00  0.00     0.082 A 
ATOM     27  C   UNL d   1     -54.953-102.783 -37.758  0.00  0.00     0.101 A 
ENDBRANCH  18  19
ENDBRANCH  17  18
ENDBRANCH  16  17
ENDBRANCH   1  16
TORSDOF 6
ENDMDL
