MODEL 1
REMARK VINA RESULT:      49.7      0.000      0.000
REMARK  4 active torsions:
REMARK  status: ('A' for Active; 'I' for Inactive)
REMARK    1  A    between atoms: C_15  and  C_2 
REMARK    2  A    between atoms: C_3  and  N_6 
REMARK    3  A    between atoms: C_5  and  C_16 
REMARK       I    between atoms: N_6  and  C_5 
REMARK    4  A    between atoms: C_16  and  C_15 
ROOT
ATOM      1  C   UNL d   1      59.786  49.171  51.825  0.00  0.00     0.279 C 
ATOM      2  N   UNL d   1      60.549  48.879  51.737  0.00  0.00    -0.208 NA
ATOM      3  O   UNL d   1      59.490  49.335  52.571  0.00  0.00    -0.265 OA
ENDROOT
BRANCH   1   4
ATOM      4  C   UNL d   1      59.311  49.303  51.164  0.00  0.00     0.065 C 
BRANCH   4   5
ATOM      5  C   UNL d   1      58.601  49.707  51.240  0.00  0.00     0.030 C 
BRANCH   5   6
ATOM      6  C   UNL d   1      57.959  49.512  50.760  0.00  0.00     0.100 A 
ATOM      7  O   UNL d   1      57.892  49.631  49.945  0.00  0.00    -0.307 OA
ATOM      8  C   UNL d   1      57.164  49.356  49.697  0.00  0.00     0.100 A 
ATOM      9  C   UNL d   1      56.769  49.061  50.361  0.00  0.00     0.027 A 
ATOM     10  C   UNL d   1      56.876  49.369  48.933  0.00  0.00     0.027 C 
ATOM     11  C   UNL d   1      57.259  49.157  51.017  0.00  0.00     0.027 A 
ENDBRANCH   5   6
ENDBRANCH   4   5
ENDBRANCH   1   4
BRANCH   2  12
ATOM     12  C   UNL d   1      60.843  48.715  50.979  0.00  0.00     0.085 A 
ATOM     13  C   UNL d   1      61.167  47.972  50.817  0.00  0.00     0.019 A 
ATOM     14  C   UNL d   1      61.457  47.808  50.070  0.00  0.00     0.002 A 
ATOM     15  C   UNL d   1      61.780  47.071  49.909  0.00  0.00     0.000 C 
ATOM     16  C   UNL d   1      61.427  48.389  49.473  0.00  0.00     0.000 A 
ATOM     17  C   UNL d   1      61.100  49.131  49.647  0.00  0.00     0.002 A 
ATOM     18  C   UNL d   1      60.811  49.291  50.393  0.00  0.00     0.019 A 
ATOM     19  C   UNL d   1      61.070  49.707  49.054  0.00  0.00     0.000 C 
ENDBRANCH   2  12
TORSDOF 4
ENDMDL
MODEL 2
REMARK VINA RESULT:      51.6      1.668      3.702
REMARK  4 active torsions:
REMARK  status: ('A' for Active; 'I' for Inactive)
REMARK    1  A    between atoms: C_15  and  C_2 
REMARK    2  A    between atoms: C_3  and  N_6 
REMARK    3  A    between atoms: C_5  and  C_16 
REMARK       I    between atoms: N_6  and  C_5 
REMARK    4  A    between atoms: C_16  and  C_15 
ROOT
ATOM      1  C   UNL d   1      61.338  48.876  50.895  0.00  0.00     0.279 C 
ATOM      2  N   UNL d   1      60.947  49.597  50.936  0.00  0.00    -0.208 NA
ATOM      3  O   UNL d   1      62.144  48.833  51.041  0.00  0.00    -0.265 OA
ENDROOT
BRANCH   1   4
ATOM      4  C   UNL d   1      60.924  48.187  50.708  0.00  0.00     0.065 C 
BRANCH   4   5
ATOM      5  C   UNL d   1      61.092  47.486  51.098  0.00  0.00     0.030 C 
BRANCH   5   6
ATOM      6  C   UNL d   1      61.129  46.776  50.680  0.00  0.00     0.100 A 
ATOM      7  O   UNL d   1      61.512  46.643  49.960  0.00  0.00    -0.307 OA
ATOM      8  C   UNL d   1      61.408  45.862  49.747  0.00  0.00     0.100 A 
ATOM      9  C   UNL d   1      60.955  45.499  50.336  0.00  0.00     0.027 A 
ATOM     10  C   UNL d   1      61.697  45.501  49.073  0.00  0.00     0.027 C 
ATOM     11  C   UNL d   1      60.783  46.063  50.912  0.00  0.00     0.027 A 
ENDBRANCH   5   6
ENDBRANCH   4   5
ENDBRANCH   1   4
BRANCH   2  12
ATOM     12  C   UNL d   1      60.132  49.634  50.788  0.00  0.00     0.085 A 
ATOM     13  C   UNL d   1      59.858  49.652  50.009  0.00  0.00     0.019 A 
ATOM     14  C   UNL d   1      59.054  49.689  49.860  0.00  0.00     0.002 A 
ATOM     15  C   UNL d   1      58.781  49.707  49.087  0.00  0.00     0.000 C 
ATOM     16  C   UNL d   1      58.512  49.707  50.494  0.00  0.00     0.000 A 
ATOM     17  C   UNL d   1      58.800  49.688  51.271  0.00  0.00     0.002 A 
ATOM     18  C   UNL d   1      59.602  49.652  51.416  0.00  0.00     0.019 A 
ATOM     19  C   UNL d   1      58.261  49.707  51.899  0.00  0.00     0.000 C 
ENDBRANCH   2  12
TORSDOF 4
ENDMDL
