MODEL 1
REMARK VINA RESULT:      74.0      0.000      0.000
REMARK  6 active torsions:
REMARK  status: ('A' for Active; 'I' for Inactive)
REMARK    1  A    between atoms: N_7  and  C_1 
REMARK    2  A    between atoms: C_6  and  C_4 
REMARK    3  A    between atoms: C_20  and  N_9 
REMARK    4  A    between atoms: C_23  and  C_13 
REMARK    5  A    between atoms: O_19  and  C_23 
REMARK    6  A    between atoms: C_21  and  O_19 
ROOT
ATOM      1  C   UNL d   1      14.942  17.341  -3.095  0.00  0.00     0.198 A 
ATOM      2  C   UNL d   1      15.087  16.570  -3.364  0.00  0.00     0.191 A 
ATOM      3  O   UNL d   1      14.939  17.339  -2.277  0.00  0.00    -0.268 OA
ATOM      4  C   UNL d   1      15.078  16.589  -2.031  0.00  0.00     0.208 A 
ATOM      5  N   UNL d   1      15.172  16.099  -2.692  0.00  0.00    -0.206 NA
ATOM      6  C   UNL d   1      15.142  16.293  -4.158  0.00  0.00     0.124 C 
ATOM      7  N   UNL d   1      15.195  16.025  -4.951  0.00  0.00    -0.190 NA
ENDROOT
BRANCH   1   8
ATOM      8  N   UNL d   1      14.830  17.947  -3.651  0.00  0.00    -0.280 N 
ATOM      9  C   UNL d   1      14.107  18.304  -3.710  0.00  0.00     0.101 A 
ATOM     10  C   UNL d   1      13.996  18.906  -4.263  0.00  0.00     0.100 A 
ATOM     11  N   UNL d   1      14.612  19.136  -4.743  0.00  0.00    -0.301 N 
ATOM     12  C   UNL d   1      15.362  18.769  -4.685  0.00  0.00     0.100 A 
ATOM     13  C   UNL d   1      15.472  18.167  -4.132  0.00  0.00     0.101 A 
BRANCH  11  14
ATOM     14  C   UNL d   1      14.502  19.734  -5.293  0.00  0.00     0.064 A 
ATOM     15  C   UNL d   1      13.837  19.737  -5.757  0.00  0.00     0.018 A 
ATOM     16  C   UNL d   1      13.725  20.342  -6.313  0.00  0.00     0.002 A 
ATOM     17  C   UNL d   1      14.284  20.923  -6.385  0.00  0.00     0.000 A 
ATOM     18  C   UNL d   1      14.967  20.933  -5.918  0.00  0.00     0.002 A 
ATOM     19  C   UNL d   1      15.079  20.327  -5.362  0.00  0.00     0.018 A 
ENDBRANCH  11  14
ENDBRANCH   1   8
BRANCH   4  20
ATOM     20  C   UNL d   1      15.198  15.935  -1.529  0.00  0.00     0.141 A 
ATOM     21  O   UNL d   1      15.341  15.139  -1.405  0.00  0.00    -0.301 OA
ATOM     22  C   UNL d   1      15.367  15.032  -0.596  0.00  0.00     0.125 A 
ATOM     23  C   UNL d   1      15.250  15.712  -0.202  0.00  0.00     0.029 A 
ATOM     24  C   UNL d   1      15.142  16.287  -0.773  0.00  0.00     0.030 A 
BRANCH  22  25
ATOM     25  C   UNL d   1      15.498  14.312  -0.200  0.00  0.00     0.147 C 
BRANCH  25  26
ATOM     26  O   UNL d   1      14.897  13.765  -0.058  0.00  0.00    -0.303 OA
BRANCH  26  27
ATOM     27  C   UNL d   1      14.804  13.119  -0.520  0.00  0.00     0.100 A 
ATOM     28  C   UNL d   1      14.100  12.693  -0.519  0.00  0.00     0.023 A 
ATOM     29  C   UNL d   1      13.453  12.941  -0.018  0.00  0.00     0.002 C 
ATOM     30  C   UNL d   1      13.983  12.034  -0.979  0.00  0.00     0.002 A 
ATOM     31  C   UNL d   1      14.606  11.783  -1.471  0.00  0.00     0.000 A 
ATOM     32  C   UNL d   1      15.318  12.193  -1.488  0.00  0.00     0.002 A 
ATOM     33  C   UNL d   1      15.402  12.854  -1.011  0.00  0.00     0.025 A 
ENDBRANCH  26  27
ENDBRANCH  25  26
ENDBRANCH  22  25
ENDBRANCH   4  20
TORSDOF 6
ENDMDL
