MODEL 1
REMARK VINA RESULT:      -9.0      0.000      0.000
REMARK  3 active torsions:
REMARK  status: ('A' for Active; 'I' for Inactive)
REMARK    1  A    between atoms: C_7  and  C_3 
REMARK       I    between atoms: N_10  and  C_7 
REMARK    2  A    between atoms: C_16  and  N_10 
REMARK    3  A    between atoms: C_15  and  C_16 
ROOT
ATOM      1  C   UNL d   1      53.101  32.210  53.599  0.00  0.00     0.063 A 
ATOM      2  C   UNL d   1      52.920  33.019  53.570  0.00  0.00     0.033 A 
ATOM      3  C   UNL d   1      52.368  33.133  52.962  0.00  0.00     0.158 A 
ATOM      4  C   UNL d   1      52.665  31.827  53.014  0.00  0.00     0.099 A 
ATOM      5  O   UNL d   1      52.212  32.397  52.620  0.00  0.00    -0.302 OA
ATOM      6  C   UNL d   1      53.614  31.785  54.093  0.00  0.00     0.194 A 
ATOM      7  C   UNL d   1      52.738  31.017  52.919  0.00  0.00     0.002 A 
ATOM      8  C   UNL d   1      53.238  30.580  53.396  0.00  0.00     0.042 A 
ATOM      9  C   UNL d   1      53.677  30.965  53.984  0.00  0.00     0.019 A 
ATOM     10  O   UNL d   1      54.056  32.173  54.685  0.00  0.00    -0.287 OA
ATOM     11  C   UNL d   1      53.133  33.712  53.967  0.00  0.00     0.002 C 
ATOM     12  C   UNL d   1      53.573  29.855  53.620  0.00  0.00     0.009 C 
ATOM     13  C   UNL d   1      52.905  30.022  52.890  0.00  0.00     0.009 C 
ENDROOT
BRANCH   3  14
ATOM     14  C   UNL d   1      52.032  33.852  52.736  0.00  0.00     0.302 C 
ATOM     15  N   UNL d   1      51.212  33.912  52.621  0.00  0.00    -0.205 NA
ATOM     16  O   UNL d   1      52.514  34.519  52.623  0.00  0.00    -0.263 OA
BRANCH  15  17
ATOM     17  C   UNL d   1      50.873  34.629  52.395  0.00  0.00     0.104 C 
BRANCH  17  18
ATOM     18  C   UNL d   1      50.061  34.677  52.262  0.00  0.00     0.038 A 
ATOM     19  C   UNL d   1      49.561  34.935  52.867  0.00  0.00     0.101 A 
ATOM     20  N   UNL d   1      48.756  34.980  52.728  0.00  0.00    -0.242 NA
ATOM     21  C   UNL d   1      48.439  34.776  52.002  0.00  0.00     0.099 A 
ATOM     22  C   UNL d   1      48.945  34.519  51.397  0.00  0.00     0.021 A 
ATOM     23  C   UNL d   1      49.756  34.470  51.530  0.00  0.00     0.005 A 
ENDBRANCH  17  18
ENDBRANCH  15  17
ENDBRANCH   3  14
TORSDOF 3
ENDMDL
MODEL 2
REMARK VINA RESULT:      -8.7      1.216      2.090
REMARK  3 active torsions:
REMARK  status: ('A' for Active; 'I' for Inactive)
REMARK    1  A    between atoms: C_7  and  C_3 
REMARK       I    between atoms: N_10  and  C_7 
REMARK    2  A    between atoms: C_16  and  N_10 
REMARK    3  A    between atoms: C_15  and  C_16 
ROOT
ATOM      1  C   UNL d   1      53.052  33.077  53.779  0.00  0.00     0.063 A 
ATOM      2  C   UNL d   1      52.447  32.997  53.217  0.00  0.00     0.033 A 
ATOM      3  C   UNL d   1      52.131  33.751  53.078  0.00  0.00     0.158 A 
ATOM      4  C   UNL d   1      53.109  33.873  53.986  0.00  0.00     0.099 A 
ATOM      5  O   UNL d   1      52.539  34.289  53.552  0.00  0.00    -0.302 OA
ATOM      6  C   UNL d   1      53.554  32.512  54.121  0.00  0.00     0.194 A 
ATOM      7  C   UNL d   1      53.668  34.109  54.536  0.00  0.00     0.002 A 
ATOM      8  C   UNL d   1      54.172  33.568  54.885  0.00  0.00     0.042 A 
ATOM      9  C   UNL d   1      54.114  32.768  54.677  0.00  0.00     0.019 A 
ATOM     10  O   UNL d   1      53.496  31.707  53.912  0.00  0.00    -0.287 OA
ATOM     11  C   UNL d   1      52.091  32.394  52.778  0.00  0.00     0.002 C 
ATOM     12  C   UNL d   1      54.789  33.389  55.408  0.00  0.00     0.009 C 
ATOM     13  C   UNL d   1      54.387  34.289  55.220  0.00  0.00     0.009 C 
ENDROOT
BRANCH   3  14
ATOM     14  C   UNL d   1      51.516  33.933  52.559  0.00  0.00     0.302 C 
ATOM     15  N   UNL d   1      50.809  34.262  52.847  0.00  0.00    -0.205 NA
ATOM     16  O   UNL d   1      51.602  33.790  51.745  0.00  0.00    -0.263 OA
BRANCH  15  17
ATOM     17  C   UNL d   1      50.193  34.446  52.331  0.00  0.00     0.104 C 
BRANCH  17  18
ATOM     18  C   UNL d   1      49.545  34.877  52.600  0.00  0.00     0.038 A 
ATOM     19  C   UNL d   1      49.564  35.219  53.352  0.00  0.00     0.101 A 
ATOM     20  N   UNL d   1      48.917  35.647  53.614  0.00  0.00    -0.242 NA
ATOM     21  C   UNL d   1      48.254  35.740  53.145  0.00  0.00     0.099 A 
ATOM     22  C   UNL d   1      48.238  35.394  52.391  0.00  0.00     0.021 A 
ATOM     23  C   UNL d   1      48.886  34.963  52.122  0.00  0.00     0.005 A 
ENDBRANCH  17  18
ENDBRANCH  15  17
ENDBRANCH   3  14
TORSDOF 3
ENDMDL
MODEL 3
REMARK VINA RESULT:      -8.4      2.141      4.839
REMARK  3 active torsions:
REMARK  status: ('A' for Active; 'I' for Inactive)
REMARK    1  A    between atoms: C_7  and  C_3 
REMARK       I    between atoms: N_10  and  C_7 
REMARK    2  A    between atoms: C_16  and  N_10 
REMARK    3  A    between atoms: C_15  and  C_16 
ROOT
ATOM      1  C   UNL d   1      52.409  33.693  53.394  0.00  0.00     0.063 A 
ATOM      2  C   UNL d   1      52.218  32.968  53.039  0.00  0.00     0.033 A 
ATOM      3  C   UNL d   1      52.821  32.429  53.222  0.00  0.00     0.158 A 
ATOM      4  C   UNL d   1      53.125  33.602  53.794  0.00  0.00     0.099 A 
ATOM      5  O   UNL d   1      53.379  32.822  53.687  0.00  0.00    -0.302 OA
ATOM      6  C   UNL d   1      52.010  34.420  53.396  0.00  0.00     0.194 A 
ATOM      7  C   UNL d   1      53.446  34.239  54.197  0.00  0.00     0.002 A 
ATOM      8  C   UNL d   1      53.069  34.964  54.211  0.00  0.00     0.042 A 
ATOM      9  C   UNL d   1      52.349  35.054  53.810  0.00  0.00     0.019 A 
ATOM     10  O   UNL d   1      51.287  34.511  52.992  0.00  0.00    -0.287 OA
ATOM     11  C   UNL d   1      51.613  32.653  52.571  0.00  0.00     0.002 C 
ATOM     12  C   UNL d   1      53.034  35.756  54.453  0.00  0.00     0.009 C 
ATOM     13  C   UNL d   1      53.749  35.083  54.660  0.00  0.00     0.009 C 
ENDROOT
BRANCH   3  14
ATOM     14  C   UNL d   1      52.859  31.640  52.984  0.00  0.00     0.302 C 
ATOM     15  N   UNL d   1      52.954  31.038  53.547  0.00  0.00    -0.205 NA
ATOM     16  O   UNL d   1      52.803  31.446  52.178  0.00  0.00    -0.263 OA
BRANCH  15  17
ATOM     17  C   UNL d   1      52.993  30.248  53.313  0.00  0.00     0.104 C 
BRANCH  17  18
ATOM     18  C   UNL d   1      53.144  29.660  53.869  0.00  0.00     0.038 A 
ATOM     19  C   UNL d   1      52.598  29.515  54.471  0.00  0.00     0.101 A 
ATOM     20  N   UNL d   1      52.754  28.929  55.021  0.00  0.00    -0.242 NA
ATOM     21  C   UNL d   1      53.440  28.486  54.983  0.00  0.00     0.099 A 
ATOM     22  C   UNL d   1      53.987  28.635  54.377  0.00  0.00     0.021 A 
ATOM     23  C   UNL d   1      53.835  29.223  53.821  0.00  0.00     0.005 A 
ENDBRANCH  17  18
ENDBRANCH  15  17
ENDBRANCH   3  14
TORSDOF 3
ENDMDL
MODEL 4
REMARK VINA RESULT:      -7.8      1.331      4.744
REMARK  3 active torsions:
REMARK  status: ('A' for Active; 'I' for Inactive)
REMARK    1  A    between atoms: C_7  and  C_3 
REMARK       I    between atoms: N_10  and  C_7 
REMARK    2  A    between atoms: C_16  and  N_10 
REMARK    3  A    between atoms: C_15  and  C_16 
ROOT
ATOM      1  C   UNL d   1      50.186  34.567  52.542  0.00  0.00     0.063 A 
ATOM      2  C   UNL d   1      50.880  34.413  52.968  0.00  0.00     0.033 A 
ATOM      3  C   UNL d   1      51.383  33.968  52.481  0.00  0.00     0.158 A 
ATOM      4  C   UNL d   1      50.259  34.221  51.797  0.00  0.00     0.099 A 
ATOM      5  O   UNL d   1      50.998  33.851  51.760  0.00  0.00    -0.302 OA
ATOM      6  C   UNL d   1      49.500  34.984  52.751  0.00  0.00     0.194 A 
ATOM      7  C   UNL d   1      49.646  34.289  51.258  0.00  0.00     0.002 A 
ATOM      8  C   UNL d   1      48.962  34.695  51.445  0.00  0.00     0.042 A 
ATOM      9  C   UNL d   1      48.889  35.043  52.193  0.00  0.00     0.019 A 
ATOM     10  O   UNL d   1      49.426  35.334  53.505  0.00  0.00    -0.287 OA
ATOM     11  C   UNL d   1      51.192  34.577  53.717  0.00  0.00     0.002 C 
ATOM     12  C   UNL d   1      48.207  34.972  51.242  0.00  0.00     0.009 C 
ATOM     13  C   UNL d   1      48.836  34.433  50.674  0.00  0.00     0.009 C 
ENDROOT
BRANCH   3  14
ATOM     14  C   UNL d   1      52.134  33.691  52.679  0.00  0.00     0.302 C 
ATOM     15  N   UNL d   1      52.268  32.876  52.769  0.00  0.00    -0.205 NA
ATOM     16  O   UNL d   1      52.760  34.226  52.790  0.00  0.00    -0.263 OA
BRANCH  15  17
ATOM     17  C   UNL d   1      53.018  32.595  52.967  0.00  0.00     0.104 C 
BRANCH  17  18
ATOM     18  C   UNL d   1      53.121  31.804  53.170  0.00  0.00     0.038 A 
ATOM     19  C   UNL d   1      53.583  31.606  53.826  0.00  0.00     0.101 A 
ATOM     20  N   UNL d   1      53.682  30.818  54.023  0.00  0.00    -0.242 NA
ATOM     21  C   UNL d   1      53.332  30.225  53.583  0.00  0.00     0.099 A 
ATOM     22  C   UNL d   1      52.868  30.427  52.924  0.00  0.00     0.021 A 
ATOM     23  C   UNL d   1      52.765  31.219  52.721  0.00  0.00     0.005 A 
ENDBRANCH  17  18
ENDBRANCH  15  17
ENDBRANCH   3  14
TORSDOF 3
ENDMDL
MODEL 5
REMARK VINA RESULT:      -7.3      2.308      5.783
REMARK  3 active torsions:
REMARK  status: ('A' for Active; 'I' for Inactive)
REMARK    1  A    between atoms: C_7  and  C_3 
REMARK       I    between atoms: N_10  and  C_7 
REMARK    2  A    between atoms: C_16  and  N_10 
REMARK    3  A    between atoms: C_15  and  C_16 
ROOT
ATOM      1  C   UNL d   1      48.022  35.402  52.159  0.00  0.00     0.063 A 
ATOM      2  C   UNL d   1      48.615  34.955  51.789  0.00  0.00     0.033 A 
ATOM      3  C   UNL d   1      49.265  34.922  52.303  0.00  0.00     0.158 A 
ATOM      4  C   UNL d   1      48.304  35.644  52.896  0.00  0.00     0.099 A 
ATOM      5  O   UNL d   1      49.071  35.347  52.984  0.00  0.00    -0.302 OA
ATOM      6  C   UNL d   1      47.262  35.614  51.904  0.00  0.00     0.194 A 
ATOM      7  C   UNL d   1      47.826  36.098  53.382  0.00  0.00     0.002 A 
ATOM      8  C   UNL d   1      47.074  36.317  53.150  0.00  0.00     0.042 A 
ATOM      9  C   UNL d   1      46.791  36.074  52.409  0.00  0.00     0.019 A 
ATOM     10  O   UNL d   1      46.977  35.369  51.160  0.00  0.00    -0.287 OA
ATOM     11  C   UNL d   1      48.726  34.551  51.077  0.00  0.00     0.002 C 
ATOM     12  C   UNL d   1      46.357  36.708  53.295  0.00  0.00     0.009 C 
ATOM     13  C   UNL d   1      47.158  36.652  53.898  0.00  0.00     0.009 C 
ENDROOT
BRANCH   3  14
ATOM     14  C   UNL d   1      49.979  34.534  52.162  0.00  0.00     0.302 C 
ATOM     15  N   UNL d   1      50.570  34.521  52.746  0.00  0.00    -0.205 NA
ATOM     16  O   UNL d   1      50.110  34.154  51.434  0.00  0.00    -0.263 OA
BRANCH  15  17
ATOM     17  C   UNL d   1      51.285  34.135  52.608  0.00  0.00     0.104 C 
BRANCH  17  18
ATOM     18  C   UNL d   1      51.883  34.160  53.174  0.00  0.00     0.038 A 
ATOM     19  C   UNL d   1      52.022  33.502  53.653  0.00  0.00     0.101 A 
ATOM     20  N   UNL d   1      52.618  33.533  54.214  0.00  0.00    -0.242 NA
ATOM     21  C   UNL d   1      53.076  34.204  54.307  0.00  0.00     0.099 A 
ATOM     22  C   UNL d   1      52.933  34.864  53.824  0.00  0.00     0.021 A 
ATOM     23  C   UNL d   1      52.335  34.838  53.258  0.00  0.00     0.005 A 
ENDBRANCH  17  18
ENDBRANCH  15  17
ENDBRANCH   3  14
TORSDOF 3
ENDMDL
MODEL 6
REMARK VINA RESULT:      -7.3      2.466      3.181
REMARK  3 active torsions:
REMARK  status: ('A' for Active; 'I' for Inactive)
REMARK    1  A    between atoms: C_7  and  C_3 
REMARK       I    between atoms: N_10  and  C_7 
REMARK    2  A    between atoms: C_16  and  N_10 
REMARK    3  A    between atoms: C_15  and  C_16 
ROOT
ATOM      1  C   UNL d   1      53.172  30.352  53.576  0.00  0.00     0.063 A 
ATOM      2  C   UNL d   1      53.232  31.079  53.180  0.00  0.00     0.033 A 
ATOM      3  C   UNL d   1      53.698  31.583  53.645  0.00  0.00     0.158 A 
ATOM      4  C   UNL d   1      53.598  30.407  54.280  0.00  0.00     0.099 A 
ATOM      5  O   UNL d   1      53.923  31.167  54.323  0.00  0.00    -0.302 OA
ATOM      6  C   UNL d   1      52.778  29.652  53.370  0.00  0.00     0.194 A 
ATOM      7  C   UNL d   1      53.632  29.761  54.783  0.00  0.00     0.002 A 
ATOM      8  C   UNL d   1      53.250  29.062  54.599  0.00  0.00     0.042 A 
ATOM      9  C   UNL d   1      52.822  29.007  53.891  0.00  0.00     0.019 A 
ATOM     10  O   UNL d   1      52.348  29.597  52.658  0.00  0.00    -0.287 OA
ATOM     11  C   UNL d   1      52.963  31.420  52.477  0.00  0.00     0.002 C 
ATOM     12  C   UNL d   1      53.047  28.279  54.782  0.00  0.00     0.009 C 
ATOM     13  C   UNL d   1      53.608  28.910  55.325  0.00  0.00     0.009 C 
ENDROOT
BRANCH   3  14
ATOM     14  C   UNL d   1      53.903  32.362  53.466  0.00  0.00     0.302 C 
ATOM     15  N   UNL d   1      53.526  32.992  53.854  0.00  0.00    -0.205 NA
ATOM     16  O   UNL d   1      54.487  32.518  52.897  0.00  0.00    -0.263 OA
BRANCH  15  17
ATOM     17  C   UNL d   1      53.728  33.772  53.678  0.00  0.00     0.104 C 
BRANCH  17  18
ATOM     18  C   UNL d   1      53.375  34.392  54.088  0.00  0.00     0.038 A 
ATOM     19  C   UNL d   1      53.601  34.550  54.867  0.00  0.00     0.101 A 
ATOM     20  N   UNL d   1      53.246  35.168  55.269  0.00  0.00    -0.242 NA
ATOM     21  C   UNL d   1      52.672  35.630  54.915  0.00  0.00     0.099 A 
ATOM     22  C   UNL d   1      52.447  35.468  54.132  0.00  0.00     0.021 A 
ATOM     23  C   UNL d   1      52.801  34.848  53.722  0.00  0.00     0.005 A 
ENDBRANCH  17  18
ENDBRANCH  15  17
ENDBRANCH   3  14
TORSDOF 3
ENDMDL
MODEL 7
REMARK VINA RESULT:      -6.7      9.796     10.428
REMARK  3 active torsions:
REMARK  status: ('A' for Active; 'I' for Inactive)
REMARK    1  A    between atoms: C_7  and  C_3 
REMARK       I    between atoms: N_10  and  C_7 
REMARK    2  A    between atoms: C_16  and  N_10 
REMARK    3  A    between atoms: C_15  and  C_16 
ROOT
ATOM      1  C   UNL d   1      45.010  29.119  57.638  0.00  0.00     0.063 A 
ATOM      2  C   UNL d   1      44.890  29.883  57.938  0.00  0.00     0.033 A 
ATOM      3  C   UNL d   1      44.993  29.851  58.760  0.00  0.00     0.158 A 
ATOM      4  C   UNL d   1      45.187  28.619  58.270  0.00  0.00     0.099 A 
ATOM      5  O   UNL d   1      45.176  29.071  58.963  0.00  0.00    -0.302 OA
ATOM      6  C   UNL d   1      44.978  28.828  56.862  0.00  0.00     0.194 A 
ATOM      7  C   UNL d   1      45.332  27.825  58.129  0.00  0.00     0.002 A 
ATOM      8  C   UNL d   1      45.305  27.519  57.372  0.00  0.00     0.042 A 
ATOM      9  C   UNL d   1      45.128  28.021  56.737  0.00  0.00     0.019 A 
ATOM     10  O   UNL d   1      44.799  29.334  56.224  0.00  0.00    -0.287 OA
ATOM     11  C   UNL d   1      44.702  30.634  57.650  0.00  0.00     0.002 C 
ATOM     12  C   UNL d   1      45.374  26.880  56.847  0.00  0.00     0.009 C 
ATOM     13  C   UNL d   1      45.493  26.870  57.844  0.00  0.00     0.009 C 
ENDROOT
BRANCH   3  14
ATOM     14  C   UNL d   1      44.926  30.484  59.285  0.00  0.00     0.302 C 
ATOM     15  N   UNL d   1      44.772  30.344  60.090  0.00  0.00    -0.205 NA
ATOM     16  O   UNL d   1      45.013  31.263  59.011  0.00  0.00    -0.263 OA
BRANCH  15  17
ATOM     17  C   UNL d   1      44.704  30.975  60.618  0.00  0.00     0.104 C 
BRANCH  17  18
ATOM     18  C   UNL d   1      44.604  30.830  61.422  0.00  0.00     0.038 A 
ATOM     19  C   UNL d   1      44.696  30.063  61.714  0.00  0.00     0.101 A 
ATOM     20  N   UNL d   1      44.596  29.924  62.515  0.00  0.00    -0.242 NA
ATOM     21  C   UNL d   1      44.406  30.532  63.028  0.00  0.00     0.099 A 
ATOM     22  C   UNL d   1      44.314  31.301  62.731  0.00  0.00     0.021 A 
ATOM     23  C   UNL d   1      44.414  31.446  61.926  0.00  0.00     0.005 A 
ENDBRANCH  17  18
ENDBRANCH  15  17
ENDBRANCH   3  14
TORSDOF 3
ENDMDL
MODEL 8
REMARK VINA RESULT:      -6.4     10.322     11.012
REMARK  3 active torsions:
REMARK  status: ('A' for Active; 'I' for Inactive)
REMARK    1  A    between atoms: C_7  and  C_3 
REMARK       I    between atoms: N_10  and  C_7 
REMARK    2  A    between atoms: C_16  and  N_10 
REMARK    3  A    between atoms: C_15  and  C_16 
ROOT
ATOM      1  C   UNL d   1      44.626  30.605  60.959  0.00  0.00     0.063 A 
ATOM      2  C   UNL d   1      44.732  30.752  60.150  0.00  0.00     0.033 A 
ATOM      3  C   UNL d   1      44.918  30.032  59.783  0.00  0.00     0.158 A 
ATOM      4  C   UNL d   1      44.745  29.799  61.092  0.00  0.00     0.099 A 
ATOM      5  O   UNL d   1      44.926  29.446  60.365  0.00  0.00    -0.302 OA
ATOM      6  C   UNL d   1      44.435  31.115  61.584  0.00  0.00     0.194 A 
ATOM      7  C   UNL d   1      44.674  29.500  61.851  0.00  0.00     0.002 A 
ATOM      8  C   UNL d   1      44.486  29.986  62.481  0.00  0.00     0.042 A 
ATOM      9  C   UNL d   1      44.367  30.795  62.347  0.00  0.00     0.019 A 
ATOM     10  O   UNL d   1      44.314  31.929  61.450  0.00  0.00    -0.287 OA
ATOM     11  C   UNL d   1      44.703  31.397  59.633  0.00  0.00     0.002 C 
ATOM     12  C   UNL d   1      44.336  30.097  63.288  0.00  0.00     0.009 C 
ATOM     13  C   UNL d   1      44.562  29.239  62.819  0.00  0.00     0.009 C 
ENDROOT
BRANCH   3  14
ATOM     14  C   UNL d   1      45.069  29.918  58.980  0.00  0.00     0.302 C 
ATOM     15  N   UNL d   1      44.986  29.163  58.643  0.00  0.00    -0.205 NA
ATOM     16  O   UNL d   1      45.304  30.558  58.506  0.00  0.00    -0.263 OA
BRANCH  15  17
ATOM     17  C   UNL d   1      45.136  29.045  57.841  0.00  0.00     0.104 C 
BRANCH  17  18
ATOM     18  C   UNL d   1      45.028  28.300  57.507  0.00  0.00     0.038 A 
ATOM     19  C   UNL d   1      44.416  28.178  56.966  0.00  0.00     0.101 A 
ATOM     20  N   UNL d   1      44.314  27.435  56.638  0.00  0.00    -0.242 NA
ATOM     21  C   UNL d   1      44.808  26.814  56.835  0.00  0.00     0.099 A 
ATOM     22  C   UNL d   1      45.422  26.941  57.379  0.00  0.00     0.021 A 
ATOM     23  C   UNL d   1      45.529  27.686  57.713  0.00  0.00     0.005 A 
ENDBRANCH  17  18
ENDBRANCH  15  17
ENDBRANCH   3  14
TORSDOF 3
ENDMDL
