MODEL 1
REMARK VINA RESULT:      -5.1      0.000      0.000
REMARK  4 active torsions:
REMARK  status: ('A' for Active; 'I' for Inactive)
REMARK    1  A    between atoms: C_11  and  N_2 
REMARK    2  A    between atoms: N_3  and  C_14 
REMARK    3  A    between atoms: C_16  and  C_11 
REMARK    4  A    between atoms: C_14  and  C_16 
ROOT
ATOM      1  C   UNL d   1      58.044  -0.635  30.568  0.00  0.00     0.231 C 
ATOM      2  O   UNL d   1      58.536  -0.322  31.153  0.00  0.00    -0.283 OA
ENDROOT
BRANCH   1   3
ATOM      3  C   UNL d   1      58.256  -0.576  29.771  0.00  0.00     0.124 C 
BRANCH   3   4
ATOM      4  N   UNL d   1      59.018  -0.794  29.531  0.00  0.00    -0.303 N 
ATOM      5  C   UNL d   1      59.695  -0.304  29.534  0.00  0.00     0.064 A 
ATOM      6  C   UNL d   1      60.331  -0.753  29.250  0.00  0.00     0.018 A 
ATOM      7  C   UNL d   1      59.722   0.484  29.778  0.00  0.00     0.019 C 
ATOM      8  C   UNL d   1      61.104  -0.486  29.161  0.00  0.00     0.002 C 
ATOM      9  C   UNL d   1      60.056  -1.513  29.071  0.00  0.00     0.018 A 
ATOM     10  C   UNL d   1      59.240  -1.539  29.245  0.00  0.00     0.064 A 
ATOM     11  C   UNL d   1      60.435  -2.190  28.771  0.00  0.00     0.002 A 
ATOM     12  C   UNL d   1      58.814  -2.241  29.118  0.00  0.00     0.018 A 
ATOM     13  C   UNL d   1      59.193  -2.908  28.822  0.00  0.00     0.002 A 
ATOM     14  C   UNL d   1      60.001  -2.883  28.649  0.00  0.00     0.000 A 
ENDBRANCH   3   4
ENDBRANCH   1   3
BRANCH   1  15
ATOM     15  C   UNL d   1      57.344  -1.005  30.779  0.00  0.00     0.138 C 
BRANCH  15  16
ATOM     16  N   UNL d   1      56.906  -0.735  31.429  0.00  0.00    -0.194 N 
ATOM     17  S   UNL d   1      56.637  -1.193  32.059  0.00  0.00     0.274 S 
ATOM     18  C   UNL d   1      56.229  -0.698  32.575  0.00  0.00     0.109 A 
ATOM     19  O   UNL d   1      56.994  -1.837  31.686  0.00  0.00    -0.200 OA
ATOM     20  O   UNL d   1      56.300  -1.496  32.748  0.00  0.00    -0.200 OA
ATOM     21  C   UNL d   1      56.247   0.065  32.263  0.00  0.00     0.069 A 
ATOM     22  C   UNL d   1      55.845  -0.836  33.285  0.00  0.00     0.013 A 
ATOM     23  C   UNL d   1      55.882   0.682  32.660  0.00  0.00     0.005 A 
ATOM     24  C   UNL d   1      56.665   0.042  31.554  0.00  0.00     0.275 A 
ATOM     25  C   UNL d   1      55.499   0.539  33.369  0.00  0.00     0.000 A 
ATOM     26  C   UNL d   1      55.481  -0.222  33.681  0.00  0.00     0.001 A 
ATOM     27  O   UNL d   1      56.817   0.682  31.058  0.00  0.00    -0.266 OA
ENDBRANCH  15  16
ENDBRANCH   1  15
TORSDOF 4
ENDMDL
