MODEL 1
REMARK VINA RESULT:       8.7      0.000      0.000
REMARK  1 active torsions:
REMARK  status: ('A' for Active; 'I' for Inactive)
REMARK    1  A    between atoms: C_8  and  C_2 
ROOT
ATOM      1  N   UNL d   1      46.298 -17.802  42.881  0.00  0.00    -0.191 NA
ATOM      2  C   UNL d   1      46.408 -18.602  42.836  0.00  0.00     0.087 A 
ATOM      3  C   UNL d   1      46.240 -17.440  43.634  0.00  0.00     0.369 A 
ATOM      4  N   UNL d   1      46.293 -17.885  44.327  0.00  0.00    -0.191 NA
ATOM      5  C   UNL d   1      46.466 -19.070  43.504  0.00  0.00     0.036 A 
ATOM      6  C   UNL d   1      46.408 -18.708  44.256  0.00  0.00     0.088 A 
ATOM      7  O   UNL d   1      46.126 -16.621  43.706  0.00  0.00    -0.242 OA
ATOM      8  C   UNL d   1      46.576 -19.869  43.459  0.00  0.00     0.003 A 
ATOM      9  C   UNL d   1      46.461 -19.152  44.949  0.00  0.00     0.019 A 
ATOM     10  C   UNL d   1      46.632 -20.328  44.122  0.00  0.00     0.000 A 
ATOM     11  C   UNL d   1      46.574 -19.966  44.875  0.00  0.00     0.002 A 
ENDROOT
BRANCH   2  12
ATOM     12  C   UNL d   1      46.466 -18.964  42.083  0.00  0.00     0.018 A 
ATOM     13  C   UNL d   1      46.548 -18.499  41.427  0.00  0.00     0.002 A 
ATOM     14  C   UNL d   1      46.607 -18.865  40.665  0.00  0.00     0.000 A 
ATOM     15  C   UNL d   1      46.580 -19.672  40.612  0.00  0.00     0.000 A 
ATOM     16  C   UNL d   1      46.497 -20.146  41.272  0.00  0.00     0.000 A 
ATOM     17  C   UNL d   1      46.439 -19.780  42.035  0.00  0.00     0.002 A 
ENDBRANCH   2  12
TORSDOF 1
ENDMDL
