MODEL 1
REMARK VINA RESULT:      -3.5      0.000      0.000
REMARK  4 active torsions:
REMARK  status: ('A' for Active; 'I' for Inactive)
REMARK    1  A    between atoms: C_12  and  N_1 
REMARK    2  A    between atoms: N_2  and  C_11 
REMARK    3  A    between atoms: C_11  and  C_15 
REMARK    4  A    between atoms: C_15  and  C_12 
ROOT
ATOM      1  N   UNL d   1      58.953  -0.529  29.566  0.00  0.00    -0.303 N 
ATOM      2  C   UNL d   1      59.686  -0.125  29.500  0.00  0.00     0.064 A 
ATOM      3  C   UNL d   1      60.252  -0.677  29.216  0.00  0.00     0.018 A 
ATOM      4  C   UNL d   1      59.866  -1.406  29.111  0.00  0.00     0.018 A 
ATOM      5  C   UNL d   1      59.073  -1.316  29.325  0.00  0.00     0.064 A 
ATOM      6  C   UNL d   1      58.556  -1.957  29.275  0.00  0.00     0.018 A 
ATOM      7  C   UNL d   1      60.142  -2.138  28.847  0.00  0.00     0.002 A 
ATOM      8  C   UNL d   1      58.832  -2.688  29.012  0.00  0.00     0.002 A 
ATOM      9  C   UNL d   1      59.626  -2.779  28.798  0.00  0.00     0.000 A 
ATOM     10  C   UNL d   1      59.825   0.670  29.681  0.00  0.00     0.019 C 
ATOM     11  C   UNL d   1      61.044  -0.521  29.068  0.00  0.00     0.002 C 
ATOM     12  C   UNL d   1      59.902  -3.510  28.534  0.00  0.00     0.000 C 
ENDROOT
BRANCH   1  13
ATOM     13  C   UNL d   1      58.244  -0.190  29.827  0.00  0.00     0.124 C 
BRANCH  13  14
ATOM     14  C   UNL d   1      58.089  -0.148  30.639  0.00  0.00     0.232 C 
ATOM     15  O   UNL d   1      58.708  -0.025  31.175  0.00  0.00    -0.283 OA
BRANCH  14  16
ATOM     16  C   UNL d   1      57.319  -0.228  30.912  0.00  0.00     0.144 C 
BRANCH  16  17
ATOM     17  N   UNL d   1      57.155  -0.167  31.722  0.00  0.00    -0.225 N 
ATOM     18  N   UNL d   1      57.475   0.389  32.239  0.00  0.00    -0.165 NA
ATOM     19  C   UNL d   1      57.162   0.251  32.994  0.00  0.00     0.109 A 
ATOM     20  C   UNL d   1      57.335   0.681  33.675  0.00  0.00     0.023 C 
ATOM     21  C   UNL d   1      56.645  -0.394  32.937  0.00  0.00     0.072 A 
ATOM     22  C   UNL d   1      56.638  -0.653  32.157  0.00  0.00     0.091 A 
ATOM     23 BR   UNL d   1      56.210  -0.721  33.558  0.00  0.00    -0.046 Br
ATOM     24  C   UNL d   1      56.199  -1.284  31.855  0.00  0.00     0.021 C 
ENDBRANCH  16  17
ENDBRANCH  14  16
ENDBRANCH  13  14
ENDBRANCH   1  13
TORSDOF 4
ENDMDL
MODEL 2
REMARK VINA RESULT:      -3.1      1.681      4.876
REMARK  4 active torsions:
REMARK  status: ('A' for Active; 'I' for Inactive)
REMARK    1  A    between atoms: C_12  and  N_1 
REMARK    2  A    between atoms: N_2  and  C_11 
REMARK    3  A    between atoms: C_11  and  C_15 
REMARK    4  A    between atoms: C_15  and  C_12 
ROOT
ATOM      1  N   UNL d   1      57.156   0.654  32.245  0.00  0.00    -0.303 N 
ATOM      2  C   UNL d   1      57.844   0.669  32.725  0.00  0.00     0.064 A 
ATOM      3  C   UNL d   1      57.591   0.669  33.526  0.00  0.00     0.018 A 
ATOM      4  C   UNL d   1      56.760   0.654  33.531  0.00  0.00     0.018 A 
ATOM      5  C   UNL d   1      56.494   0.644  32.748  0.00  0.00     0.064 A 
ATOM      6  C   UNL d   1      55.685   0.629  32.586  0.00  0.00     0.018 A 
ATOM      7  C   UNL d   1      56.217   0.647  34.151  0.00  0.00     0.002 A 
ATOM      8  C   UNL d   1      55.142   0.622  33.207  0.00  0.00     0.002 A 
ATOM      9  C   UNL d   1      55.408   0.632  33.990  0.00  0.00     0.000 A 
ATOM     10  C   UNL d   1      58.627   0.682  32.459  0.00  0.00     0.019 C 
ATOM     11  C   UNL d   1      58.080   0.681  34.184  0.00  0.00     0.002 C 
ATOM     12  C   UNL d   1      54.865   0.625  34.611  0.00  0.00     0.000 C 
ENDROOT
BRANCH   1  13
ATOM     13  C   UNL d   1      57.152   0.649  31.417  0.00  0.00     0.124 C 
BRANCH  13  14
ATOM     14  C   UNL d   1      57.512   0.023  31.013  0.00  0.00     0.232 C 
ATOM     15  O   UNL d   1      57.501  -0.741  31.333  0.00  0.00    -0.283 OA
BRANCH  14  16
ATOM     16  C   UNL d   1      57.882   0.160  30.292  0.00  0.00     0.144 C 
BRANCH  16  17
ATOM     17  N   UNL d   1      58.238  -0.464  29.879  0.00  0.00    -0.225 N 
ATOM     18  N   UNL d   1      58.045  -1.262  29.950  0.00  0.00    -0.165 NA
ATOM     19  C   UNL d   1      58.536  -1.693  29.439  0.00  0.00     0.109 A 
ATOM     20  C   UNL d   1      58.527  -2.510  29.337  0.00  0.00     0.023 C 
ATOM     21  C   UNL d   1      59.033  -1.153  29.054  0.00  0.00     0.072 A 
ATOM     22  C   UNL d   1      58.852  -0.397  29.323  0.00  0.00     0.091 A 
ATOM     23 BR   UNL d   1      59.611  -1.342  28.496  0.00  0.00    -0.046 Br
ATOM     24  C   UNL d   1      59.215   0.305  29.084  0.00  0.00     0.021 C 
ENDBRANCH  16  17
ENDBRANCH  14  16
ENDBRANCH  13  14
ENDBRANCH   1  13
TORSDOF 4
ENDMDL
MODEL 3
REMARK VINA RESULT:      -2.9      0.858      1.296
REMARK  4 active torsions:
REMARK  status: ('A' for Active; 'I' for Inactive)
REMARK    1  A    between atoms: C_12  and  N_1 
REMARK    2  A    between atoms: N_2  and  C_11 
REMARK    3  A    between atoms: C_11  and  C_15 
REMARK    4  A    between atoms: C_15  and  C_12 
ROOT
ATOM      1  N   UNL d   1      58.280  -0.729  29.990  0.00  0.00    -0.303 N 
ATOM      2  C   UNL d   1      58.840  -0.121  29.849  0.00  0.00     0.064 A 
ATOM      3  C   UNL d   1      59.473  -0.459  29.413  0.00  0.00     0.018 A 
ATOM      4  C   UNL d   1      59.298  -1.262  29.291  0.00  0.00     0.018 A 
ATOM      5  C   UNL d   1      58.569  -1.428  29.643  0.00  0.00     0.064 A 
ATOM      6  C   UNL d   1      58.256  -2.190  29.607  0.00  0.00     0.018 A 
ATOM      7  C   UNL d   1      59.714  -1.860  28.902  0.00  0.00     0.002 A 
ATOM      8  C   UNL d   1      58.672  -2.787  29.219  0.00  0.00     0.002 A 
ATOM      9  C   UNL d   1      59.401  -2.622  28.866  0.00  0.00     0.000 A 
ATOM     10  C   UNL d   1      58.781   0.667  30.095  0.00  0.00     0.019 C 
ATOM     11  C   UNL d   1      60.144  -0.063  29.154  0.00  0.00     0.002 C 
ATOM     12  C   UNL d   1      59.817  -3.219  28.478  0.00  0.00     0.000 C 
ENDROOT
BRANCH   1  13
ATOM     13  C   UNL d   1      57.568  -0.636  30.403  0.00  0.00     0.124 C 
BRANCH  13  14
ATOM     14  C   UNL d   1      57.554  -0.761  31.221  0.00  0.00     0.232 C 
ATOM     15  O   UNL d   1      57.910  -1.435  31.544  0.00  0.00    -0.283 OA
BRANCH  14  16
ATOM     16  C   UNL d   1      57.186  -0.215  31.712  0.00  0.00     0.144 C 
BRANCH  16  17
ATOM     17  N   UNL d   1      56.626  -0.466  32.269  0.00  0.00    -0.225 N 
ATOM     18  N   UNL d   1      56.200  -1.170  32.242  0.00  0.00    -0.165 NA
ATOM     19  C   UNL d   1      55.704  -1.198  32.906  0.00  0.00     0.109 A 
ATOM     20  C   UNL d   1      55.183  -1.807  33.095  0.00  0.00     0.023 C 
ATOM     21  C   UNL d   1      55.829  -0.504  33.342  0.00  0.00     0.072 A 
ATOM     22  C   UNL d   1      56.396  -0.052  32.953  0.00  0.00     0.091 A 
ATOM     23 BR   UNL d   1      55.451  -0.301  34.047  0.00  0.00    -0.046 Br
ATOM     24  C   UNL d   1      56.685   0.682  33.196  0.00  0.00     0.021 C 
ENDBRANCH  16  17
ENDBRANCH  14  16
ENDBRANCH  13  14
ENDBRANCH   1  13
TORSDOF 4
ENDMDL
MODEL 4
REMARK VINA RESULT:      -1.3      1.598      4.580
REMARK  4 active torsions:
REMARK  status: ('A' for Active; 'I' for Inactive)
REMARK    1  A    between atoms: C_12  and  N_1 
REMARK    2  A    between atoms: N_2  and  C_11 
REMARK    3  A    between atoms: C_11  and  C_15 
REMARK    4  A    between atoms: C_15  and  C_12 
ROOT
ATOM      1  N   UNL d   1      57.726   0.432  31.829  0.00  0.00    -0.303 N 
ATOM      2  C   UNL d   1      58.309   0.568  32.417  0.00  0.00     0.064 A 
ATOM      3  C   UNL d   1      57.920   0.568  33.161  0.00  0.00     0.018 A 
ATOM      4  C   UNL d   1      57.111   0.434  33.026  0.00  0.00     0.018 A 
ATOM      5  C   UNL d   1      56.992   0.351  32.212  0.00  0.00     0.064 A 
ATOM      6  C   UNL d   1      56.235   0.211  31.917  0.00  0.00     0.018 A 
ATOM      7  C   UNL d   1      56.471   0.378  33.544  0.00  0.00     0.002 A 
ATOM      8  C   UNL d   1      55.595   0.155  32.435  0.00  0.00     0.002 A 
ATOM      9  C   UNL d   1      55.714   0.239  33.249  0.00  0.00     0.000 A 
ATOM     10  C   UNL d   1      59.118   0.681  32.288  0.00  0.00     0.019 C 
ATOM     11  C   UNL d   1      58.278   0.681  33.891  0.00  0.00     0.002 C 
ATOM     12  C   UNL d   1      55.075   0.183  33.767  0.00  0.00     0.000 C 
ENDROOT
BRANCH   1  13
ATOM     13  C   UNL d   1      57.871   0.389  31.015  0.00  0.00     0.124 C 
BRANCH  13  14
ATOM     14  C   UNL d   1      58.097  -0.334  30.681  0.00  0.00     0.232 C 
ATOM     15  O   UNL d   1      58.274  -0.980  31.167  0.00  0.00    -0.283 OA
BRANCH  14  16
ATOM     16  C   UNL d   1      58.147  -0.408  29.864  0.00  0.00     0.144 C 
BRANCH  16  17
ATOM     17  N   UNL d   1      58.814  -0.755  29.516  0.00  0.00    -0.225 N 
ATOM     18  N   UNL d   1      59.559  -0.409  29.451  0.00  0.00    -0.165 NA
ATOM     19  C   UNL d   1      60.061  -0.946  29.067  0.00  0.00     0.109 A 
ATOM     20  C   UNL d   1      60.856  -0.821  28.889  0.00  0.00     0.023 C 
ATOM     21  C   UNL d   1      59.618  -1.625  28.897  0.00  0.00     0.072 A 
ATOM     22  C   UNL d   1      58.851  -1.511  29.172  0.00  0.00     0.091 A 
ATOM     23 BR   UNL d   1      59.898  -2.302  28.516  0.00  0.00    -0.046 Br
ATOM     24  C   UNL d   1      58.228  -2.049  29.117  0.00  0.00     0.021 C 
ENDBRANCH  16  17
ENDBRANCH  14  16
ENDBRANCH  13  14
ENDBRANCH   1  13
TORSDOF 4
ENDMDL
