MODEL 1
REMARK VINA RESULT:      -6.9      0.000      0.000
REMARK  5 active torsions:
REMARK  status: ('A' for Active; 'I' for Inactive)
REMARK    1  A    between atoms: C_10  and  N_1 
REMARK    2  A    between atoms: C_7  and  C_2 
REMARK    3  A    between atoms: C_3  and  C_11 
REMARK    4  A    between atoms: O_14  and  C_10 
REMARK    5  A    between atoms: C_11  and  O_14 
ROOT
ATOM      1  C   UNL d   1     -48.853  12.960  22.781  0.00  0.00     0.305 C 
ATOM      2  O   UNL d   1     -49.051  12.806  23.572  0.00  0.00    -0.259 OA
ENDROOT
BRANCH   1   3
ATOM      3  C   UNL d   1     -49.440  12.986  22.206  0.00  0.00     0.108 A 
ATOM      4  C   UNL d   1     -49.973  13.607  22.078  0.00  0.00     0.118 A 
ATOM      5  N   UNL d   1     -50.463  13.409  21.453  0.00  0.00    -0.126 NA
ATOM      6  O   UNL d   1     -50.230  12.653  21.191  0.00  0.00    -0.211 OA
ATOM      7  C   UNL d   1     -49.602  12.399  21.657  0.00  0.00     0.132 A 
ATOM      8  C   UNL d   1     -49.210  11.685  21.582  0.00  0.00     0.029 C 
BRANCH   4   9
ATOM      9  C   UNL d   1     -50.008  14.312  22.506  0.00  0.00     0.058 A 
ATOM     10  C   UNL d   1     -50.492  14.370  23.166  0.00  0.00     0.061 A 
ATOM     11 CL   UNL d   1     -51.064  13.984  23.698  0.00  0.00    -0.082 Cl
ATOM     12  C   UNL d   1     -50.531  15.068  23.595  0.00  0.00     0.012 A 
ATOM     13  C   UNL d   1     -50.079  15.712  23.359  0.00  0.00     0.003 A 
ATOM     14  C   UNL d   1     -49.583  15.660  22.687  0.00  0.00     0.030 A 
ATOM     15  C   UNL d   1     -49.554  14.960  22.270  0.00  0.00     0.142 A 
ATOM     16  F   UNL d   1     -49.071  14.893  21.607  0.00  0.00    -0.204 F 
ENDBRANCH   4   9
ENDBRANCH   1   3
BRANCH   1  17
ATOM     17  O   UNL d   1     -48.058  13.088  22.571  0.00  0.00    -0.252 OA
BRANCH  17  18
ATOM     18  C   UNL d   1     -47.462  12.990  23.139  0.00  0.00     0.216 C 
BRANCH  18  19
ATOM     19  N   UNL d   1     -46.675  12.897  22.897  0.00  0.00    -0.218 N 
ATOM     20  C   UNL d   1     -46.225  13.450  22.493  0.00  0.00     0.269 A 
ATOM     21  C   UNL d   1     -45.475  13.132  22.363  0.00  0.00     0.061 A 
ATOM     22  O   UNL d   1     -46.481  14.205  22.254  0.00  0.00    -0.267 OA
ATOM     23  C   UNL d   1     -44.800  13.430  21.990  0.00  0.00     0.005 A 
ATOM     24  C   UNL d   1     -45.463  12.369  22.694  0.00  0.00     0.061 A 
ATOM     25  C   UNL d   1     -44.119  12.972  21.946  0.00  0.00     0.000 A 
ATOM     26  C   UNL d   1     -44.108  12.208  22.277  0.00  0.00     0.000 A 
ATOM     27  C   UNL d   1     -44.778  11.910  22.648  0.00  0.00     0.005 A 
ATOM     28  C   UNL d   1     -46.207  12.217  23.027  0.00  0.00     0.269 A 
ATOM     29  O   UNL d   1     -46.442  11.531  23.413  0.00  0.00    -0.267 OA
ENDBRANCH  18  19
ENDBRANCH  17  18
ENDBRANCH   1  17
TORSDOF 5
ENDMDL
MODEL 2
REMARK VINA RESULT:      -6.9      1.047      2.089
REMARK  5 active torsions:
REMARK  status: ('A' for Active; 'I' for Inactive)
REMARK    1  A    between atoms: C_10  and  N_1 
REMARK    2  A    between atoms: C_7  and  C_2 
REMARK    3  A    between atoms: C_3  and  C_11 
REMARK    4  A    between atoms: O_14  and  C_10 
REMARK    5  A    between atoms: C_11  and  O_14 
ROOT
ATOM      1  C   UNL d   1     -48.822  14.252  22.894  0.00  0.00     0.305 C 
ATOM      2  O   UNL d   1     -48.960  14.404  23.698  0.00  0.00    -0.259 OA
ENDROOT
BRANCH   1   3
ATOM      3  C   UNL d   1     -49.396  14.436  22.335  0.00  0.00     0.108 A 
ATOM      4  C   UNL d   1     -49.998  13.934  22.069  0.00  0.00     0.118 A 
ATOM      5  N   UNL d   1     -50.448  14.333  21.513  0.00  0.00    -0.126 NA
ATOM      6  O   UNL d   1     -50.119  15.095  21.435  0.00  0.00    -0.211 OA
ATOM      7  C   UNL d   1     -49.473  15.152  21.943  0.00  0.00     0.132 A 
ATOM      8  C   UNL d   1     -48.996  15.809  22.035  0.00  0.00     0.029 C 
BRANCH   4   9
ATOM      9  C   UNL d   1     -50.128  13.158  22.318  0.00  0.00     0.058 A 
ATOM     10  C   UNL d   1     -50.544  13.010  23.010  0.00  0.00     0.061 A 
ATOM     11 CL   UNL d   1     -50.969  13.334  23.698  0.00  0.00    -0.082 Cl
ATOM     12  C   UNL d   1     -50.676  12.242  23.262  0.00  0.00     0.012 A 
ATOM     13  C   UNL d   1     -50.388  11.616  22.815  0.00  0.00     0.003 A 
ATOM     14  C   UNL d   1     -49.963  11.758  22.107  0.00  0.00     0.030 A 
ATOM     15  C   UNL d   1     -49.839  12.527  21.868  0.00  0.00     0.142 A 
ATOM     16  F   UNL d   1     -49.424  12.684  21.176  0.00  0.00    -0.204 F 
ENDBRANCH   4   9
ENDBRANCH   1   3
BRANCH   1  17
ATOM     17  O   UNL d   1     -48.101  13.913  22.655  0.00  0.00    -0.252 OA
BRANCH  17  18
ATOM     18  C   UNL d   1     -47.438  13.965  23.151  0.00  0.00     0.216 C 
BRANCH  18  19
ATOM     19  N   UNL d   1     -46.747  13.551  22.958  0.00  0.00    -0.218 N 
ATOM     20  C   UNL d   1     -46.563  12.785  23.185  0.00  0.00     0.269 A 
ATOM     21  C   UNL d   1     -45.824  12.590  22.873  0.00  0.00     0.061 A 
ATOM     22  O   UNL d   1     -47.041  12.288  23.651  0.00  0.00    -0.267 OA
ATOM     23  C   UNL d   1     -45.364  11.906  22.917  0.00  0.00     0.005 A 
ATOM     24  C   UNL d   1     -45.549  13.249  22.446  0.00  0.00     0.061 A 
ATOM     25  C   UNL d   1     -44.634  11.876  22.540  0.00  0.00     0.000 A 
ATOM     26  C   UNL d   1     -44.359  12.535  22.113  0.00  0.00     0.000 A 
ATOM     27  C   UNL d   1     -44.815  13.217  22.068  0.00  0.00     0.005 A 
ATOM     28  C   UNL d   1     -46.118  13.850  22.495  0.00  0.00     0.269 A 
ATOM     29  O   UNL d   1     -46.076  14.595  22.156  0.00  0.00    -0.267 OA
ENDBRANCH  18  19
ENDBRANCH  17  18
ENDBRANCH   1  17
TORSDOF 5
ENDMDL
MODEL 3
REMARK VINA RESULT:      -6.8      0.937      1.466
REMARK  5 active torsions:
REMARK  status: ('A' for Active; 'I' for Inactive)
REMARK    1  A    between atoms: C_10  and  N_1 
REMARK    2  A    between atoms: C_7  and  C_2 
REMARK    3  A    between atoms: C_3  and  C_11 
REMARK    4  A    between atoms: O_14  and  C_10 
REMARK    5  A    between atoms: C_11  and  O_14 
ROOT
ATOM      1  C   UNL d   1     -49.232  12.885  22.953  0.00  0.00     0.305 C 
ATOM      2  O   UNL d   1     -49.590  12.956  23.698  0.00  0.00    -0.259 OA
ENDROOT
BRANCH   1   3
ATOM      3  C   UNL d   1     -49.652  13.081  22.274  0.00  0.00     0.108 A 
ATOM      4  C   UNL d   1     -49.893  13.841  22.050  0.00  0.00     0.118 A 
ATOM      5  N   UNL d   1     -50.294  13.791  21.338  0.00  0.00    -0.126 NA
ATOM      6  O   UNL d   1     -50.301  12.987  21.119  0.00  0.00    -0.211 OA
ATOM      7  C   UNL d   1     -49.905  12.557  21.697  0.00  0.00     0.132 A 
ATOM      8  C   UNL d   1     -49.788  11.747  21.693  0.00  0.00     0.029 C 
BRANCH   4   9
ATOM      9  C   UNL d   1     -49.755  14.537  22.470  0.00  0.00     0.058 A 
ATOM     10  C   UNL d   1     -50.294  14.795  23.033  0.00  0.00     0.061 A 
ATOM     11 CL   UNL d   1     -51.047  14.657  23.450  0.00  0.00    -0.082 Cl
ATOM     12  C   UNL d   1     -50.162  15.485  23.454  0.00  0.00     0.012 A 
ATOM     13  C   UNL d   1     -49.481  15.922  23.308  0.00  0.00     0.003 A 
ATOM     14  C   UNL d   1     -48.926  15.666  22.736  0.00  0.00     0.030 A 
ATOM     15  C   UNL d   1     -49.070  14.977  22.325  0.00  0.00     0.142 A 
ATOM     16  F   UNL d   1     -48.535  14.713  21.760  0.00  0.00    -0.204 F 
ENDBRANCH   4   9
ENDBRANCH   1   3
BRANCH   1  17
ATOM     17  O   UNL d   1     -48.448  12.615  22.895  0.00  0.00    -0.252 OA
BRANCH  17  18
ATOM     18  C   UNL d   1     -48.032  12.407  23.582  0.00  0.00     0.216 C 
BRANCH  18  19
ATOM     19  N   UNL d   1     -47.278  12.070  23.521  0.00  0.00    -0.218 N 
ATOM     20  C   UNL d   1     -47.101  11.271  23.573  0.00  0.00     0.269 A 
ATOM     21  C   UNL d   1     -46.285  11.178  23.481  0.00  0.00     0.061 A 
ATOM     22  O   UNL d   1     -47.649  10.658  23.698  0.00  0.00    -0.267 OA
ATOM     23  C   UNL d   1     -45.797  10.512  23.483  0.00  0.00     0.005 A 
ATOM     24  C   UNL d   1     -45.956  11.934  23.371  0.00  0.00     0.061 A 
ATOM     25  C   UNL d   1     -44.986  10.596  23.375  0.00  0.00     0.000 A 
ATOM     26  C   UNL d   1     -44.657  11.352  23.265  0.00  0.00     0.000 A 
ATOM     27  C   UNL d   1     -45.141  12.016  23.263  0.00  0.00     0.005 A 
ATOM     28  C   UNL d   1     -46.569  12.492  23.394  0.00  0.00     0.269 A 
ATOM     29  O   UNL d   1     -46.495  13.305  23.310  0.00  0.00    -0.267 OA
ENDBRANCH  18  19
ENDBRANCH  17  18
ENDBRANCH   1  17
TORSDOF 5
ENDMDL
MODEL 4
REMARK VINA RESULT:      -6.6      7.853      9.741
REMARK  5 active torsions:
REMARK  status: ('A' for Active; 'I' for Inactive)
REMARK    1  A    between atoms: C_10  and  N_1 
REMARK    2  A    between atoms: C_7  and  C_2 
REMARK    3  A    between atoms: C_3  and  C_11 
REMARK    4  A    between atoms: O_14  and  C_10 
REMARK    5  A    between atoms: C_11  and  O_14 
ROOT
ATOM      1  C   UNL d   1     -40.578  14.504  19.959  0.00  0.00     0.305 C 
ATOM      2  O   UNL d   1     -40.870  13.730  20.017  0.00  0.00    -0.259 OA
ENDROOT
BRANCH   1   3
ATOM      3  C   UNL d   1     -40.576  14.996  20.617  0.00  0.00     0.108 A 
ATOM      4  C   UNL d   1     -40.002  15.012  21.214  0.00  0.00     0.118 A 
ATOM      5  N   UNL d   1     -40.211  15.581  21.765  0.00  0.00    -0.126 NA
ATOM      6  O   UNL d   1     -40.925  15.921  21.504  0.00  0.00    -0.211 OA
ATOM      7  C   UNL d   1     -41.144  15.558  20.799  0.00  0.00     0.132 A 
ATOM      8  C   UNL d   1     -41.813  15.731  20.361  0.00  0.00     0.029 C 
BRANCH   4   9
ATOM      9  C   UNL d   1     -39.329  14.537  21.253  0.00  0.00     0.058 A 
ATOM     10  C   UNL d   1     -38.611  14.812  20.965  0.00  0.00     0.061 A 
ATOM     11 CL   UNL d   1     -38.168  15.460  20.587  0.00  0.00    -0.082 Cl
ATOM     12  C   UNL d   1     -37.940  14.344  21.001  0.00  0.00     0.012 A 
ATOM     13  C   UNL d   1     -37.989  13.592  21.329  0.00  0.00     0.003 A 
ATOM     14  C   UNL d   1     -38.717  13.304  21.624  0.00  0.00     0.030 A 
ATOM     15  C   UNL d   1     -39.378  13.780  21.582  0.00  0.00     0.142 A 
ATOM     16  F   UNL d   1     -40.100  13.512  21.868  0.00  0.00    -0.204 F 
ENDBRANCH   4   9
ENDBRANCH   1   3
BRANCH   1  17
ATOM     17  O   UNL d   1     -40.286  14.782  19.230  0.00  0.00    -0.252 OA
BRANCH  17  18
ATOM     18  C   UNL d   1     -40.462  14.370  18.532  0.00  0.00     0.216 C 
BRANCH  18  19
ATOM     19  N   UNL d   1     -39.934  14.397  17.895  0.00  0.00    -0.218 N 
ATOM     20  C   UNL d   1     -39.795  15.042  17.410  0.00  0.00     0.269 A 
ATOM     21  C   UNL d   1     -39.229  14.829  16.847  0.00  0.00     0.061 A 
ATOM     22  O   UNL d   1     -40.161  15.787  17.473  0.00  0.00    -0.267 OA
ATOM     23  C   UNL d   1     -38.878  15.244  16.225  0.00  0.00     0.005 A 
ATOM     24  C   UNL d   1     -39.017  14.038  16.989  0.00  0.00     0.061 A 
ATOM     25  C   UNL d   1     -38.320  14.875  15.748  0.00  0.00     0.000 A 
ATOM     26  C   UNL d   1     -38.108  14.083  15.891  0.00  0.00     0.000 A 
ATOM     27  C   UNL d   1     -38.456  13.668  16.509  0.00  0.00     0.005 A 
ATOM     28  C   UNL d   1     -39.452  13.763  17.640  0.00  0.00     0.269 A 
ATOM     29  O   UNL d   1     -39.418  13.013  17.972  0.00  0.00    -0.267 OA
ENDBRANCH  18  19
ENDBRANCH  17  18
ENDBRANCH   1  17
TORSDOF 5
ENDMDL
