MODEL 1
REMARK VINA RESULT:      -9.0      0.000      0.000
REMARK  5 active torsions:
REMARK  status: ('A' for Active; 'I' for Inactive)
REMARK    1  A    between atoms: S_10  and  C_4 
REMARK    2  A    between atoms: C_15  and  S_10 
REMARK    3  A    between atoms: C_11  and  C_15 
REMARK       I    between atoms: N_12  and  C_11 
REMARK    4  A    between atoms: C_16  and  N_12 
REMARK    5  A    between atoms: C_17  and  C_16 
ROOT
ATOM      1  C   UNL d   1      52.177  33.305  53.032  0.00  0.00     0.141 A 
ATOM      2  C   UNL d   1      52.818  33.276  53.550  0.00  0.00     0.110 A 
ATOM      3  O   UNL d   1      52.060  32.547  52.726  0.00  0.00    -0.303 OA
ATOM      4  C   UNL d   1      51.781  34.017  52.905  0.00  0.00     0.137 A 
ATOM      5  N   UNL d   1      52.027  34.701  53.297  0.00  0.00    -0.218 NA
ATOM      6  C   UNL d   1      53.099  32.499  53.565  0.00  0.00     0.043 A 
ATOM      7  N   UNL d   1      53.064  33.958  53.942  0.00  0.00    -0.225 NA
ATOM      8  C   UNL d   1      52.630  32.049  53.056  0.00  0.00     0.102 A 
ATOM      9  C   UNL d   1      52.668  34.672  53.815  0.00  0.00     0.163 A 
ATOM     10  C   UNL d   1      53.720  32.144  53.976  0.00  0.00     0.004 A 
ATOM     11  C   UNL d   1      52.783  31.244  52.958  0.00  0.00     0.025 A 
ATOM     12  C   UNL d   1      52.914  35.355  54.207  0.00  0.00     0.042 C 
ATOM     13  C   UNL d   1      53.873  31.339  53.878  0.00  0.00     0.000 A 
ATOM     14  C   UNL d   1      53.404  30.889  53.369  0.00  0.00     0.002 A 
ENDROOT
BRANCH   4  15
ATOM     15  S   UNL d   1      51.140  34.048  52.388  0.00  0.00    -0.060 SA
BRANCH  15  16
ATOM     16  C   UNL d   1      50.466  34.481  52.591  0.00  0.00     0.099 C 
BRANCH  16  17
ATOM     17  C   UNL d   1      49.831  34.525  52.068  0.00  0.00     0.286 C 
ATOM     18  N   UNL d   1      49.145  34.929  52.285  0.00  0.00    -0.204 NA
ATOM     19  O   UNL d   1      49.881  34.166  51.326  0.00  0.00    -0.265 OA
BRANCH  18  20
ATOM     20  C   UNL d   1      49.094  35.288  53.025  0.00  0.00     0.127 C 
BRANCH  20  21
ATOM     21  C   UNL d   1      48.444  35.760  53.212  0.00  0.00     0.119 A 
ATOM     22  O   UNL d   1      47.887  36.051  52.677  0.00  0.00    -0.304 OA
ATOM     23  C   UNL d   1      47.336  36.495  53.100  0.00  0.00     0.123 A 
ATOM     24  C   UNL d   1      47.552  36.480  53.896  0.00  0.00     0.029 A 
ATOM     25  C   UNL d   1      48.237  36.025  53.965  0.00  0.00     0.028 A 
ENDBRANCH  20  21
ENDBRANCH  18  20
ENDBRANCH  16  17
ENDBRANCH  15  16
ENDBRANCH   4  15
TORSDOF 5
ENDMDL
MODEL 2
REMARK VINA RESULT:      -8.1      1.265      2.122
REMARK  5 active torsions:
REMARK  status: ('A' for Active; 'I' for Inactive)
REMARK    1  A    between atoms: S_10  and  C_4 
REMARK    2  A    between atoms: C_15  and  S_10 
REMARK    3  A    between atoms: C_11  and  C_15 
REMARK       I    between atoms: N_12  and  C_11 
REMARK    4  A    between atoms: C_16  and  N_12 
REMARK    5  A    between atoms: C_17  and  C_16 
ROOT
ATOM      1  C   UNL d   1      53.191  32.077  53.466  0.00  0.00     0.141 A 
ATOM      2  C   UNL d   1      53.512  31.605  54.061  0.00  0.00     0.110 A 
ATOM      3  O   UNL d   1      52.838  31.581  52.909  0.00  0.00    -0.303 OA
ATOM      4  C   UNL d   1      53.260  32.898  53.508  0.00  0.00     0.137 A 
ATOM      5  N   UNL d   1      53.652  33.246  54.146  0.00  0.00    -0.218 NA
ATOM      6  C   UNL d   1      53.358  30.816  53.872  0.00  0.00     0.043 A 
ATOM      7  N   UNL d   1      53.904  31.953  54.698  0.00  0.00    -0.225 NA
ATOM      8  C   UNL d   1      52.941  30.802  53.159  0.00  0.00     0.102 A 
ATOM      9  C   UNL d   1      53.974  32.774  54.740  0.00  0.00     0.163 A 
ATOM     10  C   UNL d   1      53.543  30.110  54.255  0.00  0.00     0.004 A 
ATOM     11  C   UNL d   1      52.710  30.081  52.832  0.00  0.00     0.025 A 
ATOM     12  C   UNL d   1      54.365  33.122  55.377  0.00  0.00     0.042 C 
ATOM     13  C   UNL d   1      53.311  29.388  53.927  0.00  0.00     0.000 A 
ATOM     14  C   UNL d   1      52.895  29.375  53.216  0.00  0.00     0.002 A 
ENDROOT
BRANCH   4  15
ATOM     15  S   UNL d   1      52.940  33.371  52.914  0.00  0.00    -0.060 SA
BRANCH  15  16
ATOM     16  C   UNL d   1      52.306  33.874  53.084  0.00  0.00     0.099 C 
BRANCH  16  17
ATOM     17  C   UNL d   1      52.156  34.526  52.603  0.00  0.00     0.286 C 
ATOM     18  N   UNL d   1      51.379  34.773  52.472  0.00  0.00    -0.204 NA
ATOM     19  O   UNL d   1      52.783  34.933  52.252  0.00  0.00    -0.265 OA
BRANCH  18  20
ATOM     20  C   UNL d   1      50.753  34.368  52.823  0.00  0.00     0.127 C 
BRANCH  20  21
ATOM     21  C   UNL d   1      49.979  34.632  52.719  0.00  0.00     0.119 A 
ATOM     22  O   UNL d   1      49.543  35.078  53.260  0.00  0.00    -0.304 OA
ATOM     23  C   UNL d   1      48.800  35.219  52.932  0.00  0.00     0.123 A 
ATOM     24  C   UNL d   1      48.775  34.861  52.190  0.00  0.00     0.029 A 
ATOM     25  C   UNL d   1      49.505  34.498  52.058  0.00  0.00     0.028 A 
ENDBRANCH  20  21
ENDBRANCH  18  20
ENDBRANCH  16  17
ENDBRANCH  15  16
ENDBRANCH   4  15
TORSDOF 5
ENDMDL
MODEL 3
REMARK VINA RESULT:      -7.8      1.289      2.106
REMARK  5 active torsions:
REMARK  status: ('A' for Active; 'I' for Inactive)
REMARK    1  A    between atoms: S_10  and  C_4 
REMARK    2  A    between atoms: C_15  and  S_10 
REMARK    3  A    between atoms: C_11  and  C_15 
REMARK       I    between atoms: N_12  and  C_11 
REMARK    4  A    between atoms: C_16  and  N_12 
REMARK    5  A    between atoms: C_17  and  C_16 
ROOT
ATOM      1  C   UNL d   1      52.928  33.406  53.485  0.00  0.00     0.141 A 
ATOM      2  C   UNL d   1      53.318  32.797  53.882  0.00  0.00     0.110 A 
ATOM      3  O   UNL d   1      53.185  34.124  53.802  0.00  0.00    -0.303 OA
ATOM      4  C   UNL d   1      52.390  33.230  52.886  0.00  0.00     0.137 A 
ATOM      5  N   UNL d   1      52.242  32.443  52.684  0.00  0.00    -0.218 NA
ATOM      6  C   UNL d   1      53.817  33.138  54.445  0.00  0.00     0.043 A 
ATOM      7  N   UNL d   1      53.170  32.011  53.680  0.00  0.00    -0.225 NA
ATOM      8  C   UNL d   1      53.734  33.958  54.396  0.00  0.00     0.102 A 
ATOM      9  C   UNL d   1      52.631  31.834  53.080  0.00  0.00     0.163 A 
ATOM     10  C   UNL d   1      54.335  32.808  54.996  0.00  0.00     0.004 A 
ATOM     11  C   UNL d   1      54.169  34.447  54.898  0.00  0.00     0.025 A 
ATOM     12  C   UNL d   1      52.483  31.049  52.878  0.00  0.00     0.042 C 
ATOM     13  C   UNL d   1      54.770  33.298  55.498  0.00  0.00     0.000 A 
ATOM     14  C   UNL d   1      54.687  34.117  55.449  0.00  0.00     0.002 A 
ENDROOT
BRANCH   4  15
ATOM     15  S   UNL d   1      51.999  33.837  52.489  0.00  0.00    -0.060 SA
BRANCH  15  16
ATOM     16  C   UNL d   1      51.173  33.861  52.480  0.00  0.00     0.099 C 
BRANCH  16  17
ATOM     17  C   UNL d   1      50.778  34.235  51.861  0.00  0.00     0.286 C 
ATOM     18  N   UNL d   1      50.074  34.642  52.008  0.00  0.00    -0.204 NA
ATOM     19  O   UNL d   1      51.085  34.204  51.096  0.00  0.00    -0.265 OA
BRANCH  18  20
ATOM     20  C   UNL d   1      49.767  34.674  52.771  0.00  0.00     0.127 C 
BRANCH  20  21
ATOM     21  C   UNL d   1      49.125  35.163  52.939  0.00  0.00     0.119 A 
ATOM     22  O   UNL d   1      49.054  35.661  53.594  0.00  0.00    -0.304 OA
ATOM     23  C   UNL d   1      48.328  36.047  53.542  0.00  0.00     0.123 A 
ATOM     24  C   UNL d   1      47.949  35.788  52.857  0.00  0.00     0.029 A 
ATOM     25  C   UNL d   1      48.442  35.242  52.484  0.00  0.00     0.028 A 
ENDBRANCH  20  21
ENDBRANCH  18  20
ENDBRANCH  16  17
ENDBRANCH  15  16
ENDBRANCH   4  15
TORSDOF 5
ENDMDL
MODEL 4
REMARK VINA RESULT:      -7.1      2.710      5.258
REMARK  5 active torsions:
REMARK  status: ('A' for Active; 'I' for Inactive)
REMARK    1  A    between atoms: S_10  and  C_4 
REMARK    2  A    between atoms: C_15  and  S_10 
REMARK    3  A    between atoms: C_11  and  C_15 
REMARK       I    between atoms: N_12  and  C_11 
REMARK    4  A    between atoms: C_16  and  N_12 
REMARK    5  A    between atoms: C_17  and  C_16 
ROOT
ATOM      1  C   UNL d   1      53.224  32.879  53.634  0.00  0.00     0.141 A 
ATOM      2  C   UNL d   1      53.009  33.593  53.987  0.00  0.00     0.110 A 
ATOM      3  O   UNL d   1      53.982  32.683  53.894  0.00  0.00    -0.303 OA
ATOM      4  C   UNL d   1      52.701  32.499  53.121  0.00  0.00     0.137 A 
ATOM      5  N   UNL d   1      51.964  32.834  52.962  0.00  0.00    -0.218 NA
ATOM      6  C   UNL d   1      53.636  33.839  54.467  0.00  0.00     0.043 A 
ATOM      7  N   UNL d   1      52.273  33.928  53.829  0.00  0.00    -0.225 NA
ATOM      8  C   UNL d   1      54.237  33.276  54.409  0.00  0.00     0.102 A 
ATOM      9  C   UNL d   1      51.749  33.548  53.315  0.00  0.00     0.163 A 
ATOM     10  C   UNL d   1      53.736  34.501  54.947  0.00  0.00     0.004 A 
ATOM     11  C   UNL d   1      54.938  33.377  54.832  0.00  0.00     0.025 A 
ATOM     12  C   UNL d   1      51.013  33.882  53.156  0.00  0.00     0.042 C 
ATOM     13  C   UNL d   1      54.438  34.602  55.371  0.00  0.00     0.000 A 
ATOM     14  C   UNL d   1      55.038  34.039  55.312  0.00  0.00     0.002 A 
ENDROOT
BRANCH   4  15
ATOM     15  S   UNL d   1      52.914  31.786  52.768  0.00  0.00    -0.060 SA
BRANCH  15  16
ATOM     16  C   UNL d   1      52.593  31.076  53.044  0.00  0.00     0.099 C 
BRANCH  16  17
ATOM     17  C   UNL d   1      52.822  30.361  52.706  0.00  0.00     0.286 C 
ATOM     18  N   UNL d   1      52.916  29.692  53.180  0.00  0.00    -0.204 NA
ATOM     19  O   UNL d   1      52.957  30.313  51.893  0.00  0.00    -0.265 OA
BRANCH  18  20
ATOM     20  C   UNL d   1      52.781  29.739  53.991  0.00  0.00     0.127 C 
BRANCH  20  21
ATOM     21  C   UNL d   1      53.084  29.161  54.495  0.00  0.00     0.119 A 
ATOM     22  O   UNL d   1      53.309  28.397  54.277  0.00  0.00    -0.304 OA
ATOM     23  C   UNL d   1      53.580  28.009  54.952  0.00  0.00     0.123 A 
ATOM     24  C   UNL d   1      53.523  28.531  55.588  0.00  0.00     0.029 A 
ATOM     25  C   UNL d   1      53.217  29.244  55.305  0.00  0.00     0.028 A 
ENDBRANCH  20  21
ENDBRANCH  18  20
ENDBRANCH  16  17
ENDBRANCH  15  16
ENDBRANCH   4  15
TORSDOF 5
ENDMDL
MODEL 5
REMARK VINA RESULT:      -6.8      1.793      5.044
REMARK  5 active torsions:
REMARK  status: ('A' for Active; 'I' for Inactive)
REMARK    1  A    between atoms: S_10  and  C_4 
REMARK    2  A    between atoms: C_15  and  S_10 
REMARK    3  A    between atoms: C_11  and  C_15 
REMARK       I    between atoms: N_12  and  C_11 
REMARK    4  A    between atoms: C_16  and  N_12 
REMARK    5  A    between atoms: C_17  and  C_16 
ROOT
ATOM      1  C   UNL d   1      52.208  34.100  53.135  0.00  0.00     0.141 A 
ATOM      2  C   UNL d   1      51.693  34.690  53.392  0.00  0.00     0.110 A 
ATOM      3  O   UNL d   1      51.818  33.652  52.561  0.00  0.00    -0.303 OA
ATOM      4  C   UNL d   1      52.966  34.045  53.455  0.00  0.00     0.137 A 
ATOM      5  N   UNL d   1      53.208  34.582  54.033  0.00  0.00    -0.218 NA
ATOM      6  C   UNL d   1      50.983  34.608  52.977  0.00  0.00     0.043 A 
ATOM      7  N   UNL d   1      51.934  35.227  53.970  0.00  0.00    -0.225 NA
ATOM      8  C   UNL d   1      51.061  33.966  52.464  0.00  0.00     0.102 A 
ATOM      9  C   UNL d   1      52.693  35.173  54.291  0.00  0.00     0.163 A 
ATOM     10  C   UNL d   1      50.277  35.033  53.001  0.00  0.00     0.004 A 
ATOM     11  C   UNL d   1      50.432  33.751  51.975  0.00  0.00     0.025 A 
ATOM     12  C   UNL d   1      52.935  35.709  54.868  0.00  0.00     0.042 C 
ATOM     13  C   UNL d   1      49.648  34.818  52.511  0.00  0.00     0.000 A 
ATOM     14  C   UNL d   1      49.726  34.177  51.999  0.00  0.00     0.002 A 
ENDROOT
BRANCH   4  15
ATOM     15  S   UNL d   1      53.482  33.456  53.199  0.00  0.00    -0.060 SA
BRANCH  15  16
ATOM     16  C   UNL d   1      53.647  32.811  53.688  0.00  0.00     0.099 C 
BRANCH  16  17
ATOM     17  C   UNL d   1      54.258  32.293  53.495  0.00  0.00     0.286 C 
ATOM     18  N   UNL d   1      54.143  31.478  53.560  0.00  0.00    -0.204 NA
ATOM     19  O   UNL d   1      54.984  32.588  53.236  0.00  0.00    -0.265 OA
BRANCH  18  20
ATOM     20  C   UNL d   1      53.419  31.182  53.817  0.00  0.00     0.127 C 
BRANCH  20  21
ATOM     21  C   UNL d   1      53.300  30.368  53.874  0.00  0.00     0.119 A 
ATOM     22  O   UNL d   1      53.544  29.885  54.497  0.00  0.00    -0.304 OA
ATOM     23  C   UNL d   1      53.312  29.113  54.327  0.00  0.00     0.123 A 
ATOM     24  C   UNL d   1      52.925  29.117  53.599  0.00  0.00     0.029 A 
ATOM     25  C   UNL d   1      52.918  29.893  53.318  0.00  0.00     0.028 A 
ENDBRANCH  20  21
ENDBRANCH  18  20
ENDBRANCH  16  17
ENDBRANCH  15  16
ENDBRANCH   4  15
TORSDOF 5
ENDMDL
MODEL 6
REMARK VINA RESULT:      -6.6      1.927      5.370
REMARK  5 active torsions:
REMARK  status: ('A' for Active; 'I' for Inactive)
REMARK    1  A    between atoms: S_10  and  C_4 
REMARK    2  A    between atoms: C_15  and  S_10 
REMARK    3  A    between atoms: C_11  and  C_15 
REMARK       I    between atoms: N_12  and  C_11 
REMARK    4  A    between atoms: C_16  and  N_12 
REMARK    5  A    between atoms: C_17  and  C_16 
ROOT
ATOM      1  C   UNL d   1      52.032  33.211  53.103  0.00  0.00     0.141 A 
ATOM      2  C   UNL d   1      51.883  33.911  53.512  0.00  0.00     0.110 A 
ATOM      3  O   UNL d   1      51.408  33.083  52.577  0.00  0.00    -0.303 OA
ATOM      4  C   UNL d   1      52.717  32.778  53.260  0.00  0.00     0.137 A 
ATOM      5  N   UNL d   1      53.252  33.048  53.828  0.00  0.00    -0.218 NA
ATOM      6  C   UNL d   1      51.165  34.217  53.239  0.00  0.00     0.043 A 
ATOM      7  N   UNL d   1      52.417  34.180  54.079  0.00  0.00    -0.225 NA
ATOM      8  C   UNL d   1      50.873  33.705  52.662  0.00  0.00     0.102 A 
ATOM      9  C   UNL d   1      53.103  33.748  54.237  0.00  0.00     0.163 A 
ATOM     10  C   UNL d   1      50.742  34.895  53.443  0.00  0.00     0.004 A 
ATOM     11  C   UNL d   1      50.156  33.872  52.288  0.00  0.00     0.025 A 
ATOM     12  C   UNL d   1      53.638  34.017  54.804  0.00  0.00     0.042 C 
ATOM     13  C   UNL d   1      50.025  35.062  53.069  0.00  0.00     0.000 A 
ATOM     14  C   UNL d   1      49.733  34.550  52.492  0.00  0.00     0.002 A 
ENDROOT
BRANCH   4  15
ATOM     15  S   UNL d   1      52.868  32.079  52.852  0.00  0.00    -0.060 SA
BRANCH  15  16
ATOM     16  C   UNL d   1      53.037  31.386  53.270  0.00  0.00     0.099 C 
BRANCH  16  17
ATOM     17  C   UNL d   1      53.083  30.665  52.872  0.00  0.00     0.286 C 
ATOM     18  N   UNL d   1      53.134  29.961  53.300  0.00  0.00    -0.204 NA
ATOM     19  O   UNL d   1      53.077  30.648  52.047  0.00  0.00    -0.265 OA
BRANCH  18  20
ATOM     20  C   UNL d   1      53.140  29.977  54.123  0.00  0.00     0.127 C 
BRANCH  20  21
ATOM     21  C   UNL d   1      53.278  29.286  54.550  0.00  0.00     0.119 A 
ATOM     22  O   UNL d   1      53.485  28.552  54.231  0.00  0.00    -0.304 OA
ATOM     23  C   UNL d   1      53.568  28.019  54.853  0.00  0.00     0.123 A 
ATOM     24  C   UNL d   1      53.414  28.420  55.557  0.00  0.00     0.029 A 
ATOM     25  C   UNL d   1      53.235  29.203  55.370  0.00  0.00     0.028 A 
ENDBRANCH  20  21
ENDBRANCH  18  20
ENDBRANCH  16  17
ENDBRANCH  15  16
ENDBRANCH   4  15
TORSDOF 5
ENDMDL
