MODEL 1
REMARK VINA RESULT:      40.8      0.000      0.000
REMARK  5 active torsions:
REMARK  status: ('A' for Active; 'I' for Inactive)
REMARK    1  A    between atoms: C_3  and  C_1 
REMARK    2  A    between atoms: C_4  and  C_3 
REMARK    3  A    between atoms: C_7  and  C_4 
REMARK    4  A    between atoms: C_10  and  C_7 
REMARK    5  A    between atoms: O_19  and  C_9 
ROOT
ATOM      1  C   UNL d   1     -50.233  25.307  33.485  0.00  0.00     0.199 C 
ATOM      2  O   UNL d   1     -49.568  24.821  33.540  0.00  0.00    -0.286 OA
ENDROOT
BRANCH   1   3
ATOM      3  C   UNL d   1     -50.161  26.117  33.606  0.00  0.00     0.078 A 
ATOM      4  C   UNL d   1     -49.430  26.443  33.803  0.00  0.00     0.201 A 
ATOM      5  C   UNL d   1     -49.360  27.259  33.924  0.00  0.00     0.066 A 
ATOM      6  O   UNL d   1     -48.765  25.960  33.881  0.00  0.00    -0.286 OA
ATOM      7  C   UNL d   1     -50.021  27.744  33.848  0.00  0.00     0.097 A 
ATOM      8  C   UNL d   1     -50.753  27.419  33.650  0.00  0.00     0.025 A 
ATOM      9  C   UNL d   1     -50.823  26.607  33.530  0.00  0.00     0.008 A 
BRANCH   7  10
ATOM     10  O   UNL d   1     -49.952  28.563  33.969  0.00  0.00    -0.328 OA
ATOM     11  C   UNL d   1     -49.307  28.866  34.381  0.00  0.00     0.181 C 
ENDBRANCH   7  10
ENDBRANCH   1   3
BRANCH   1  12
ATOM     12  C   UNL d   1     -50.968  24.981  33.309  0.00  0.00     0.042 C 
BRANCH  12  13
ATOM     13  C   UNL d   1     -51.200  24.262  33.655  0.00  0.00     0.003 C 
BRANCH  13  14
ATOM     14  C   UNL d   1     -51.996  24.060  33.695  0.00  0.00     0.000 A 
ATOM     15  C   UNL d   1     -52.225  23.393  34.122  0.00  0.00     0.001 A 
ATOM     16  C   UNL d   1     -53.022  23.190  34.163  0.00  0.00     0.011 A 
ATOM     17  C   UNL d   1     -53.587  23.677  33.761  0.00  0.00     0.058 A 
ATOM     18  C   UNL d   1     -53.358  24.322  33.348  0.00  0.00     0.011 A 
ATOM     19 CL   UNL d   1     -54.381  23.485  33.794  0.00  0.00    -0.082 Cl
ATOM     20  C   UNL d   1     -52.561  24.524  33.308  0.00  0.00     0.001 A 
ENDBRANCH  13  14
ENDBRANCH  12  13
ENDBRANCH   1  12
TORSDOF 5
ENDMDL
