MODEL 1
REMARK VINA RESULT:      42.4      0.000      0.000
REMARK  5 active torsions:
REMARK  status: ('A' for Active; 'I' for Inactive)
REMARK    1  A    between atoms: O_8  and  S_1 
REMARK    2  A    between atoms: C_9  and  S_1 
REMARK    3  A    between atoms: C_7  and  C_2 
REMARK    4  A    between atoms: C_20  and  C_7 
REMARK    5  A    between atoms: C_14  and  O_8 
ROOT
ATOM      1  C   UNL d   1      15.246  14.325  -0.731  0.00  0.00     0.139 A 
ATOM      2  C   UNL d   1      15.132  13.029  -1.006  0.00  0.00     0.064 A 
ATOM      3  C   UNL d   1      15.545  13.577  -0.553  0.00  0.00     0.220 A 
ATOM      4  C   UNL d   1      14.578  13.432  -1.465  0.00  0.00     0.105 A 
ATOM      5  O   UNL d   1      14.650  14.237  -1.294  0.00  0.00    -0.304 OA
ATOM      6  C   UNL d   1      14.091  13.016  -1.969  0.00  0.00     0.050 A 
ATOM      7  C   UNL d   1      15.192  12.210  -1.057  0.00  0.00     0.007 A 
ATOM      8  C   UNL d   1      14.151  12.196  -2.021  0.00  0.00     0.116 A 
ATOM      9  O   UNL d   1      16.150  13.418  -0.015  0.00  0.00    -0.284 OA
ATOM     10  C   UNL d   1      14.700  11.797  -1.566  0.00  0.00     0.026 A 
ENDROOT
BRANCH   8  11
ATOM     11  O   UNL d   1      13.658  11.780  -2.531  0.00  0.00    -0.227 OA
BRANCH  11  12
ATOM     12  S   UNL d   1      13.492  12.079  -3.281  0.00  0.00     0.304 S 
ATOM     13  O   UNL d   1      14.205  11.797  -3.551  0.00  0.00    -0.193 OA
ATOM     14  O   UNL d   1      12.769  12.369  -3.021  0.00  0.00    -0.193 OA
BRANCH  12  15
ATOM     15  C   UNL d   1      13.329  12.380  -4.042  0.00  0.00     0.111 A 
ATOM     16  C   UNL d   1      13.378  11.879  -4.698  0.00  0.00     0.014 A 
ATOM     17  C   UNL d   1      13.217  12.176  -5.450  0.00  0.00     0.012 A 
ATOM     18  C   UNL d   1      13.007  12.974  -5.547  0.00  0.00     0.058 A 
ATOM     19  C   UNL d   1      12.962  13.466  -4.881  0.00  0.00     0.012 A 
ATOM     20 CL   UNL d   1      12.848  13.267  -6.288  0.00  0.00    -0.082 Cl
ATOM     21  C   UNL d   1      13.124  13.166  -4.130  0.00  0.00     0.014 A 
ENDBRANCH  12  15
ENDBRANCH  11  12
ENDBRANCH   8  11
BRANCH   1  22
ATOM     22  C   UNL d   1      15.498  15.041  -0.406  0.00  0.00     0.029 C 
BRANCH  22  23
ATOM     23  C   UNL d   1      15.437  15.744  -0.839  0.00  0.00     0.021 A 
ATOM     24  C   UNL d   1      15.570  16.459  -0.461  0.00  0.00     0.099 A 
ATOM     25  N   UNL d   1      15.513  17.163  -0.877  0.00  0.00    -0.242 NA
ATOM     26  C   UNL d   1      15.320  17.150  -1.688  0.00  0.00     0.099 A 
ATOM     27  C   UNL d   1      15.187  16.426  -2.065  0.00  0.00     0.021 A 
ATOM     28  C   UNL d   1      15.248  15.724  -1.633  0.00  0.00     0.003 A 
ENDBRANCH  22  23
ENDBRANCH   1  22
TORSDOF 5
ENDMDL
