MODEL 1
REMARK VINA RESULT:      81.8      0.000      0.000
REMARK  10 active torsions:
REMARK  status: ('A' for Active; 'I' for Inactive)
REMARK    1  A    between atoms: C_5  and  C_1 
REMARK    2  A    between atoms: C_10  and  C_2 
REMARK    3  A    between atoms: S_11  and  C_3 
REMARK    4  A    between atoms: C_9  and  C_4 
REMARK       I    between atoms: N_8  and  C_5 
REMARK    5  A    between atoms: C_15  and  N_8 
REMARK    6  A    between atoms: C_26  and  S_11 
REMARK    7  A    between atoms: C_13  and  C_18 
REMARK    8  A    between atoms: C_16  and  C_26 
REMARK       I    between atoms: N_19  and  C_16 
REMARK    9  A    between atoms: C_29  and  N_19 
REMARK   10  A    between atoms: O_34  and  C_23 
ROOT
ATOM      1  C   UNL d   1      14.241  15.173  -3.435  0.00  0.00     0.076 A 
ATOM      2  C   UNL d   1      13.956  15.362  -4.800  0.00  0.00     0.045 A 
ATOM      3  C   UNL d   1      14.334  16.119  -4.770  0.00  0.00     0.112 A 
ATOM      4  C   UNL d   1      13.915  14.905  -4.140  0.00  0.00     0.016 A 
ATOM      5  C   UNL d   1      14.614  15.920  -3.406  0.00  0.00     0.087 A 
ATOM      6  N   UNL d   1      14.654  16.385  -4.082  0.00  0.00    -0.239 NA
ATOM      7  C   UNL d   1      14.947  16.203  -2.701  0.00  0.00     0.021 C 
ENDROOT
BRANCH   3   8
ATOM      8  S   UNL d   1      14.402  16.636  -5.440  0.00  0.00    -0.062 SA
BRANCH   8   9
ATOM      9  C   UNL d   1      13.894  17.289  -5.524  0.00  0.00     0.099 C 
BRANCH   9  10
ATOM     10  C   UNL d   1      14.206  18.054  -5.513  0.00  0.00     0.286 C 
ATOM     11  N   UNL d   1      13.745  18.693  -5.748  0.00  0.00    -0.208 NA
ATOM     12  O   UNL d   1      14.977  18.173  -5.267  0.00  0.00    -0.265 OA
BRANCH  11  13
ATOM     13  C   UNL d   1      14.069  19.454  -5.733  0.00  0.00     0.085 A 
ATOM     14  C   UNL d   1      14.805  19.589  -6.063  0.00  0.00     0.019 A 
ATOM     15  C   UNL d   1      15.130  20.345  -6.050  0.00  0.00     0.008 A 
ATOM     16  C   UNL d   1      14.702  20.967  -5.698  0.00  0.00     0.065 A 
ATOM     17  C   UNL d   1      13.966  20.831  -5.367  0.00  0.00     0.008 A 
ATOM     18  C   UNL d   1      13.643  20.070  -5.383  0.00  0.00     0.019 A 
BRANCH  16  19
ATOM     19  C   UNL d   1      15.024  21.738  -5.679  0.00  0.00     0.211 C 
ATOM     20  O   UNL d   1      15.321  22.084  -6.376  0.00  0.00    -0.644 OA
ATOM     21  O   UNL d   1      15.045  22.147  -4.971  0.00  0.00    -0.644 OA
ENDBRANCH  16  19
ENDBRANCH  11  13
ENDBRANCH   9  10
ENDBRANCH   8   9
ENDBRANCH   3   8
BRANCH   2  22
ATOM     22  C   UNL d   1      13.611  15.055  -5.506  0.00  0.00     0.124 C 
ATOM     23  N   UNL d   1      14.036  15.088  -6.229  0.00  0.00    -0.146 N 
ENDBRANCH   2  22
BRANCH   4  24
ATOM     24  C   UNL d   1      13.549  14.172  -4.168  0.00  0.00     0.030 A 
ATOM     25  S   UNL d   1      12.832  13.905  -3.896  0.00  0.00    -0.086 SA
ATOM     26  C   UNL d   1      12.774  13.126  -4.087  0.00  0.00     0.035 A 
ATOM     27  C   UNL d   1      13.436  12.901  -4.470  0.00  0.00     0.007 A 
ATOM     28  C   UNL d   1      13.928  13.538  -4.529  0.00  0.00     0.007 A 
ENDBRANCH   4  24
BRANCH   1  29
ATOM     29  C   UNL d   1      14.196  14.699  -2.760  0.00  0.00     0.281 C 
ATOM     30  N   UNL d   1      14.559  14.954  -2.057  0.00  0.00    -0.206 NA
ATOM     31  O   UNL d   1      13.798  13.987  -2.784  0.00  0.00    -0.265 OA
BRANCH  30  32
ATOM     32  C   UNL d   1      14.511  14.478  -1.386  0.00  0.00     0.107 A 
ATOM     33  C   UNL d   1      14.836  14.732  -0.689  0.00  0.00     0.112 A 
ATOM     34  C   UNL d   1      14.786  14.251  -0.018  0.00  0.00     0.026 A 
ATOM     35  C   UNL d   1      14.417  13.532  -0.054  0.00  0.00     0.002 A 
ATOM     36  C   UNL d   1      14.083  13.266  -0.761  0.00  0.00     0.002 A 
ATOM     37  C   UNL d   1      14.132  13.746  -1.432  0.00  0.00     0.021 A 
BRANCH  33  38
ATOM     38  O   UNL d   1      15.213  15.465  -0.653  0.00  0.00    -0.327 OA
ATOM     39  C   UNL d   1      14.970  16.031  -0.105  0.00  0.00     0.181 C 
ENDBRANCH  33  38
ENDBRANCH  30  32
ENDBRANCH   1  29
TORSDOF 10
ENDMDL
MODEL 2
REMARK VINA RESULT:      84.2      1.358      2.756
REMARK  10 active torsions:
REMARK  status: ('A' for Active; 'I' for Inactive)
REMARK    1  A    between atoms: C_5  and  C_1 
REMARK    2  A    between atoms: C_10  and  C_2 
REMARK    3  A    between atoms: S_11  and  C_3 
REMARK    4  A    between atoms: C_9  and  C_4 
REMARK       I    between atoms: N_8  and  C_5 
REMARK    5  A    between atoms: C_15  and  N_8 
REMARK    6  A    between atoms: C_26  and  S_11 
REMARK    7  A    between atoms: C_13  and  C_18 
REMARK    8  A    between atoms: C_16  and  C_26 
REMARK       I    between atoms: N_19  and  C_16 
REMARK    9  A    between atoms: C_29  and  N_19 
REMARK   10  A    between atoms: O_34  and  C_23 
ROOT
ATOM      1  C   UNL d   1      13.789  15.251  -4.513  0.00  0.00     0.076 A 
ATOM      2  C   UNL d   1      14.588  16.405  -4.420  0.00  0.00     0.045 A 
ATOM      3  C   UNL d   1      14.365  16.619  -5.209  0.00  0.00     0.112 A 
ATOM      4  C   UNL d   1      14.301  15.732  -4.088  0.00  0.00     0.016 A 
ATOM      5  C   UNL d   1      13.569  15.462  -5.291  0.00  0.00     0.087 A 
ATOM      6  N   UNL d   1      13.865  16.150  -5.629  0.00  0.00    -0.239 NA
ATOM      7  C   UNL d   1      13.054  14.985  -5.732  0.00  0.00     0.021 C 
ENDROOT
BRANCH   3   8
ATOM      8  S   UNL d   1      14.642  17.318  -5.602  0.00  0.00    -0.062 SA
BRANCH   8   9
ATOM      9  C   UNL d   1      14.115  17.808  -6.018  0.00  0.00     0.099 C 
BRANCH   9  10
ATOM     10  C   UNL d   1      14.105  18.620  -5.867  0.00  0.00     0.286 C 
ATOM     11  N   UNL d   1      14.762  19.082  -6.043  0.00  0.00    -0.208 NA
ATOM     12  O   UNL d   1      13.438  18.963  -5.540  0.00  0.00    -0.265 OA
BRANCH  11  13
ATOM     13  C   UNL d   1      14.741  19.894  -5.886  0.00  0.00     0.085 A 
ATOM     14  C   UNL d   1      15.426  20.337  -5.944  0.00  0.00     0.019 A 
ATOM     15  C   UNL d   1      15.408  21.144  -5.789  0.00  0.00     0.008 A 
ATOM     16  C   UNL d   1      14.688  21.503  -5.574  0.00  0.00     0.065 A 
ATOM     17  C   UNL d   1      14.003  21.060  -5.517  0.00  0.00     0.008 A 
ATOM     18  C   UNL d   1      14.024  20.248  -5.673  0.00  0.00     0.019 A 
BRANCH  16  19
ATOM     19  C   UNL d   1      14.661  22.324  -5.415  0.00  0.00     0.211 C 
ATOM     20  O   UNL d   1      14.075  22.631  -4.909  0.00  0.00    -0.644 OA
ATOM     21  O   UNL d   1      15.213  22.818  -5.760  0.00  0.00    -0.644 OA
ENDBRANCH  16  19
ENDBRANCH  11  13
ENDBRANCH   9  10
ENDBRANCH   8   9
ENDBRANCH   3   8
BRANCH   2  22
ATOM     22  C   UNL d   1      15.111  16.876  -3.954  0.00  0.00     0.124 C 
ATOM     23  N   UNL d   1      15.622  17.428  -4.326  0.00  0.00    -0.146 N 
ENDBRANCH   2  22
BRANCH   4  24
ATOM     24  C   UNL d   1      14.517  15.525  -3.324  0.00  0.00     0.030 A 
ATOM     25  S   UNL d   1      14.658  14.809  -2.968  0.00  0.00    -0.086 SA
ATOM     26  C   UNL d   1      14.852  14.953  -2.202  0.00  0.00     0.035 A 
ATOM     27  C   UNL d   1      14.835  15.739  -2.071  0.00  0.00     0.007 A 
ATOM     28  C   UNL d   1      14.628  16.109  -2.757  0.00  0.00     0.007 A 
ENDBRANCH   4  24
BRANCH   1  29
ATOM     29  C   UNL d   1      13.497  14.561  -4.166  0.00  0.00     0.281 C 
ATOM     30  N   UNL d   1      13.647  13.827  -4.526  0.00  0.00    -0.206 NA
ATOM     31  O   UNL d   1      13.064  14.600  -3.475  0.00  0.00    -0.265 OA
BRANCH  30  32
ATOM     32  C   UNL d   1      13.353  13.141  -4.177  0.00  0.00     0.107 A 
ATOM     33  C   UNL d   1      13.213  12.486  -4.632  0.00  0.00     0.112 A 
ATOM     34  C   UNL d   1      12.918  11.800  -4.277  0.00  0.00     0.026 A 
ATOM     35  C   UNL d   1      12.770  11.779  -3.482  0.00  0.00     0.002 A 
ATOM     36  C   UNL d   1      12.910  12.444  -3.011  0.00  0.00     0.002 A 
ATOM     37  C   UNL d   1      13.205  13.130  -3.365  0.00  0.00     0.021 A 
BRANCH  33  38
ATOM     38  O   UNL d   1      13.365  12.507  -5.443  0.00  0.00    -0.327 OA
ATOM     39  C   UNL d   1      13.743  11.874  -5.811  0.00  0.00     0.181 C 
ENDBRANCH  33  38
ENDBRANCH  30  32
ENDBRANCH   1  29
TORSDOF 10
ENDMDL
