MODEL 1
REMARK VINA RESULT:      -1.9      0.000      0.000
REMARK  5 active torsions:
REMARK  status: ('A' for Active; 'I' for Inactive)
REMARK    1  A    between atoms: C_4  and  S_1 
REMARK    2  A    between atoms: N_5  and  S_1 
REMARK    3  A    between atoms: C_2  and  C_8 
REMARK       I    between atoms: N_3  and  C_2 
REMARK    4  A    between atoms: C_16  and  N_5 
REMARK    5  A    between atoms: C_17  and  N_5 
ROOT
ATOM      1  C   UNL d   1      32.676  18.404 -23.396  0.00  0.00     0.104 A 
ATOM      2  C   UNL d   1      32.894  20.011 -23.081  0.00  0.00     0.057 A 
ATOM      3  C   UNL d   1      32.330  18.974 -23.887  0.00  0.00     0.013 A 
ATOM      4  C   UNL d   1      33.129  18.636 -22.749  0.00  0.00     0.013 A 
ATOM      5  C   UNL d   1      32.439  19.775 -23.730  0.00  0.00     0.005 A 
ATOM      6  C   UNL d   1      33.240  19.440 -22.589  0.00  0.00     0.005 A 
ENDROOT
BRANCH   1   7
ATOM      7  S   UNL d   1      32.564  17.596 -23.557  0.00  0.00     0.271 S 
ATOM      8  O   UNL d   1      33.052  17.282 -22.881  0.00  0.00    -0.200 OA
ATOM      9  O   UNL d   1      32.032  17.856 -24.294  0.00  0.00    -0.200 OA
BRANCH   7  10
ATOM     10  N   UNL d   1      32.453  16.799 -23.717  0.00  0.00    -0.229 N 
BRANCH  10  11
ATOM     11  C   UNL d   1      33.056  16.368 -24.085  0.00  0.00     0.092 C 
ATOM     12  C   UNL d   1      32.920  16.011 -24.816  0.00  0.00     0.021 C 
ENDBRANCH  10  11
BRANCH  10  13
ATOM     13  C   UNL d   1      31.747  16.423 -23.514  0.00  0.00     0.092 C 
ATOM     14  C   UNL d   1      31.767  15.644 -23.241  0.00  0.00     0.021 C 
ENDBRANCH  10  13
ENDBRANCH   7  10
ENDBRANCH   1   7
BRANCH   2  15
ATOM     15  C   UNL d   1      33.000  20.818 -22.929  0.00  0.00     0.265 C 
ATOM     16  N   UNL d   1      32.862  21.106 -22.170  0.00  0.00    -0.272 N 
ATOM     17  C   UNL d   1      32.621  20.594 -21.570  0.00  0.00     0.083 A 
ATOM     18  C   UNL d   1      32.965  21.908 -22.012  0.00  0.00     0.083 A 
ATOM     19  C   UNL d   1      32.483  20.884 -20.812  0.00  0.00     0.019 A 
ATOM     20  C   UNL d   1      32.586  21.684 -20.653  0.00  0.00     0.003 A 
ATOM     21  C   UNL d   1      32.827  22.196 -21.253  0.00  0.00     0.019 A 
ATOM     22  O   UNL d   1      33.241  21.327 -23.531  0.00  0.00    -0.267 OA
ENDBRANCH   2  15
TORSDOF 5
ENDMDL
MODEL 2
REMARK VINA RESULT:      -1.4      1.154      4.504
REMARK  5 active torsions:
REMARK  status: ('A' for Active; 'I' for Inactive)
REMARK    1  A    between atoms: C_4  and  S_1 
REMARK    2  A    between atoms: N_5  and  S_1 
REMARK    3  A    between atoms: C_2  and  C_8 
REMARK       I    between atoms: N_3  and  C_2 
REMARK    4  A    between atoms: C_16  and  N_5 
REMARK    5  A    between atoms: C_17  and  N_5 
ROOT
ATOM      1  C   UNL d   1      32.899  19.965 -22.665  0.00  0.00     0.104 A 
ATOM      2  C   UNL d   1      32.840  18.760 -23.794  0.00  0.00     0.057 A 
ATOM      3  C   UNL d   1      32.667  20.134 -23.443  0.00  0.00     0.013 A 
ATOM      4  C   UNL d   1      33.101  19.196 -22.453  0.00  0.00     0.013 A 
ATOM      5  C   UNL d   1      32.638  19.534 -24.005  0.00  0.00     0.005 A 
ATOM      6  C   UNL d   1      33.072  18.591 -23.017  0.00  0.00     0.005 A 
ENDROOT
BRANCH   1   7
ATOM      7  S   UNL d   1      32.927  20.574 -22.101  0.00  0.00     0.271 S 
ATOM      8  O   UNL d   1      33.004  21.250 -22.675  0.00  0.00    -0.200 OA
ATOM      9  O   UNL d   1      32.848  19.908 -21.434  0.00  0.00    -0.200 OA
BRANCH   7  10
ATOM     10  N   UNL d   1      32.955  21.175 -21.543  0.00  0.00    -0.229 N 
BRANCH  10  11
ATOM     11  C   UNL d   1      33.241  21.015 -20.783  0.00  0.00     0.092 C 
ATOM     12  C   UNL d   1      33.014  21.492 -20.149  0.00  0.00     0.021 C 
ENDBRANCH  10  11
BRANCH  10  13
ATOM     13  C   UNL d   1      32.701  21.937 -21.732  0.00  0.00     0.092 C 
ATOM     14  C   UNL d   1      33.101  22.588 -21.418  0.00  0.00     0.021 C 
ENDBRANCH  10  13
ENDBRANCH   7  10
ENDBRANCH   1   7
BRANCH   2  15
ATOM     15  C   UNL d   1      32.809  18.161 -24.365  0.00  0.00     0.265 C 
ATOM     16  N   UNL d   1      32.347  17.494 -24.224  0.00  0.00    -0.272 N 
ATOM     17  C   UNL d   1      31.922  17.426 -23.520  0.00  0.00     0.083 A 
ATOM     18  C   UNL d   1      32.312  16.894 -24.787  0.00  0.00     0.083 A 
ATOM     19  C   UNL d   1      31.460  16.759 -23.380  0.00  0.00     0.019 A 
ATOM     20  C   UNL d   1      31.425  16.159 -23.942  0.00  0.00     0.003 A 
ATOM     21  C   UNL d   1      31.850  16.227 -24.646  0.00  0.00     0.019 A 
ATOM     22  O   UNL d   1      33.236  18.231 -25.067  0.00  0.00    -0.267 OA
ENDBRANCH   2  15
TORSDOF 5
ENDMDL
MODEL 3
REMARK VINA RESULT:      -1.1      1.143      1.714
REMARK  5 active torsions:
REMARK  status: ('A' for Active; 'I' for Inactive)
REMARK    1  A    between atoms: C_4  and  S_1 
REMARK    2  A    between atoms: N_5  and  S_1 
REMARK    3  A    between atoms: C_2  and  C_8 
REMARK       I    between atoms: N_3  and  C_2 
REMARK    4  A    between atoms: C_16  and  N_5 
REMARK    5  A    between atoms: C_17  and  N_5 
ROOT
ATOM      1  C   UNL d   1      32.808  19.645 -22.608  0.00  0.00     0.104 A 
ATOM      2  C   UNL d   1      32.814  21.205 -22.063  0.00  0.00     0.057 A 
ATOM      3  C   UNL d   1      33.238  20.226 -23.014  0.00  0.00     0.013 A 
ATOM      4  C   UNL d   1      32.383  19.843 -21.932  0.00  0.00     0.013 A 
ATOM      5  C   UNL d   1      33.241  21.002 -22.742  0.00  0.00     0.005 A 
ATOM      6  C   UNL d   1      32.384  20.624 -21.657  0.00  0.00     0.005 A 
ENDROOT
BRANCH   1   7
ATOM      7  S   UNL d   1      32.808  18.862 -22.886  0.00  0.00     0.271 S 
ATOM      8  O   UNL d   1      32.740  19.055 -23.753  0.00  0.00    -0.200 OA
ATOM      9  O   UNL d   1      32.881  18.583 -21.986  0.00  0.00    -0.200 OA
BRANCH   7  10
ATOM     10  N   UNL d   1      32.808  18.089 -23.160  0.00  0.00    -0.229 N 
BRANCH  10  11
ATOM     11  C   UNL d   1      32.427  17.907 -23.873  0.00  0.00     0.092 C 
ATOM     12  C   UNL d   1      32.224  17.126 -24.044  0.00  0.00     0.021 C 
ENDBRANCH  10  11
BRANCH  10  13
ATOM     13  C   UNL d   1      33.183  17.490 -22.734  0.00  0.00     0.092 C 
ATOM     14  C   UNL d   1      33.154  16.714 -23.014  0.00  0.00     0.021 C 
ENDBRANCH  10  13
ENDBRANCH   7  10
ENDBRANCH   1   7
BRANCH   2  15
ATOM     15  C   UNL d   1      32.821  21.988 -21.795  0.00  0.00     0.265 C 
ATOM     16  N   UNL d   1      32.961  22.140 -20.998  0.00  0.00    -0.272 N 
ATOM     17  C   UNL d   1      33.093  21.516 -20.475  0.00  0.00     0.083 A 
ATOM     18  C   UNL d   1      32.969  22.917 -20.725  0.00  0.00     0.083 A 
ATOM     19  C   UNL d   1      33.233  21.669 -19.678  0.00  0.00     0.019 A 
ATOM     20  C   UNL d   1      33.241  22.445 -19.404  0.00  0.00     0.003 A 
ATOM     21  C   UNL d   1      33.109  23.069 -19.928  0.00  0.00     0.019 A 
ATOM     22  O   UNL d   1      32.689  22.609 -22.321  0.00  0.00    -0.267 OA
ENDBRANCH   2  15
TORSDOF 5
ENDMDL
MODEL 4
REMARK VINA RESULT:       0.6      2.248      3.891
REMARK  5 active torsions:
REMARK  status: ('A' for Active; 'I' for Inactive)
REMARK    1  A    between atoms: C_4  and  S_1 
REMARK    2  A    between atoms: N_5  and  S_1 
REMARK    3  A    between atoms: C_2  and  C_8 
REMARK       I    between atoms: N_3  and  C_2 
REMARK    4  A    between atoms: C_16  and  N_5 
REMARK    5  A    between atoms: C_17  and  N_5 
ROOT
ATOM      1  C   UNL d   1      32.477  21.609 -21.651  0.00  0.00     0.104 A 
ATOM      2  C   UNL d   1      32.060  22.638 -20.428  0.00  0.00     0.057 A 
ATOM      3  C   UNL d   1      31.877  21.400 -21.118  0.00  0.00     0.013 A 
ATOM      4  C   UNL d   1      32.866  22.330 -21.573  0.00  0.00     0.013 A 
ATOM      5  C   UNL d   1      31.670  21.913 -20.510  0.00  0.00     0.005 A 
ATOM      6  C   UNL d   1      32.659  22.847 -20.961  0.00  0.00     0.005 A 
ENDROOT
BRANCH   1   7
ATOM      7  S   UNL d   1      32.684  21.088 -22.265  0.00  0.00     0.271 S 
ATOM      8  O   UNL d   1      33.241  20.579 -21.792  0.00  0.00    -0.200 OA
ATOM      9  O   UNL d   1      32.108  21.583 -22.828  0.00  0.00    -0.200 OA
BRANCH   7  10
ATOM     10  N   UNL d   1      32.888  20.574 -22.871  0.00  0.00    -0.229 N 
BRANCH  10  11
ATOM     11  C   UNL d   1      32.739  19.764 -22.788  0.00  0.00     0.092 C 
ATOM     12  C   UNL d   1      32.527  19.315 -23.447  0.00  0.00     0.021 C 
ENDBRANCH  10  11
BRANCH  10  13
ATOM     13  C   UNL d   1      33.240  20.856 -23.562  0.00  0.00     0.092 C 
ATOM     14  C   UNL d   1      33.084  20.478 -24.280  0.00  0.00     0.021 C 
ENDBRANCH  10  13
ENDBRANCH   7  10
ENDBRANCH   1   7
BRANCH   2  15
ATOM     15  C   UNL d   1      31.846  23.150 -19.813  0.00  0.00     0.265 C 
ATOM     16  N   UNL d   1      32.241  23.101 -19.093  0.00  0.00    -0.272 N 
ATOM     17  C   UNL d   1      32.843  22.546 -18.987  0.00  0.00     0.083 A 
ATOM     18  C   UNL d   1      32.033  23.607 -18.477  0.00  0.00     0.083 A 
ATOM     19  C   UNL d   1      33.237  22.498 -18.266  0.00  0.00     0.019 A 
ATOM     20  C   UNL d   1      33.030  23.004 -17.651  0.00  0.00     0.003 A 
ATOM     21  C   UNL d   1      32.428  23.558 -17.756  0.00  0.00     0.019 A 
ATOM     22  O   UNL d   1      31.244  23.702 -19.922  0.00  0.00    -0.267 OA
ENDBRANCH   2  15
TORSDOF 5
ENDMDL
MODEL 5
REMARK VINA RESULT:       0.7      2.803      3.924
REMARK  5 active torsions:
REMARK  status: ('A' for Active; 'I' for Inactive)
REMARK    1  A    between atoms: C_4  and  S_1 
REMARK    2  A    between atoms: N_5  and  S_1 
REMARK    3  A    between atoms: C_2  and  C_8 
REMARK       I    between atoms: N_3  and  C_2 
REMARK    4  A    between atoms: C_16  and  N_5 
REMARK    5  A    between atoms: C_17  and  N_5 
ROOT
ATOM      1  C   UNL d   1      30.188  16.766 -24.275  0.00  0.00     0.104 A 
ATOM      2  C   UNL d   1      31.667  17.442 -24.565  0.00  0.00     0.057 A 
ATOM      3  C   UNL d   1      30.403  17.474 -23.900  0.00  0.00     0.013 A 
ATOM      4  C   UNL d   1      30.711  16.398 -24.793  0.00  0.00     0.013 A 
ATOM      5  C   UNL d   1      31.140  17.810 -24.046  0.00  0.00     0.005 A 
ATOM      6  C   UNL d   1      31.452  16.735 -24.940  0.00  0.00     0.005 A 
ENDROOT
BRANCH   1   7
ATOM      7  S   UNL d   1      29.443  16.430 -24.126  0.00  0.00     0.271 S 
ATOM      8  O   UNL d   1      28.955  17.095 -24.463  0.00  0.00    -0.200 OA
ATOM      9  O   UNL d   1      29.894  15.688 -23.752  0.00  0.00    -0.200 OA
BRANCH   7  10
ATOM     10  N   UNL d   1      28.707  16.097 -23.979  0.00  0.00    -0.229 N 
BRANCH  10  11
ATOM     11  C   UNL d   1      28.256  16.369 -23.340  0.00  0.00     0.092 C 
ATOM     12  C   UNL d   1      27.876  15.829 -22.845  0.00  0.00     0.021 C 
ENDBRANCH  10  11
BRANCH  10  13
ATOM     13  C   UNL d   1      28.413  15.496 -24.460  0.00  0.00     0.092 C 
ATOM     14  C   UNL d   1      27.603  15.464 -24.621  0.00  0.00     0.021 C 
ENDBRANCH  10  13
ENDBRANCH   7  10
ENDBRANCH   1   7
BRANCH   2  15
ATOM     15  C   UNL d   1      32.407  17.786 -24.707  0.00  0.00     0.265 C 
ATOM     16  N   UNL d   1      32.457  18.598 -24.831  0.00  0.00    -0.272 N 
ATOM     17  C   UNL d   1      31.776  19.062 -24.814  0.00  0.00     0.083 A 
ATOM     18  C   UNL d   1      33.191  18.946 -24.973  0.00  0.00     0.083 A 
ATOM     19  C   UNL d   1      31.827  19.875 -24.939  0.00  0.00     0.019 A 
ATOM     20  C   UNL d   1      32.559  20.222 -25.080  0.00  0.00     0.003 A 
ATOM     21  C   UNL d   1      33.241  19.758 -25.097  0.00  0.00     0.019 A 
ATOM     22  O   UNL d   1      33.087  17.318 -24.724  0.00  0.00    -0.267 OA
ENDBRANCH   2  15
TORSDOF 5
ENDMDL
