MODEL 1
REMARK VINA RESULT:      -9.0      0.000      0.000
REMARK  3 active torsions:
REMARK  status: ('A' for Active; 'I' for Inactive)
REMARK    1  A    between atoms: C_6  and  C_1 
REMARK    2  A    between atoms: O_19  and  C_9 
REMARK    3  A    between atoms: O_20  and  C_13 
ROOT
ATOM      1  C   UNL d   1     -48.547  13.167  22.454  0.00  0.00     0.064 A 
ATOM      2  C   UNL d   1     -48.938  13.766  22.878  0.00  0.00     0.007 A 
ATOM      3  C   UNL d   1     -48.842  12.923  21.714  0.00  0.00     0.300 A 
ATOM      4  C   UNL d   1     -49.617  14.120  22.567  0.00  0.00     0.026 A 
ATOM      5  O   UNL d   1     -49.529  13.277  21.393  0.00  0.00    -0.273 OA
ATOM      6  C   UNL d   1     -49.912  13.877  21.827  0.00  0.00     0.103 A 
ATOM      7  O   UNL d   1     -48.455  12.327  21.291  0.00  0.00    -0.259 OA
ATOM      8  C   UNL d   1     -50.010  14.716  22.983  0.00  0.00     0.044 A 
ATOM      9  C   UNL d   1     -50.586  14.226  21.516  0.00  0.00     0.028 A 
ATOM     10  C   UNL d   1     -50.677  15.060  22.671  0.00  0.00     0.196 A 
ATOM     11  C   UNL d   1     -48.649  14.004  23.603  0.00  0.00     0.000 C 
ATOM     12  C   UNL d   1     -50.969  14.819  21.939  0.00  0.00     0.044 A 
ATOM     13  O   UNL d   1     -51.064  15.657  23.094  0.00  0.00    -0.287 OA
ENDROOT
BRANCH   1  14
ATOM     14  C   UNL d   1     -47.871  12.815  22.765  0.00  0.00     0.007 A 
ATOM     15  C   UNL d   1     -47.139  13.182  22.673  0.00  0.00     0.026 A 
ATOM     16  C   UNL d   1     -46.463  12.838  22.980  0.00  0.00     0.116 A 
ATOM     17  C   UNL d   1     -46.513  12.120  23.384  0.00  0.00     0.116 A 
ATOM     18  C   UNL d   1     -47.249  11.747  23.480  0.00  0.00     0.026 A 
ATOM     19  C   UNL d   1     -47.926  12.105  23.164  0.00  0.00     0.002 A 
BRANCH  16  20
ATOM     20  O   UNL d   1     -45.727  13.197  22.892  0.00  0.00    -0.326 OA
ATOM     21  C   UNL d   1     -45.530  13.546  22.171  0.00  0.00     0.181 C 
ENDBRANCH  16  20
BRANCH  17  22
ATOM     22  O   UNL d   1     -45.841  11.762  23.698  0.00  0.00    -0.326 OA
ATOM     23  C   UNL d   1     -45.792  10.932  23.698  0.00  0.00     0.181 C 
ENDBRANCH  17  22
ENDBRANCH   1  14
TORSDOF 3
ENDMDL
MODEL 2
REMARK VINA RESULT:      -8.8      1.005      4.273
REMARK  3 active torsions:
REMARK  status: ('A' for Active; 'I' for Inactive)
REMARK    1  A    between atoms: C_6  and  C_1 
REMARK    2  A    between atoms: O_19  and  C_9 
REMARK    3  A    between atoms: O_20  and  C_13 
ROOT
ATOM      1  C   UNL d   1     -48.203  13.542  23.004  0.00  0.00     0.064 A 
ATOM      2  C   UNL d   1     -47.486  13.818  22.688  0.00  0.00     0.007 A 
ATOM      3  C   UNL d   1     -48.239  12.784  23.349  0.00  0.00     0.300 A 
ATOM      4  C   UNL d   1     -46.810  13.344  22.714  0.00  0.00     0.026 A 
ATOM      5  O   UNL d   1     -47.558  12.298  23.379  0.00  0.00    -0.273 OA
ATOM      6  C   UNL d   1     -46.846  12.586  23.059  0.00  0.00     0.103 A 
ATOM      7  O   UNL d   1     -48.952  12.507  23.664  0.00  0.00    -0.259 OA
ATOM      8  C   UNL d   1     -46.093  13.612  22.402  0.00  0.00     0.044 A 
ATOM      9  C   UNL d   1     -46.176  12.113  23.087  0.00  0.00     0.028 A 
ATOM     10  C   UNL d   1     -45.432  13.141  22.431  0.00  0.00     0.196 A 
ATOM     11  C   UNL d   1     -47.451  14.560  22.351  0.00  0.00     0.000 C 
ATOM     12  C   UNL d   1     -45.468  12.391  22.772  0.00  0.00     0.044 A 
ATOM     13  O   UNL d   1     -44.719  13.417  22.116  0.00  0.00    -0.287 OA
ENDROOT
BRANCH   1  14
ATOM     14  C   UNL d   1     -48.876  14.015  22.977  0.00  0.00     0.007 A 
ATOM     15  C   UNL d   1     -49.406  13.938  22.351  0.00  0.00     0.026 A 
ATOM     16  C   UNL d   1     -50.078  14.405  22.317  0.00  0.00     0.116 A 
ATOM     17  C   UNL d   1     -50.225  14.957  22.912  0.00  0.00     0.116 A 
ATOM     18  C   UNL d   1     -49.692  15.039  23.546  0.00  0.00     0.026 A 
ATOM     19  C   UNL d   1     -49.018  14.560  23.568  0.00  0.00     0.002 A 
BRANCH  16  20
ATOM     20  O   UNL d   1     -50.613  14.335  21.696  0.00  0.00    -0.326 OA
ATOM     21  C   UNL d   1     -50.768  13.590  21.378  0.00  0.00     0.181 C 
ENDBRANCH  16  20
BRANCH  17  22
ATOM     22  O   UNL d   1     -50.895  15.435  22.893  0.00  0.00    -0.326 OA
ATOM     23  C   UNL d   1     -51.063  15.919  23.548  0.00  0.00     0.181 C 
ENDBRANCH  17  22
ENDBRANCH   1  14
TORSDOF 3
ENDMDL
MODEL 3
REMARK VINA RESULT:      -7.1      8.207     10.252
REMARK  3 active torsions:
REMARK  status: ('A' for Active; 'I' for Inactive)
REMARK    1  A    between atoms: C_6  and  C_1 
REMARK    2  A    between atoms: O_19  and  C_9 
REMARK    3  A    between atoms: O_20  and  C_13 
ROOT
ATOM      1  C   UNL d   1     -39.713  14.413  18.553  0.00  0.00     0.064 A 
ATOM      2  C   UNL d   1     -39.326  14.782  19.189  0.00  0.00     0.007 A 
ATOM      3  C   UNL d   1     -40.529  14.250  18.603  0.00  0.00     0.300 A 
ATOM      4  C   UNL d   1     -39.748  14.988  19.870  0.00  0.00     0.026 A 
ATOM      5  O   UNL d   1     -40.962  14.456  19.288  0.00  0.00    -0.273 OA
ATOM      6  C   UNL d   1     -40.563  14.825  19.919  0.00  0.00     0.103 A 
ATOM      7  O   UNL d   1     -40.916  13.883  17.970  0.00  0.00    -0.259 OA
ATOM      8  C   UNL d   1     -39.370  15.355  20.506  0.00  0.00     0.044 A 
ATOM      9  C   UNL d   1     -40.985  15.028  20.593  0.00  0.00     0.028 A 
ATOM     10  C   UNL d   1     -39.790  15.555  21.172  0.00  0.00     0.196 A 
ATOM     11  C   UNL d   1     -38.527  14.941  19.140  0.00  0.00     0.000 C 
ATOM     12  C   UNL d   1     -40.597  15.394  21.221  0.00  0.00     0.044 A 
ATOM     13  O   UNL d   1     -39.404  15.922  21.804  0.00  0.00    -0.287 OA
ENDROOT
BRANCH   1  14
ATOM     14  C   UNL d   1     -39.292  14.208  17.876  0.00  0.00     0.007 A 
ATOM     15  C   UNL d   1     -38.935  13.467  17.824  0.00  0.00     0.026 A 
ATOM     16  C   UNL d   1     -38.515  13.257  17.154  0.00  0.00     0.116 A 
ATOM     17  C   UNL d   1     -38.447  13.789  16.527  0.00  0.00     0.116 A 
ATOM     18  C   UNL d   1     -38.805  14.538  16.575  0.00  0.00     0.026 A 
ATOM     19  C   UNL d   1     -39.227  14.738  17.259  0.00  0.00     0.002 A 
BRANCH  16  20
ATOM     20  O   UNL d   1     -38.155  12.519  17.092  0.00  0.00    -0.326 OA
ATOM     21  C   UNL d   1     -38.119  12.030  17.756  0.00  0.00     0.181 C 
ENDBRANCH  16  20
BRANCH  17  22
ATOM     22  O   UNL d   1     -38.027  13.593  15.846  0.00  0.00    -0.326 OA
ATOM     23  C   UNL d   1     -37.956  14.159  15.241  0.00  0.00     0.181 C 
ENDBRANCH  17  22
ENDBRANCH   1  14
TORSDOF 3
ENDMDL
MODEL 4
REMARK VINA RESULT:      -6.7      1.214      1.832
REMARK  3 active torsions:
REMARK  status: ('A' for Active; 'I' for Inactive)
REMARK    1  A    between atoms: C_6  and  C_1 
REMARK    2  A    between atoms: O_19  and  C_9 
REMARK    3  A    between atoms: O_20  and  C_13 
ROOT
ATOM      1  C   UNL d   1     -47.854  12.587  22.933  0.00  0.00     0.064 A 
ATOM      2  C   UNL d   1     -48.242  13.309  23.068  0.00  0.00     0.007 A 
ATOM      3  C   UNL d   1     -48.282  11.873  22.971  0.00  0.00     0.300 A 
ATOM      4  C   UNL d   1     -49.050  13.322  23.240  0.00  0.00     0.026 A 
ATOM      5  O   UNL d   1     -49.101  11.878  23.145  0.00  0.00    -0.273 OA
ATOM      6  C   UNL d   1     -49.479  12.608  23.279  0.00  0.00     0.103 A 
ATOM      7  O   UNL d   1     -47.898  11.153  22.837  0.00  0.00    -0.259 OA
ATOM      8  C   UNL d   1     -49.443  14.036  23.376  0.00  0.00     0.044 A 
ATOM      9  C   UNL d   1     -50.281  12.617  23.449  0.00  0.00     0.028 A 
ATOM     10  C   UNL d   1     -50.237  14.041  23.545  0.00  0.00     0.196 A 
ATOM     11  C   UNL d   1     -47.822  14.008  23.031  0.00  0.00     0.000 C 
ATOM     12  C   UNL d   1     -50.661  13.335  23.583  0.00  0.00     0.044 A 
ATOM     13  O   UNL d   1     -50.622  14.761  23.679  0.00  0.00    -0.287 OA
ENDROOT
BRANCH   1  14
ATOM     14  C   UNL d   1     -47.049  12.577  22.761  0.00  0.00     0.007 A 
ATOM     15  C   UNL d   1     -46.527  12.190  23.269  0.00  0.00     0.026 A 
ATOM     16  C   UNL d   1     -45.725  12.175  23.105  0.00  0.00     0.116 A 
ATOM     17  C   UNL d   1     -45.437  12.550  22.428  0.00  0.00     0.116 A 
ATOM     18  C   UNL d   1     -45.960  12.941  21.914  0.00  0.00     0.026 A 
ATOM     19  C   UNL d   1     -46.768  12.948  22.092  0.00  0.00     0.002 A 
BRANCH  16  20
ATOM     20  O   UNL d   1     -45.197  11.791  23.605  0.00  0.00    -0.326 OA
ATOM     21  C   UNL d   1     -45.244  10.972  23.693  0.00  0.00     0.181 C 
ENDBRANCH  16  20
BRANCH  17  22
ATOM     22  O   UNL d   1     -44.633  12.544  22.250  0.00  0.00    -0.326 OA
ATOM     23  C   UNL d   1     -44.362  12.995  21.605  0.00  0.00     0.181 C 
ENDBRANCH  17  22
ENDBRANCH   1  14
TORSDOF 3
ENDMDL
MODEL 5
REMARK VINA RESULT:      -6.3      8.473      9.578
REMARK  3 active torsions:
REMARK  status: ('A' for Active; 'I' for Inactive)
REMARK    1  A    between atoms: C_6  and  C_1 
REMARK    2  A    between atoms: O_19  and  C_9 
REMARK    3  A    between atoms: O_20  and  C_13 
ROOT
ATOM      1  C   UNL d   1     -39.952  14.916  19.961  0.00  0.00     0.064 A 
ATOM      2  C   UNL d   1     -39.578  15.306  19.329  0.00  0.00     0.007 A 
ATOM      3  C   UNL d   1     -40.624  14.446  19.818  0.00  0.00     0.300 A 
ATOM      4  C   UNL d   1     -39.872  15.229  18.560  0.00  0.00     0.026 A 
ATOM      5  O   UNL d   1     -40.927  14.363  19.042  0.00  0.00    -0.273 OA
ATOM      6  C   UNL d   1     -40.544  14.758  18.417  0.00  0.00     0.103 A 
ATOM      7  O   UNL d   1     -40.997  14.057  20.445  0.00  0.00    -0.259 OA
ATOM      8  C   UNL d   1     -39.506  15.613  17.927  0.00  0.00     0.044 A 
ATOM      9  C   UNL d   1     -40.838  14.679  17.655  0.00  0.00     0.028 A 
ATOM     10  C   UNL d   1     -39.799  15.533  17.174  0.00  0.00     0.196 A 
ATOM     11  C   UNL d   1     -38.919  15.767  19.469  0.00  0.00     0.000 C 
ATOM     12  C   UNL d   1     -40.465  15.067  17.032  0.00  0.00     0.044 A 
ATOM     13  O   UNL d   1     -39.427  15.921  16.546  0.00  0.00    -0.287 OA
ENDROOT
BRANCH   1  14
ATOM     14  C   UNL d   1     -39.658  14.995  20.726  0.00  0.00     0.007 A 
ATOM     15  C   UNL d   1     -39.094  14.462  21.005  0.00  0.00     0.026 A 
ATOM     16  C   UNL d   1     -38.797  14.534  21.764  0.00  0.00     0.116 A 
ATOM     17  C   UNL d   1     -39.063  15.143  22.254  0.00  0.00     0.116 A 
ATOM     18  C   UNL d   1     -39.631  15.683  21.977  0.00  0.00     0.026 A 
ATOM     19  C   UNL d   1     -39.923  15.598  21.206  0.00  0.00     0.002 A 
BRANCH  16  20
ATOM     20  O   UNL d   1     -38.235  14.007  22.051  0.00  0.00    -0.326 OA
ATOM     21  C   UNL d   1     -38.238  13.226  21.784  0.00  0.00     0.181 C 
ENDBRANCH  16  20
BRANCH  17  22
ATOM     22  O   UNL d   1     -38.774  15.229  23.020  0.00  0.00    -0.326 OA
ATOM     23  C   UNL d   1     -38.972  15.913  23.450  0.00  0.00     0.181 C 
ENDBRANCH  17  22
ENDBRANCH   1  14
TORSDOF 3
ENDMDL
MODEL 6
REMARK VINA RESULT:      -6.3      8.828     10.241
REMARK  3 active torsions:
REMARK  status: ('A' for Active; 'I' for Inactive)
REMARK    1  A    between atoms: C_6  and  C_1 
REMARK    2  A    between atoms: O_19  and  C_9 
REMARK    3  A    between atoms: O_20  and  C_13 
ROOT
ATOM      1  C   UNL d   1     -39.376  15.041  19.437  0.00  0.00     0.064 A 
ATOM      2  C   UNL d   1     -39.666  14.559  20.049  0.00  0.00     0.007 A 
ATOM      3  C   UNL d   1     -38.653  15.442  19.533  0.00  0.00     0.300 A 
ATOM      4  C   UNL d   1     -39.239  14.478  20.752  0.00  0.00     0.026 A 
ATOM      5  O   UNL d   1     -38.215  15.365  20.243  0.00  0.00    -0.273 OA
ATOM      6  C   UNL d   1     -38.516  14.880  20.849  0.00  0.00     0.103 A 
ATOM      7  O   UNL d   1     -38.363  15.922  18.925  0.00  0.00    -0.259 OA
ATOM      8  C   UNL d   1     -39.522  14.001  21.366  0.00  0.00     0.044 A 
ATOM      9  C   UNL d   1     -38.090  14.802  21.546  0.00  0.00     0.028 A 
ATOM     10  C   UNL d   1     -39.097  13.926  22.054  0.00  0.00     0.196 A 
ATOM     11  C   UNL d   1     -40.375  14.166  19.955  0.00  0.00     0.000 C 
ATOM     12  C   UNL d   1     -38.381  14.324  22.150  0.00  0.00     0.044 A 
ATOM     13  O   UNL d   1     -39.386  13.447  22.663  0.00  0.00    -0.287 OA
ENDROOT
BRANCH   1  14
ATOM     14  C   UNL d   1     -39.803  15.120  18.738  0.00  0.00     0.007 A 
ATOM     15  C   UNL d   1     -39.640  14.624  18.100  0.00  0.00     0.026 A 
ATOM     16  C   UNL d   1     -40.060  14.697  17.401  0.00  0.00     0.116 A 
ATOM     17  C   UNL d   1     -40.650  15.270  17.334  0.00  0.00     0.116 A 
ATOM     18  C   UNL d   1     -40.818  15.772  17.975  0.00  0.00     0.026 A 
ATOM     19  C   UNL d   1     -40.386  15.688  18.676  0.00  0.00     0.002 A 
BRANCH  16  20
ATOM     20  O   UNL d   1     -39.904  14.207  16.759  0.00  0.00    -0.326 OA
ATOM     21  C   UNL d   1     -39.123  14.012  16.579  0.00  0.00     0.181 C 
ENDBRANCH  16  20
BRANCH  17  22
ATOM     22  O   UNL d   1     -41.081  15.356  16.637  0.00  0.00    -0.326 OA
ATOM     23  C   UNL d   1     -41.728  15.879  16.628  0.00  0.00     0.181 C 
ENDBRANCH  17  22
ENDBRANCH   1  14
TORSDOF 3
ENDMDL
