MODEL 1
REMARK VINA RESULT:      65.1      0.000      0.000
REMARK  8 active torsions:
REMARK  status: ('A' for Active; 'I' for Inactive)
REMARK    1  A    between atoms: N_5  and  S_1 
REMARK    2  A    between atoms: C_8  and  S_1 
REMARK    3  A    between atoms: C_2  and  N_10 
REMARK    4  A    between atoms: C_9  and  N_5 
REMARK    5  A    between atoms: C_13  and  C_9 
REMARK    6  A    between atoms: N_10  and  O_14 
REMARK    7  A    between atoms: C_17  and  C_13 
REMARK    8  A    between atoms: O_14  and  C_17 
ROOT
ATOM      1  C   UNL d   1     -49.109  27.757  34.429  0.00  0.00     0.193 C 
ENDROOT
BRANCH   1   2
ATOM      2  O   UNL d   1     -49.162  27.236  33.791  0.00  0.00    -0.206 OA
BRANCH   2   3
ATOM      3  N   UNL d   1     -49.839  27.238  33.309  0.00  0.00    -0.126 NA
BRANCH   3   4
ATOM      4  C   UNL d   1     -50.348  26.587  33.309  0.00  0.00     0.108 A 
ATOM      5  C   UNL d   1     -51.179  26.612  33.308  0.00  0.00     0.020 A 
ATOM      6  C   UNL d   1     -51.451  25.835  33.308  0.00  0.00     0.002 A 
ATOM      7  C   UNL d   1     -51.700  27.242  33.307  0.00  0.00     0.002 A 
ATOM      8  C   UNL d   1     -52.269  25.690  33.307  0.00  0.00     0.000 A 
ATOM      9  C   UNL d   1     -50.809  25.329  33.309  0.00  0.00     0.002 A 
ATOM     10  C   UNL d   1     -52.795  26.322  33.306  0.00  0.00     0.000 A 
ATOM     11  C   UNL d   1     -52.514  27.103  33.306  0.00  0.00     0.000 A 
ATOM     12  C   UNL d   1     -50.122  25.788  33.310  0.00  0.00     0.020 A 
ATOM     13  C   UNL d   1     -50.750  24.510  33.310  0.00  0.00     0.000 A 
ATOM     14  C   UNL d   1     -49.380  25.432  33.311  0.00  0.00     0.002 A 
ATOM     15  C   UNL d   1     -49.324  24.604  33.312  0.00  0.00     0.000 A 
ATOM     16  C   UNL d   1     -50.013  24.147  33.311  0.00  0.00     0.000 A 
ENDBRANCH   3   4
ENDBRANCH   2   3
ENDBRANCH   1   2
BRANCH   1  17
ATOM     17  C   UNL d   1     -48.389  28.105  34.617  0.00  0.00     0.240 C 
ATOM     18  O   UNL d   1     -47.692  27.665  34.569  0.00  0.00    -0.283 OA
BRANCH  17  19
ATOM     19  C   UNL d   1     -47.894  28.726  34.859  0.00  0.00     0.136 C 
BRANCH  19  20
ATOM     20  N   UNL d   1     -48.224  29.366  35.271  0.00  0.00    -0.225 N 
ATOM     21  C   UNL d   1     -48.644  29.408  35.975  0.00  0.00     0.111 C 
BRANCH  20  22
ATOM     22  S   UNL d   1     -48.152  30.133  34.970  0.00  0.00     0.272 S 
ATOM     23  O   UNL d   1     -48.905  29.909  34.695  0.00  0.00    -0.200 OA
ATOM     24  O   UNL d   1     -47.453  30.535  35.141  0.00  0.00    -0.200 OA
BRANCH  22  25
ATOM     25  C   UNL d   1     -47.851  30.879  34.792  0.00  0.00     0.104 A 
ATOM     26  C   UNL d   1     -48.246  31.364  34.253  0.00  0.00     0.013 A 
ATOM     27  C   UNL d   1     -47.947  32.107  34.075  0.00  0.00     0.007 A 
ATOM     28  C   UNL d   1     -47.247  32.372  34.438  0.00  0.00     0.035 A 
ATOM     29  C   UNL d   1     -46.887  31.846  34.974  0.00  0.00     0.007 A 
ATOM     30 BR   UNL d   1     -46.928  33.113  34.275  0.00  0.00    -0.049 Br
ATOM     31  C   UNL d   1     -47.157  31.094  35.176  0.00  0.00     0.013 A 
ENDBRANCH  22  25
ENDBRANCH  20  22
ENDBRANCH  19  20
ENDBRANCH  17  19
ENDBRANCH   1  17
TORSDOF 8
ENDMDL
MODEL 2
REMARK VINA RESULT:      67.7      2.458      6.282
REMARK  8 active torsions:
REMARK  status: ('A' for Active; 'I' for Inactive)
REMARK    1  A    between atoms: N_5  and  S_1 
REMARK    2  A    between atoms: C_8  and  S_1 
REMARK    3  A    between atoms: C_2  and  N_10 
REMARK    4  A    between atoms: C_9  and  N_5 
REMARK    5  A    between atoms: C_13  and  C_9 
REMARK    6  A    between atoms: N_10  and  O_14 
REMARK    7  A    between atoms: C_17  and  C_13 
REMARK    8  A    between atoms: O_14  and  C_17 
ROOT
ATOM      1  C   UNL d   1     -49.137  28.239  34.588  0.00  0.00     0.193 C 
ENDROOT
BRANCH   1   2
ATOM      2  O   UNL d   1     -48.388  28.510  34.806  0.00  0.00    -0.206 OA
BRANCH   2   3
ATOM      3  N   UNL d   1     -48.090  29.213  34.478  0.00  0.00    -0.126 NA
BRANCH   3   4
ATOM      4  C   UNL d   1     -47.856  29.833  34.972  0.00  0.00     0.108 A 
ATOM      5  C   UNL d   1     -47.777  30.631  34.756  0.00  0.00     0.020 A 
ATOM      6  C   UNL d   1     -47.532  31.046  35.423  0.00  0.00     0.002 A 
ATOM      7  C   UNL d   1     -47.898  31.013  34.043  0.00  0.00     0.002 A 
ATOM      8  C   UNL d   1     -47.407  31.866  35.370  0.00  0.00     0.000 A 
ATOM      9  C   UNL d   1     -47.458  30.524  36.048  0.00  0.00     0.002 A 
ATOM     10  C   UNL d   1     -47.528  32.251  34.654  0.00  0.00     0.000 A 
ATOM     11  C   UNL d   1     -47.775  31.827  33.984  0.00  0.00     0.000 A 
ATOM     12  C   UNL d   1     -47.657  29.770  35.775  0.00  0.00     0.020 A 
ATOM     13  C   UNL d   1     -47.236  30.628  36.832  0.00  0.00     0.000 A 
ATOM     14  C   UNL d   1     -47.635  29.122  36.282  0.00  0.00     0.002 A 
ATOM     15  C   UNL d   1     -47.410  29.229  37.074  0.00  0.00     0.000 A 
ATOM     16  C   UNL d   1     -47.211  29.985  37.344  0.00  0.00     0.000 A 
ENDBRANCH   3   4
ENDBRANCH   2   3
ENDBRANCH   1   2
BRANCH   1  17
ATOM     17  C   UNL d   1     -49.269  27.435  34.484  0.00  0.00     0.240 C 
ATOM     18  O   UNL d   1     -49.033  26.899  35.066  0.00  0.00    -0.283 OA
BRANCH  17  19
ATOM     19  C   UNL d   1     -49.540  26.764  34.077  0.00  0.00     0.136 C 
BRANCH  19  20
ATOM     20  N   UNL d   1     -50.312  26.760  33.776  0.00  0.00    -0.225 N 
ATOM     21  C   UNL d   1     -50.838  27.366  33.603  0.00  0.00     0.111 C 
BRANCH  20  22
ATOM     22  S   UNL d   1     -50.681  26.042  33.596  0.00  0.00     0.272 S 
ATOM     23  O   UNL d   1     -49.906  25.911  33.323  0.00  0.00    -0.200 OA
ATOM     24  O   UNL d   1     -51.478  25.973  33.794  0.00  0.00    -0.200 OA
BRANCH  22  25
ATOM     25  C   UNL d   1     -51.252  25.451  33.523  0.00  0.00     0.104 A 
ATOM     26  C   UNL d   1     -51.019  24.668  33.404  0.00  0.00     0.013 A 
ATOM     27  C   UNL d   1     -51.586  24.078  33.331  0.00  0.00     0.007 A 
ATOM     28  C   UNL d   1     -52.393  24.270  33.377  0.00  0.00     0.035 A 
ATOM     29  C   UNL d   1     -52.576  25.074  33.497  0.00  0.00     0.007 A 
ATOM     30 BR   UNL d   1     -52.980  23.697  33.306  0.00  0.00    -0.049 Br
ATOM     31  C   UNL d   1     -52.035  25.691  33.575  0.00  0.00     0.013 A 
ENDBRANCH  22  25
ENDBRANCH  20  22
ENDBRANCH  19  20
ENDBRANCH  17  19
ENDBRANCH   1  17
TORSDOF 8
ENDMDL
