MODEL 1
REMARK VINA RESULT:      74.4      0.000      0.000
REMARK  5 active torsions:
REMARK  status: ('A' for Active; 'I' for Inactive)
REMARK    1  A    between atoms: C_14  and  N_3 
REMARK    2  A    between atoms: C_15  and  C_9 
REMARK    3  A    between atoms: O_22  and  C_12 
REMARK    4  A    between atoms: O_23  and  C_13 
REMARK    5  A    between atoms: C_16  and  C_14 
ROOT
ATOM      1  C   UNL d   1      14.249  14.770  -2.769  0.00  0.00     0.056 A 
ATOM      2  C   UNL d   1      14.499  15.562  -2.781  0.00  0.00     0.107 A 
ATOM      3  N   UNL d   1      14.584  14.696  -1.378  0.00  0.00    -0.304 N 
ATOM      4  C   UNL d   1      14.788  15.914  -2.096  0.00  0.00     0.038 A 
ATOM      5  N   UNL d   1      14.392  15.844  -3.547  0.00  0.00    -0.148 NA
ATOM      6  C   UNL d   1      14.291  14.337  -2.068  0.00  0.00     0.083 A 
ATOM      7  N   UNL d   1      14.079  15.232  -4.003  0.00  0.00    -0.148 NA
ATOM      8  C   UNL d   1      14.831  15.481  -1.395  0.00  0.00     0.068 A 
ATOM      9  C   UNL d   1      13.988  14.568  -3.530  0.00  0.00     0.106 A 
ATOM     10  C   UNL d   1      15.120  15.834  -0.708  0.00  0.00     0.044 A 
ATOM     11  C   UNL d   1      15.035  16.699  -2.111  0.00  0.00     0.029 A 
ATOM     12  C   UNL d   1      15.367  16.619  -0.725  0.00  0.00     0.118 A 
ATOM     13  C   UNL d   1      15.325  17.051  -1.426  0.00  0.00     0.116 A 
ENDROOT
BRANCH   3  14
ATOM     14  C   UNL d   1      14.626  14.263  -0.677  0.00  0.00     0.080 C 
BRANCH  14  15
ATOM     15  C   UNL d   1      14.628  13.440  -0.701  0.00  0.00     0.020 A 
ATOM     16  C   UNL d   1      15.256  13.035  -1.067  0.00  0.00     0.031 A 
ATOM     17  C   UNL d   1      15.259  12.212  -1.091  0.00  0.00     0.140 A 
ATOM     18  F   UNL d   1      15.884  11.814  -1.455  0.00  0.00    -0.204 F 
ATOM     19  C   UNL d   1      14.633  11.780  -0.749  0.00  0.00     0.030 A 
ATOM     20  C   UNL d   1      14.004  12.185  -0.383  0.00  0.00     0.002 A 
ATOM     21  C   UNL d   1      14.004  13.012  -0.360  0.00  0.00     0.002 A 
ENDBRANCH  14  15
ENDBRANCH   3  14
BRANCH   9  22
ATOM     22  C   UNL d   1      13.683  13.871  -3.849  0.00  0.00     0.020 A 
ATOM     23  C   UNL d   1      13.993  13.571  -4.556  0.00  0.00     0.004 A 
ATOM     24  C   UNL d   1      13.684  12.870  -4.873  0.00  0.00     0.030 A 
ATOM     25  C   UNL d   1      13.079  12.479  -4.492  0.00  0.00     0.140 A 
ATOM     26  C   UNL d   1      12.769  12.776  -3.788  0.00  0.00     0.030 A 
ATOM     27  F   UNL d   1      12.779  11.780  -4.819  0.00  0.00    -0.204 F 
ATOM     28  C   UNL d   1      13.072  13.476  -3.464  0.00  0.00     0.004 A 
ENDBRANCH   9  22
BRANCH  12  29
ATOM     29  O   UNL d   1      15.661  16.974  -0.023  0.00  0.00    -0.326 OA
ATOM     30  C   UNL d   1      16.020  17.719  -0.059  0.00  0.00     0.181 C 
ENDBRANCH  12  29
BRANCH  13  31
ATOM     31  O   UNL d   1      15.576  17.846  -1.435  0.00  0.00    -0.326 OA
ATOM     32  C   UNL d   1      15.499  18.295  -2.126  0.00  0.00     0.181 C 
ENDBRANCH  13  31
TORSDOF 5
ENDMDL
