MODEL 1
REMARK VINA RESULT:      22.3      0.000      0.000
REMARK  5 active torsions:
REMARK  status: ('A' for Active; 'I' for Inactive)
REMARK       I    between atoms: N_2  and  C_1 
REMARK       I    between atoms: N_4  and  C_1 
REMARK    1  A    between atoms: C_8  and  N_2 
REMARK    2  A    between atoms: C_3  and  C_5 
REMARK    3  A    between atoms: O_11  and  C_3 
REMARK    4  A    between atoms: C_14  and  N_4 
REMARK    5  A    between atoms: C_15  and  N_4 
ROOT
ATOM      1  C   UNL d   1      13.357  13.192  -4.012  0.00  0.00     0.063 A 
ATOM      2  C   UNL d   1      13.681  12.615  -2.501  0.00  0.00     0.086 A 
ATOM      3  C   UNL d   1      13.136  12.422  -3.806  0.00  0.00     0.007 A 
ATOM      4  C   UNL d   1      13.737  13.670  -3.469  0.00  0.00     0.007 A 
ATOM      5  C   UNL d   1      13.301  12.136  -3.045  0.00  0.00     0.019 A 
ATOM      6  C   UNL d   1      13.901  13.384  -2.713  0.00  0.00     0.019 A 
ENDROOT
BRANCH   2   7
ATOM      7  N   UNL d   1      13.845  12.332  -1.748  0.00  0.00    -0.192 NA
ATOM      8  C   UNL d   1      14.465  12.668  -1.317  0.00  0.00     0.354 C 
ATOM      9  N   UNL d   1      14.636  12.393  -0.566  0.00  0.00    -0.256 N 
ATOM     10  O   UNL d   1      14.916  13.283  -1.643  0.00  0.00    -0.244 OA
BRANCH   9  11
ATOM     11  C   UNL d   1      14.183  11.779  -0.244  0.00  0.00     0.085 C 
ATOM     12  C   UNL d   1      13.402  11.918  -0.014  0.00  0.00     0.021 C 
ENDBRANCH   9  11
BRANCH   9  13
ATOM     13  C   UNL d   1      15.258  12.732  -0.138  0.00  0.00     0.085 C 
ATOM     14  C   UNL d   1      15.949  12.297  -0.014  0.00  0.00     0.021 C 
ENDBRANCH   9  13
ENDBRANCH   2   7
BRANCH   1  15
ATOM     15  C   UNL d   1      13.198  13.480  -4.761  0.00  0.00     0.296 C 
ATOM     16  O   UNL d   1      13.328  13.013  -5.421  0.00  0.00    -0.259 OA
BRANCH  15  17
ATOM     17  O   UNL d   1      12.903  14.247  -4.849  0.00  0.00    -0.296 OA
ATOM     18  C   UNL d   1      13.273  14.761  -5.368  0.00  0.00     0.185 C 
ENDBRANCH  15  17
ENDBRANCH   1  15
TORSDOF 5
ENDMDL
