MODEL 1
REMARK VINA RESULT:      25.9      0.000      0.000
REMARK  5 active torsions:
REMARK  status: ('A' for Active; 'I' for Inactive)
REMARK    1  A    between atoms: N_5  and  C_1 
REMARK    2  A    between atoms: N_8  and  C_2 
REMARK    3  A    between atoms: C_26  and  N_4 
REMARK    4  A    between atoms: C_22  and  N_9 
REMARK    5  A    between atoms: C_21  and  C_22 
ROOT
ATOM      1  C   UNL d   1      46.067 -18.221  42.470  0.00  0.00     0.199 A 
ATOM      2  C   UNL d   1      46.128 -18.195  43.301  0.00  0.00     0.092 A 
ATOM      3  C   UNL d   1      46.177 -18.929  42.063  0.00  0.00     0.288 A 
ATOM      4  N   UNL d   1      46.350 -19.622  42.487  0.00  0.00    -0.272 N 
ATOM      5  C   UNL d   1      46.301 -18.893  43.717  0.00  0.00     0.034 A 
ATOM      6  C   UNL d   1      46.412 -19.604  43.310  0.00  0.00     0.068 A 
ATOM      7  O   UNL d   1      46.115 -18.947  41.242  0.00  0.00    -0.265 OA
ATOM      8  C   UNL d   1      46.364 -18.875  44.540  0.00  0.00     0.003 A 
ATOM      9  C   UNL d   1      46.584 -20.294  43.726  0.00  0.00     0.018 A 
ATOM     10  C   UNL d   1      46.536 -19.568  44.955  0.00  0.00     0.000 A 
ATOM     11  C   UNL d   1      46.646 -20.276  44.549  0.00  0.00     0.002 A 
ENDROOT
BRANCH   2  12
ATOM     12  N   UNL d   1      46.020 -17.496  43.708  0.00  0.00    -0.300 N 
ATOM     13  C   UNL d   1      45.367 -17.412  44.204  0.00  0.00     0.100 A 
ATOM     14  C   UNL d   1      45.251 -16.704  44.621  0.00  0.00     0.100 A 
ATOM     15  N   UNL d   1      45.787 -16.082  44.541  0.00  0.00    -0.300 N 
ATOM     16  C   UNL d   1      46.444 -16.167  44.043  0.00  0.00     0.100 A 
ATOM     17  C   UNL d   1      46.555 -16.873  43.630  0.00  0.00     0.100 A 
BRANCH  15  18
ATOM     18  C   UNL d   1      45.675 -15.379  44.954  0.00  0.00     0.080 C 
BRANCH  18  19
ATOM     19  C   UNL d   1      45.467 -14.693  44.548  0.00  0.00     0.020 A 
ATOM     20  C   UNL d   1      45.983 -14.052  44.536  0.00  0.00     0.028 A 
ATOM     21  C   UNL d   1      45.776 -13.367  44.130  0.00  0.00     0.119 A 
ATOM     22  O   UNL d   1      46.168 -12.651  44.021  0.00  0.00    -0.300 OA
ATOM     23  C   UNL d   1      45.052 -13.323  43.736  0.00  0.00     0.119 A 
ATOM     24  C   UNL d   1      45.688 -12.161  43.559  0.00  0.00     0.304 A 
ATOM     25  O   UNL d   1      44.996 -12.576  43.381  0.00  0.00    -0.300 OA
ATOM     26  C   UNL d   1      44.535 -13.968  43.749  0.00  0.00     0.026 A 
ATOM     27  C   UNL d   1      44.743 -14.654  44.155  0.00  0.00     0.004 A 
ENDBRANCH  18  19
ENDBRANCH  15  18
ENDBRANCH   2  12
BRANCH   1  28
ATOM     28  N   UNL d   1      45.894 -17.524  42.054  0.00  0.00    -0.107 N 
ATOM     29  O   UNL d   1      46.507 -17.057  41.763  0.00  0.00    -0.531 OA
ATOM     30  O   UNL d   1      45.107 -17.298  41.930  0.00  0.00    -0.531 OA
ENDBRANCH   1  28
BRANCH   4  31
ATOM     31  C   UNL d   1      46.459 -20.330  42.081  0.00  0.00     0.083 C 
ATOM     32  C   UNL d   1      46.646 -20.323  41.272  0.00  0.00     0.021 C 
ENDBRANCH   4  31
TORSDOF 5
ENDMDL
