MODEL 1
REMARK VINA RESULT:      -9.2      0.000      0.000
REMARK  1 active torsions:
REMARK  status: ('A' for Active; 'I' for Inactive)
REMARK    1  A    between atoms: C_7  and  C_2 
ROOT
ATOM      1  C   UNL d   1     -47.409  12.991  22.962  0.00  0.00     0.074 A 
ATOM      2  C   UNL d   1     -47.813  12.273  22.985  0.00  0.00     0.088 A 
ATOM      3  C   UNL d   1     -46.616  13.025  23.183  0.00  0.00     0.088 A 
ATOM      4  C   UNL d   1     -46.631  11.622  23.452  0.00  0.00     0.221 A 
ATOM      5  N   UNL d   1     -46.226  12.341  23.429  0.00  0.00    -0.217 NA
ATOM      6  N   UNL d   1     -47.424  11.588  23.230  0.00  0.00    -0.217 NA
ATOM      7  C   UNL d   1     -47.798  13.667  22.718  0.00  0.00     0.199 A 
ATOM      8  S   UNL d   1     -46.241  10.936  23.698  0.00  0.00    -0.037 SA
ATOM      9  O   UNL d   1     -48.592  13.633  22.496  0.00  0.00    -0.286 OA
ATOM     10  C   UNL d   1     -46.211  13.735  23.162  0.00  0.00     0.019 A 
ATOM     11  C   UNL d   1     -47.394  14.394  22.693  0.00  0.00     0.042 A 
ATOM     12  C   UNL d   1     -46.601  14.428  22.915  0.00  0.00     0.005 A 
ENDROOT
BRANCH   2  13
ATOM     13  C   UNL d   1     -48.607  12.239  22.763  0.00  0.00     0.021 A 
ATOM     14  C   UNL d   1     -49.194  12.186  23.340  0.00  0.00     0.043 A 
ATOM     15  C   UNL d   1     -49.983  12.152  23.119  0.00  0.00     0.196 A 
ATOM     16  O   UNL d   1     -50.571  12.098  23.696  0.00  0.00    -0.287 OA
ATOM     17  C   UNL d   1     -50.190  12.171  22.320  0.00  0.00     0.042 A 
ATOM     18  C   UNL d   1     -49.601  12.224  21.744  0.00  0.00     0.003 A 
ATOM     19  C   UNL d   1     -48.812  12.258  21.965  0.00  0.00     0.002 A 
ENDBRANCH   2  13
TORSDOF 1
ENDMDL
MODEL 2
REMARK VINA RESULT:      -8.9      2.105      3.521
REMARK  1 active torsions:
REMARK  status: ('A' for Active; 'I' for Inactive)
REMARK    1  A    between atoms: C_7  and  C_2 
ROOT
ATOM      1  C   UNL d   1     -49.041  13.461  22.275  0.00  0.00     0.074 A 
ATOM      2  C   UNL d   1     -48.516  13.835  22.789  0.00  0.00     0.088 A 
ATOM      3  C   UNL d   1     -49.777  13.797  22.121  0.00  0.00     0.088 A 
ATOM      4  C   UNL d   1     -49.464  14.883  22.997  0.00  0.00     0.221 A 
ATOM      5  N   UNL d   1     -49.990  14.508  22.482  0.00  0.00    -0.217 NA
ATOM      6  N   UNL d   1     -48.728  14.546  23.150  0.00  0.00    -0.217 NA
ATOM      7  C   UNL d   1     -48.827  12.757  21.920  0.00  0.00     0.199 A 
ATOM      8  S   UNL d   1     -49.677  15.594  23.358  0.00  0.00    -0.037 SA
ATOM      9  O   UNL d   1     -48.090  12.420  22.073  0.00  0.00    -0.286 OA
ATOM     10  C   UNL d   1     -50.301  13.430  21.612  0.00  0.00     0.019 A 
ATOM     11  C   UNL d   1     -49.354  12.376  21.400  0.00  0.00     0.042 A 
ATOM     12  C   UNL d   1     -50.090  12.712  21.246  0.00  0.00     0.005 A 
ENDROOT
BRANCH   2  13
ATOM     13  C   UNL d   1     -47.779  13.498  22.943  0.00  0.00     0.021 A 
ATOM     14  C   UNL d   1     -47.097  13.836  22.624  0.00  0.00     0.043 A 
ATOM     15  C   UNL d   1     -46.364  13.501  22.777  0.00  0.00     0.196 A 
ATOM     16  O   UNL d   1     -45.681  13.839  22.459  0.00  0.00    -0.287 OA
ATOM     17  C   UNL d   1     -46.309  12.827  23.250  0.00  0.00     0.042 A 
ATOM     18  C   UNL d   1     -46.991  12.490  23.568  0.00  0.00     0.003 A 
ATOM     19  C   UNL d   1     -47.724  12.825  23.415  0.00  0.00     0.002 A 
ENDBRANCH   2  13
TORSDOF 1
ENDMDL
MODEL 3
REMARK VINA RESULT:      -8.7      1.344      2.065
REMARK  1 active torsions:
REMARK  status: ('A' for Active; 'I' for Inactive)
REMARK    1  A    between atoms: C_7  and  C_2 
ROOT
ATOM      1  C   UNL d   1     -47.429  12.192  23.273  0.00  0.00     0.074 A 
ATOM      2  C   UNL d   1     -47.981  12.766  23.061  0.00  0.00     0.088 A 
ATOM      3  C   UNL d   1     -46.630  12.387  23.323  0.00  0.00     0.088 A 
ATOM      4  C   UNL d   1     -46.936  13.732  22.948  0.00  0.00     0.221 A 
ATOM      5  N   UNL d   1     -46.383  13.157  23.160  0.00  0.00    -0.217 NA
ATOM      6  N   UNL d   1     -47.735  13.537  22.898  0.00  0.00    -0.217 NA
ATOM      7  C   UNL d   1     -47.678  11.430  23.433  0.00  0.00     0.199 A 
ATOM      8  S   UNL d   1     -46.688  14.503  22.785  0.00  0.00    -0.037 SA
ATOM      9  O   UNL d   1     -48.478  11.234  23.383  0.00  0.00    -0.286 OA
ATOM     10  C   UNL d   1     -46.079  11.821  23.533  0.00  0.00     0.019 A 
ATOM     11  C   UNL d   1     -47.124  10.847  23.648  0.00  0.00     0.042 A 
ATOM     12  C   UNL d   1     -46.325  11.043  23.698  0.00  0.00     0.005 A 
ENDROOT
BRANCH   2  13
ATOM     13  C   UNL d   1     -48.781  12.570  23.011  0.00  0.00     0.021 A 
ATOM     14  C   UNL d   1     -49.145  12.509  22.273  0.00  0.00     0.043 A 
ATOM     15  C   UNL d   1     -49.940  12.315  22.223  0.00  0.00     0.196 A 
ATOM     16  O   UNL d   1     -50.305  12.254  21.485  0.00  0.00    -0.287 OA
ATOM     17  C   UNL d   1     -50.376  12.180  22.911  0.00  0.00     0.042 A 
ATOM     18  C   UNL d   1     -50.011  12.241  23.648  0.00  0.00     0.003 A 
ATOM     19  C   UNL d   1     -49.216  12.436  23.698  0.00  0.00     0.002 A 
ENDBRANCH   2  13
TORSDOF 1
ENDMDL
MODEL 4
REMARK VINA RESULT:      -8.7      1.753      2.426
REMARK  1 active torsions:
REMARK  status: ('A' for Active; 'I' for Inactive)
REMARK    1  A    between atoms: C_7  and  C_2 
ROOT
ATOM      1  C   UNL d   1     -48.324  12.946  23.178  0.00  0.00     0.074 A 
ATOM      2  C   UNL d   1     -48.265  13.726  22.918  0.00  0.00     0.088 A 
ATOM      3  C   UNL d   1     -47.641  12.506  23.317  0.00  0.00     0.088 A 
ATOM      4  C   UNL d   1     -46.841  13.627  22.936  0.00  0.00     0.221 A 
ATOM      5  N   UNL d   1     -46.899  12.846  23.196  0.00  0.00    -0.217 NA
ATOM      6  N   UNL d   1     -47.524  14.067  22.797  0.00  0.00    -0.217 NA
ATOM      7  C   UNL d   1     -49.060  12.612  23.297  0.00  0.00     0.199 A 
ATOM      8  S   UNL d   1     -46.099  13.968  22.814  0.00  0.00    -0.037 SA
ATOM      9  O   UNL d   1     -49.744  13.052  23.158  0.00  0.00    -0.286 OA
ATOM     10  C   UNL d   1     -47.694  11.731  23.574  0.00  0.00     0.019 A 
ATOM     11  C   UNL d   1     -49.123  11.824  23.559  0.00  0.00     0.042 A 
ATOM     12  C   UNL d   1     -48.441  11.385  23.698  0.00  0.00     0.005 A 
ENDROOT
BRANCH   2  13
ATOM     13  C   UNL d   1     -48.949  14.166  22.779  0.00  0.00     0.021 A 
ATOM     14  C   UNL d   1     -49.171  14.760  23.308  0.00  0.00     0.043 A 
ATOM     15  C   UNL d   1     -49.851  15.198  23.170  0.00  0.00     0.196 A 
ATOM     16  O   UNL d   1     -50.074  15.792  23.698  0.00  0.00    -0.287 OA
ATOM     17  C   UNL d   1     -50.312  15.045  22.503  0.00  0.00     0.042 A 
ATOM     18  C   UNL d   1     -50.089  14.451  21.975  0.00  0.00     0.003 A 
ATOM     19  C   UNL d   1     -49.410  14.013  22.113  0.00  0.00     0.002 A 
ENDBRANCH   2  13
TORSDOF 1
ENDMDL
