MODEL 1
REMARK VINA RESULT:      -7.6      0.000      0.000
REMARK  4 active torsions:
REMARK  status: ('A' for Active; 'I' for Inactive)
REMARK    1  A    between atoms: N_2  and  C_1 
REMARK       I    between atoms: C_4  and  N_2 
REMARK    2  A    between atoms: C_11  and  C_4 
REMARK    3  A    between atoms: C_7  and  C_5 
REMARK    4  A    between atoms: C_9  and  C_7 
REMARK       I    between atoms: N_13  and  C_9 
ROOT
ATOM      1  C   UNL d   1     -47.200  13.266  22.971  0.00  0.00     0.197 A 
ATOM      2  N   UNL d   1     -46.694  12.832  22.499  0.00  0.00    -0.220 NA
ATOM      3  C   UNL d   1     -46.037  13.287  22.343  0.00  0.00     0.095 A 
ATOM      4  S   UNL d   1     -46.854  14.000  23.112  0.00  0.00    -0.046 SA
ATOM      5  C   UNL d   1     -46.134  14.015  22.724  0.00  0.00     0.058 A 
ENDROOT
BRANCH   1   6
ATOM      6  N   UNL d   1     -47.929  13.017  23.259  0.00  0.00    -0.183 NA
ATOM      7  C   UNL d   1     -48.596  13.029  22.771  0.00  0.00     0.281 C 
ATOM      8  O   UNL d   1     -48.522  13.294  21.989  0.00  0.00    -0.265 OA
BRANCH   7   9
ATOM      9  C   UNL d   1     -49.322  12.782  23.057  0.00  0.00     0.058 A 
ATOM     10  C   UNL d   1     -49.525  11.984  23.010  0.00  0.00     0.005 A 
ATOM     11  C   UNL d   1     -50.256  11.737  23.299  0.00  0.00     0.000 A 
ATOM     12  C   UNL d   1     -50.777  12.275  23.629  0.00  0.00     0.000 A 
ATOM     13  C   UNL d   1     -50.571  13.078  23.676  0.00  0.00     0.000 A 
ATOM     14  C   UNL d   1     -49.837  13.327  23.386  0.00  0.00     0.005 A 
ENDBRANCH   7   9
ENDBRANCH   1   6
BRANCH   3  15
ATOM     15  C   UNL d   1     -45.386  13.064  21.886  0.00  0.00     0.084 C 
BRANCH  15  16
ATOM     16  C   UNL d   1     -44.794  12.590  22.215  0.00  0.00     0.306 C 
ATOM     17  O   UNL d   1     -44.938  12.184  22.917  0.00  0.00    -0.263 OA
ATOM     18  N   UNL d   1     -44.069  12.528  21.839  0.00  0.00    -0.053 NA
ATOM     19  O   UNL d   1     -43.471  12.056  22.162  0.00  0.00    -0.058 OA
ENDBRANCH  15  16
ENDBRANCH   3  15
TORSDOF 4
ENDMDL
MODEL 2
REMARK VINA RESULT:      -7.5      1.585      1.956
REMARK  4 active torsions:
REMARK  status: ('A' for Active; 'I' for Inactive)
REMARK    1  A    between atoms: N_2  and  C_1 
REMARK       I    between atoms: C_4  and  N_2 
REMARK    2  A    between atoms: C_11  and  C_4 
REMARK    3  A    between atoms: C_7  and  C_5 
REMARK    4  A    between atoms: C_9  and  C_7 
REMARK       I    between atoms: N_13  and  C_9 
ROOT
ATOM      1  C   UNL d   1     -47.622  13.929  23.051  0.00  0.00     0.197 A 
ATOM      2  N   UNL d   1     -47.470  13.143  22.890  0.00  0.00    -0.220 NA
ATOM      3  C   UNL d   1     -46.684  13.070  22.690  0.00  0.00     0.095 A 
ATOM      4  S   UNL d   1     -46.922  14.352  22.950  0.00  0.00    -0.046 SA
ATOM      5  C   UNL d   1     -46.340  13.822  22.727  0.00  0.00     0.058 A 
ENDROOT
BRANCH   1   6
ATOM      6  N   UNL d   1     -48.346  14.249  23.276  0.00  0.00    -0.183 NA
ATOM      7  C   UNL d   1     -48.859  14.558  22.707  0.00  0.00     0.281 C 
ATOM      8  O   UNL d   1     -48.637  14.543  21.908  0.00  0.00    -0.265 OA
BRANCH   7   9
ATOM      9  C   UNL d   1     -49.579  14.877  22.930  0.00  0.00     0.058 A 
ATOM     10  C   UNL d   1     -49.594  15.554  23.400  0.00  0.00     0.005 A 
ATOM     11  C   UNL d   1     -50.319  15.873  23.624  0.00  0.00     0.000 A 
ATOM     12  C   UNL d   1     -51.020  15.523  23.383  0.00  0.00     0.000 A 
ATOM     13  C   UNL d   1     -51.003  14.842  22.910  0.00  0.00     0.000 A 
ATOM     14  C   UNL d   1     -50.274  14.521  22.685  0.00  0.00     0.005 A 
ENDBRANCH   7   9
ENDBRANCH   1   6
BRANCH   3  15
ATOM     15  C   UNL d   1     -46.295  12.371  22.486  0.00  0.00     0.084 C 
BRANCH  15  16
ATOM     16  C   UNL d   1     -45.889  11.940  23.063  0.00  0.00     0.306 C 
ATOM     17  O   UNL d   1     -46.302  11.615  23.697  0.00  0.00    -0.263 OA
ATOM     18  N   UNL d   1     -45.078  11.841  23.000  0.00  0.00    -0.053 NA
ATOM     19  O   UNL d   1     -44.665  11.412  23.574  0.00  0.00    -0.058 OA
ENDBRANCH  15  16
ENDBRANCH   3  15
TORSDOF 4
ENDMDL
MODEL 3
REMARK VINA RESULT:      -6.7      2.119      4.722
REMARK  4 active torsions:
REMARK  status: ('A' for Active; 'I' for Inactive)
REMARK    1  A    between atoms: N_2  and  C_1 
REMARK       I    between atoms: C_4  and  N_2 
REMARK    2  A    between atoms: C_11  and  C_4 
REMARK    3  A    between atoms: C_7  and  C_5 
REMARK    4  A    between atoms: C_9  and  C_7 
REMARK       I    between atoms: N_13  and  C_9 
ROOT
ATOM      1  C   UNL d   1     -49.041  13.055  22.205  0.00  0.00     0.197 A 
ATOM      2  N   UNL d   1     -49.580  13.418  22.701  0.00  0.00    -0.220 NA
ATOM      3  C   UNL d   1     -50.263  13.555  22.280  0.00  0.00     0.095 A 
ATOM      4  S   UNL d   1     -49.393  12.965  21.466  0.00  0.00    -0.046 SA
ATOM      5  C   UNL d   1     -50.150  13.274  21.510  0.00  0.00     0.058 A 
ENDROOT
BRANCH   1   6
ATOM      6  N   UNL d   1     -48.279  12.819  22.405  0.00  0.00    -0.183 NA
ATOM      7  C   UNL d   1     -47.640  13.328  22.282  0.00  0.00     0.281 C 
ATOM      8  O   UNL d   1     -47.774  14.078  21.956  0.00  0.00    -0.265 OA
BRANCH   7   9
ATOM      9  C   UNL d   1     -46.881  13.093  22.480  0.00  0.00     0.058 A 
ATOM     10  C   UNL d   1     -46.236  13.459  22.118  0.00  0.00     0.005 A 
ATOM     11  C   UNL d   1     -45.474  13.222  22.318  0.00  0.00     0.000 A 
ATOM     12  C   UNL d   1     -45.354  12.629  22.870  0.00  0.00     0.000 A 
ATOM     13  C   UNL d   1     -46.004  12.261  23.233  0.00  0.00     0.000 A 
ATOM     14  C   UNL d   1     -46.770  12.499  23.032  0.00  0.00     0.005 A 
ENDBRANCH   7   9
ENDBRANCH   1   6
BRANCH   3  15
ATOM     15  C   UNL d   1     -50.950  13.912  22.567  0.00  0.00     0.084 C 
BRANCH  15  16
ATOM     16  C   UNL d   1     -50.997  14.736  22.620  0.00  0.00     0.306 C 
ATOM     17  O   UNL d   1     -51.064  15.187  21.933  0.00  0.00    -0.263 OA
ATOM     18  N   UNL d   1     -50.975  15.098  23.354  0.00  0.00    -0.053 NA
ATOM     19  O   UNL d   1     -51.021  15.921  23.415  0.00  0.00    -0.058 OA
ENDBRANCH  15  16
ENDBRANCH   3  15
TORSDOF 4
ENDMDL
MODEL 4
REMARK VINA RESULT:      -5.9      8.696      9.125
REMARK  4 active torsions:
REMARK  status: ('A' for Active; 'I' for Inactive)
REMARK    1  A    between atoms: N_2  and  C_1 
REMARK       I    between atoms: C_4  and  N_2 
REMARK    2  A    between atoms: C_11  and  C_4 
REMARK    3  A    between atoms: C_7  and  C_5 
REMARK    4  A    between atoms: C_9  and  C_7 
REMARK       I    between atoms: N_13  and  C_9 
ROOT
ATOM      1  C   UNL d   1     -39.253  15.150  19.801  0.00  0.00     0.197 A 
ATOM      2  N   UNL d   1     -39.311  14.689  19.129  0.00  0.00    -0.220 NA
ATOM      3  C   UNL d   1     -39.636  15.141  18.535  0.00  0.00     0.095 A 
ATOM      4  S   UNL d   1     -39.546  15.900  19.624  0.00  0.00    -0.046 SA
ATOM      5  C   UNL d   1     -39.784  15.896  18.840  0.00  0.00     0.058 A 
ENDROOT
BRANCH   1   6
ATOM      6  N   UNL d   1     -38.955  14.913  20.530  0.00  0.00    -0.183 NA
ATOM      7  C   UNL d   1     -39.470  14.710  21.144  0.00  0.00     0.281 C 
ATOM      8  O   UNL d   1     -40.288  14.747  21.018  0.00  0.00    -0.265 OA
BRANCH   7   9
ATOM      9  C   UNL d   1     -39.173  14.474  21.870  0.00  0.00     0.058 A 
ATOM     10  C   UNL d   1     -39.057  13.671  22.017  0.00  0.00     0.005 A 
ATOM     11  C   UNL d   1     -38.759  13.435  22.748  0.00  0.00     0.000 A 
ATOM     12  C   UNL d   1     -38.579  13.989  23.323  0.00  0.00     0.000 A 
ATOM     13  C   UNL d   1     -38.698  14.797  23.173  0.00  0.00     0.000 A 
ATOM     14  C   UNL d   1     -38.997  15.035  22.439  0.00  0.00     0.005 A 
ENDBRANCH   7   9
ENDBRANCH   1   6
BRANCH   3  15
ATOM     15  C   UNL d   1     -39.793  14.894  17.763  0.00  0.00     0.084 C 
BRANCH  15  16
ATOM     16  C   UNL d   1     -40.572  14.754  17.524  0.00  0.00     0.306 C 
ATOM     17  O   UNL d   1     -41.000  14.139  17.867  0.00  0.00    -0.263 OA
ATOM     18  N   UNL d   1     -40.911  15.228  16.949  0.00  0.00    -0.053 NA
ATOM     19  O   UNL d   1     -41.690  15.094  16.705  0.00  0.00    -0.058 OA
ENDBRANCH  15  16
ENDBRANCH   3  15
TORSDOF 4
ENDMDL
MODEL 5
REMARK VINA RESULT:      -5.7      7.983      9.810
REMARK  4 active torsions:
REMARK  status: ('A' for Active; 'I' for Inactive)
REMARK    1  A    between atoms: N_2  and  C_1 
REMARK       I    between atoms: C_4  and  N_2 
REMARK    2  A    between atoms: C_11  and  C_4 
REMARK    3  A    between atoms: C_7  and  C_5 
REMARK    4  A    between atoms: C_9  and  C_7 
REMARK       I    between atoms: N_13  and  C_9 
ROOT
ATOM      1  C   UNL d   1     -39.657  14.665  19.014  0.00  0.00     0.197 A 
ATOM      2  N   UNL d   1     -39.663  14.251  19.718  0.00  0.00    -0.220 NA
ATOM      3  C   UNL d   1     -40.228  14.582  20.204  0.00  0.00     0.095 A 
ATOM      4  S   UNL d   1     -40.224  15.261  19.061  0.00  0.00    -0.046 SA
ATOM      5  C   UNL d   1     -40.579  15.211  19.797  0.00  0.00     0.058 A 
ENDROOT
BRANCH   1   6
ATOM      6  N   UNL d   1     -39.171  14.517  18.367  0.00  0.00    -0.183 NA
ATOM      7  C   UNL d   1     -39.397  13.966  17.794  0.00  0.00     0.281 C 
ATOM      8  O   UNL d   1     -40.118  13.564  17.878  0.00  0.00    -0.265 OA
BRANCH   7   9
ATOM      9  C   UNL d   1     -38.914  13.818  17.150  0.00  0.00     0.058 A 
ATOM     10  C   UNL d   1     -38.923  14.338  16.510  0.00  0.00     0.005 A 
ATOM     11  C   UNL d   1     -38.437  14.188  15.863  0.00  0.00     0.000 A 
ATOM     12  C   UNL d   1     -37.948  13.531  15.853  0.00  0.00     0.000 A 
ATOM     13  C   UNL d   1     -37.940  13.009  16.498  0.00  0.00     0.000 A 
ATOM     14  C   UNL d   1     -38.429  13.159  17.149  0.00  0.00     0.005 A 
ENDBRANCH   7   9
ENDBRANCH   1   6
BRANCH   3  15
ATOM     15  C   UNL d   1     -40.419  14.335  20.969  0.00  0.00     0.084 C 
BRANCH  15  16
ATOM     16  C   UNL d   1     -39.879  14.446  21.586  0.00  0.00     0.306 C 
ATOM     17  O   UNL d   1     -39.704  15.209  21.844  0.00  0.00    -0.263 OA
ATOM     18  N   UNL d   1     -39.523  13.796  21.934  0.00  0.00    -0.053 NA
ATOM     19  O   UNL d   1     -38.982  13.899  22.551  0.00  0.00    -0.058 OA
ENDBRANCH  15  16
ENDBRANCH   3  15
TORSDOF 4
ENDMDL
MODEL 6
REMARK VINA RESULT:      -5.4      8.039      9.619
REMARK  4 active torsions:
REMARK  status: ('A' for Active; 'I' for Inactive)
REMARK    1  A    between atoms: N_2  and  C_1 
REMARK       I    between atoms: C_4  and  N_2 
REMARK    2  A    between atoms: C_11  and  C_4 
REMARK    3  A    between atoms: C_7  and  C_5 
REMARK    4  A    between atoms: C_9  and  C_7 
REMARK       I    between atoms: N_13  and  C_9 
ROOT
ATOM      1  C   UNL d   1     -39.723  15.641  17.842  0.00  0.00     0.197 A 
ATOM      2  N   UNL d   1     -38.979  15.520  17.528  0.00  0.00    -0.220 NA
ATOM      3  C   UNL d   1     -39.063  15.324  16.741  0.00  0.00     0.095 A 
ATOM      4  S   UNL d   1     -40.278  15.519  17.246  0.00  0.00    -0.046 SA
ATOM      5  C   UNL d   1     -39.871  15.323  16.563  0.00  0.00     0.058 A 
ENDROOT
BRANCH   1   6
ATOM      6  N   UNL d   1     -39.895  15.848  18.619  0.00  0.00    -0.183 NA
ATOM      7  C   UNL d   1     -40.164  15.278  19.154  0.00  0.00     0.281 C 
ATOM      8  O   UNL d   1     -40.260  14.495  18.898  0.00  0.00    -0.265 OA
BRANCH   7   9
ATOM      9  C   UNL d   1     -40.335  15.484  19.927  0.00  0.00     0.058 A 
ATOM     10  C   UNL d   1     -41.105  15.703  20.127  0.00  0.00     0.005 A 
ATOM     11  C   UNL d   1     -41.275  15.910  20.905  0.00  0.00     0.000 A 
ATOM     12  C   UNL d   1     -40.688  15.900  21.477  0.00  0.00     0.000 A 
ATOM     13  C   UNL d   1     -39.914  15.679  21.274  0.00  0.00     0.000 A 
ATOM     14  C   UNL d   1     -39.742  15.471  20.491  0.00  0.00     0.005 A 
ENDBRANCH   7   9
ENDBRANCH   1   6
BRANCH   3  15
ATOM     15  C   UNL d   1     -38.452  15.155  16.212  0.00  0.00     0.084 C 
BRANCH  15  16
ATOM     16  C   UNL d   1     -38.218  14.372  16.087  0.00  0.00     0.306 C 
ATOM     17  O   UNL d   1     -38.033  13.892  16.731  0.00  0.00    -0.263 OA
ATOM     18  N   UNL d   1     -38.173  14.080  15.323  0.00  0.00    -0.053 NA
ATOM     19  O   UNL d   1     -37.940  13.297  15.190  0.00  0.00    -0.058 OA
ENDBRANCH  15  16
ENDBRANCH   3  15
TORSDOF 4
ENDMDL
MODEL 7
REMARK VINA RESULT:      -4.8      8.205      8.927
REMARK  4 active torsions:
REMARK  status: ('A' for Active; 'I' for Inactive)
REMARK    1  A    between atoms: N_2  and  C_1 
REMARK       I    between atoms: C_4  and  N_2 
REMARK    2  A    between atoms: C_11  and  C_4 
REMARK    3  A    between atoms: C_7  and  C_5 
REMARK    4  A    between atoms: C_9  and  C_7 
REMARK       I    between atoms: N_13  and  C_9 
ROOT
ATOM      1  C   UNL d   1     -39.772  15.157  20.290  0.00  0.00     0.197 A 
ATOM      2  N   UNL d   1     -39.126  14.857  20.689  0.00  0.00    -0.220 NA
ATOM      3  C   UNL d   1     -39.312  14.813  21.481  0.00  0.00     0.095 A 
ATOM      4  S   UNL d   1     -40.369  15.303  20.839  0.00  0.00    -0.046 SA
ATOM      5  C   UNL d   1     -40.086  15.090  21.577  0.00  0.00     0.058 A 
ENDROOT
BRANCH   1   6
ATOM      6  N   UNL d   1     -39.823  15.293  19.480  0.00  0.00    -0.183 NA
ATOM      7  C   UNL d   1     -40.253  14.777  18.998  0.00  0.00     0.281 C 
ATOM      8  O   UNL d   1     -40.630  14.122  19.338  0.00  0.00    -0.265 OA
BRANCH   7   9
ATOM      9  C   UNL d   1     -40.304  14.912  18.192  0.00  0.00     0.058 A 
ATOM     10  C   UNL d   1     -39.750  14.565  17.688  0.00  0.00     0.005 A 
ATOM     11  C   UNL d   1     -39.803  14.702  16.878  0.00  0.00     0.000 A 
ATOM     12  C   UNL d   1     -40.398  15.176  16.573  0.00  0.00     0.000 A 
ATOM     13  C   UNL d   1     -40.954  15.523  17.082  0.00  0.00     0.000 A 
ATOM     14  C   UNL d   1     -40.901  15.386  17.896  0.00  0.00     0.005 A 
ENDBRANCH   7   9
ENDBRANCH   1   6
BRANCH   3  15
ATOM     15  C   UNL d   1     -38.819  14.540  22.085  0.00  0.00     0.084 C 
BRANCH  15  16
ATOM     16  C   UNL d   1     -38.740  13.728  22.219  0.00  0.00     0.306 C 
ATOM     17  O   UNL d   1     -39.381  13.297  22.505  0.00  0.00    -0.263 OA
ATOM     18  N   UNL d   1     -38.026  13.359  22.065  0.00  0.00    -0.053 NA
ATOM     19  O   UNL d   1     -37.939  12.547  22.196  0.00  0.00    -0.058 OA
ENDBRANCH  15  16
ENDBRANCH   3  15
TORSDOF 4
ENDMDL
