MODEL 1
REMARK VINA RESULT:      19.9      0.000      0.000
REMARK  5 active torsions:
REMARK  status: ('A' for Active; 'I' for Inactive)
REMARK    1  A    between atoms: C_2  and  S_1 
REMARK    2  A    between atoms: N_3  and  S_1 
REMARK    3  A    between atoms: C_4  and  N_3 
REMARK    4  A    between atoms: O_16  and  C_9 
REMARK    5  A    between atoms: O_17  and  C_14 
ROOT
ATOM      1  C   UNL d   1     -58.290 -98.769 -44.886  0.00  0.00     0.118 A 
ATOM      2  C   UNL d   1     -58.343 -98.756 -44.062  0.00  0.00     0.046 A 
ATOM      3  C   UNL d   1     -58.973 -98.794 -45.343  0.00  0.00     0.113 A 
ATOM      4  C   UNL d   1     -59.715 -98.808 -44.978  0.00  0.00     0.028 A 
ATOM      5  C   UNL d   1     -59.080 -98.770 -43.696  0.00  0.00     0.096 A 
ATOM      6  C   UNL d   1     -59.769 -98.795 -44.155  0.00  0.00     0.026 A 
ENDROOT
BRANCH   1   7
ATOM      7  N   UNL d   1     -57.543 -98.756 -45.263  0.00  0.00    -0.156 NA
BRANCH   7   8
ATOM      8  S   UNL d   1     -56.884 -99.123 -44.900  0.00  0.00     0.291 S 
ATOM      9  O   UNL d   1     -56.398 -98.823 -45.495  0.00  0.00    -0.198 OA
ATOM     10  O   UNL d   1     -57.376 -99.420 -44.308  0.00  0.00    -0.198 OA
BRANCH   8  11
ATOM     11  C   UNL d   1     -56.233 -99.484 -44.544  0.00  0.00     0.135 A 
ATOM     12  S   UNL d   1     -55.592 -99.150 -44.558  0.00  0.00    -0.073 SA
ATOM     13  C   UNL d   1     -55.028 -99.478 -44.242  0.00  0.00     0.036 A 
ATOM     14  C   UNL d   1     -55.104-100.120 -43.921  0.00  0.00     0.008 A 
ATOM     15  C   UNL d   1     -56.305-100.121 -44.226  0.00  0.00     0.020 A 
ENDBRANCH   8  11
ENDBRANCH   7   8
ENDBRANCH   1   7
BRANCH   3  16
ATOM     16  O   UNL d   1     -58.920 -98.807 -46.166  0.00  0.00    -0.327 OA
ATOM     17  C   UNL d   1     -59.601 -98.758 -46.625  0.00  0.00     0.181 C 
ENDBRANCH   3  16
BRANCH   5  18
ATOM     18  O   UNL d   1     -59.134 -98.757 -42.873  0.00  0.00    -0.328 OA
ATOM     19  C   UNL d   1     -59.865 -98.849 -42.506  0.00  0.00     0.181 C 
ENDBRANCH   5  18
TORSDOF 5
ENDMDL
