MODEL 1
REMARK VINA RESULT:      17.0      0.000      0.000
REMARK  4 active torsions:
REMARK  status: ('A' for Active; 'I' for Inactive)
REMARK    1  A    between atoms: C_13  and  N_1 
REMARK    2  A    between atoms: N_6  and  C_15 
REMARK    3  A    between atoms: C_14  and  C_13 
REMARK    4  A    between atoms: C_15  and  C_14 
ROOT
ATOM      1  C   UNL d   1     -52.417  25.228  33.729  0.00  0.00     0.087 C 
ENDROOT
BRANCH   1   2
ATOM      2  N   UNL d   1     -52.446  24.415  33.585  0.00  0.00    -0.248 N 
ATOM      3  C   UNL d   1     -53.115  23.967  33.558  0.00  0.00     0.208 A 
ATOM      4  N   UNL d   1     -52.896  23.209  33.403  0.00  0.00    -0.212 NA
ATOM      5  S   UNL d   1     -53.863  24.106  33.644  0.00  0.00    -0.038 SA
ATOM      6  C   UNL d   1     -52.099  23.188  33.335  0.00  0.00     0.162 A 
ATOM      7  C   UNL d   1     -51.823  23.940  33.449  0.00  0.00     0.286 A 
ATOM      8  O   UNL d   1     -51.165  23.916  33.391  0.00  0.00    -0.265 OA
ENDBRANCH   1   2
BRANCH   1   9
ATOM      9  C   UNL d   1     -51.884  25.703  33.315  0.00  0.00     0.038 C 
BRANCH   9  10
ATOM     10  C   UNL d   1     -51.932  26.527  33.373  0.00  0.00     0.083 C 
BRANCH  10  11
ATOM     11  N   UNL d   1     -51.244  26.977  33.416  0.00  0.00    -0.285 N 
ATOM     12  C   UNL d   1     -51.199  27.795  33.363  0.00  0.00     0.183 A 
ATOM     13  N   UNL d   1     -50.400  28.011  33.435  0.00  0.00    -0.222 NA
ATOM     14  C   UNL d   1     -49.957  27.329  33.531  0.00  0.00     0.120 A 
ATOM     15  C   UNL d   1     -50.479  26.689  33.520  0.00  0.00     0.102 A 
ENDBRANCH  10  11
ENDBRANCH   9  10
ENDBRANCH   1   9
TORSDOF 4
ENDMDL
MODEL 2
REMARK VINA RESULT:      17.4      1.685      3.812
REMARK  4 active torsions:
REMARK  status: ('A' for Active; 'I' for Inactive)
REMARK    1  A    between atoms: C_13  and  N_1 
REMARK    2  A    between atoms: N_6  and  C_15 
REMARK    3  A    between atoms: C_14  and  C_13 
REMARK    4  A    between atoms: C_15  and  C_14 
ROOT
ATOM      1  C   UNL d   1     -51.329  25.769  33.876  0.00  0.00     0.087 C 
ENDROOT
BRANCH   1   2
ATOM      2  N   UNL d   1     -50.853  26.405  33.649  0.00  0.00    -0.248 N 
ATOM      3  C   UNL d   1     -50.058  26.373  33.523  0.00  0.00     0.208 A 
ATOM      4  N   UNL d   1     -49.814  27.110  33.312  0.00  0.00    -0.212 NA
ATOM      5  S   UNL d   1     -49.525  25.824  33.561  0.00  0.00    -0.038 SA
ATOM      6  C   UNL d   1     -50.452  27.593  33.307  0.00  0.00     0.162 A 
ATOM      7  C   UNL d   1     -51.096  27.150  33.518  0.00  0.00     0.286 A 
ATOM      8  O   UNL d   1     -51.619  27.554  33.512  0.00  0.00    -0.265 OA
ENDBRANCH   1   2
BRANCH   1   9
ATOM      9  C   UNL d   1     -51.438  25.131  33.363  0.00  0.00     0.038 C 
BRANCH   9  10
ATOM     10  C   UNL d   1     -51.616  24.382  33.665  0.00  0.00     0.083 C 
BRANCH  10  11
ATOM     11  N   UNL d   1     -52.365  24.059  33.549  0.00  0.00    -0.285 N 
ATOM     12  C   UNL d   1     -53.077  24.467  33.584  0.00  0.00     0.183 A 
ATOM     13  N   UNL d   1     -53.687  23.925  33.432  0.00  0.00    -0.222 NA
ATOM     14  C   UNL d   1     -53.352  23.188  33.306  0.00  0.00     0.120 A 
ATOM     15  C   UNL d   1     -52.534  23.271  33.378  0.00  0.00     0.102 A 
ENDBRANCH  10  11
ENDBRANCH   9  10
ENDBRANCH   1   9
TORSDOF 4
ENDMDL
