MODEL 1
REMARK VINA RESULT:      76.8      0.000      0.000
REMARK  3 active torsions:
REMARK  status: ('A' for Active; 'I' for Inactive)
REMARK    1  A    between atoms: N_10  and  C_3 
REMARK    2  A    between atoms: C_11  and  C_5 
REMARK    3  A    between atoms: C_13  and  N_10 
ROOT
ATOM      1  N   UNL d   1      59.324  49.432  51.268  0.00  0.00    -0.184 N 
ATOM      2  C   UNL d   1      58.758  49.488  50.651  0.00  0.00     0.168 A 
ATOM      3  C   UNL d   1      60.131  49.458  51.087  0.00  0.00     0.217 A 
ATOM      4  N   UNL d   1      58.276  49.326  52.219  0.00  0.00    -0.162 NA
ATOM      5  C   UNL d   1      57.971  49.463  50.827  0.00  0.00     0.055 A 
ATOM      6  N   UNL d   1      59.019  49.569  49.875  0.00  0.00    -0.227 NA
ATOM      7  C   UNL d   1      60.372  49.538  50.316  0.00  0.00     0.066 A 
ATOM      8  C   UNL d   1      57.719  49.381  51.612  0.00  0.00     0.104 A 
ATOM      9  C   UNL d   1      59.813  49.595  49.693  0.00  0.00     0.087 A 
ATOM     10  C   UNL d   1      61.107  49.580  49.974  0.00  0.00     0.006 A 
ATOM     11  C   UNL d   1      56.920  49.356  51.781  0.00  0.00     0.023 C 
ATOM     12  C   UNL d   1      60.217  49.671  48.984  0.00  0.00     0.019 A 
ATOM     13  C   UNL d   1      61.028  49.661  49.165  0.00  0.00     0.002 A 
ENDROOT
BRANCH   3  14
ATOM     14  N   UNL d   1      60.705  49.401  51.707  0.00  0.00    -0.383 NA
BRANCH  14  15
ATOM     15  C   UNL d   1      61.279  49.342  52.323  0.00  0.00     0.134 A 
ATOM     16  C   UNL d   1      62.009  48.947  52.170  0.00  0.00     0.032 A 
ATOM     17  C   UNL d   1      62.584  48.884  52.777  0.00  0.00     0.003 A 
ATOM     18  C   UNL d   1      62.436  49.216  53.548  0.00  0.00     0.000 A 
ATOM     19  C   UNL d   1      61.703  49.608  53.686  0.00  0.00     0.003 A 
ATOM     20  C   UNL d   1      61.124  49.671  53.076  0.00  0.00     0.032 A 
ENDBRANCH  14  15
ENDBRANCH   3  14
BRANCH   5  21
ATOM     21  C   UNL d   1      57.417  49.518  50.223  0.00  0.00     0.004 A 
ATOM     22  C   UNL d   1      56.615  49.494  50.395  0.00  0.00     0.000 A 
ATOM     23  C   UNL d   1      56.060  49.549  49.797  0.00  0.00     0.000 A 
ATOM     24  C   UNL d   1      56.309  49.629  49.014  0.00  0.00     0.000 A 
ATOM     25  C   UNL d   1      57.099  49.654  48.836  0.00  0.00     0.000 A 
ATOM     26  C   UNL d   1      57.659  49.598  49.447  0.00  0.00     0.000 A 
ENDBRANCH   5  21
TORSDOF 3
ENDMDL
