MODEL 1
REMARK VINA RESULT:      -6.4      0.000      0.000
REMARK  3 active torsions:
REMARK  status: ('A' for Active; 'I' for Inactive)
REMARK    1  A    between atoms: S_9  and  C_2 
REMARK    2  A    between atoms: C_8  and  C_3 
REMARK    3  A    between atoms: C_10  and  S_9 
ROOT
ATOM      1  N   UNL d   1     -43.952  12.570  21.823  0.00  0.00    -0.195 NA
ATOM      2  C   UNL d   1     -44.686  12.930  21.920  0.00  0.00     0.086 C 
ATOM      3  C   UNL d   1     -45.419  13.294  22.012  0.00  0.00     0.169 C 
ENDROOT
BRANCH   3   4
ATOM      4  S   UNL d   1     -45.907  13.063  22.625  0.00  0.00    -0.072 SA
BRANCH   4   5
ATOM      5  C   UNL d   1     -46.700  13.277  22.632  0.00  0.00     0.137 A 
ATOM      6  N   UNL d   1     -47.338  12.824  22.359  0.00  0.00    -0.232 NA
ATOM      7  C   UNL d   1     -48.023  13.253  22.474  0.00  0.00     0.089 A 
ATOM      8  C   UNL d   1     -47.821  13.970  22.816  0.00  0.00     0.057 A 
ATOM      9  S   UNL d   1     -47.008  13.989  22.915  0.00  0.00    -0.060 SA
BRANCH   7  10
ATOM     10  C   UNL d   1     -48.787  13.009  22.281  0.00  0.00     0.018 A 
ATOM     11  C   UNL d   1     -49.133  13.297  21.593  0.00  0.00     0.002 A 
ATOM     12  C   UNL d   1     -49.897  13.053  21.398  0.00  0.00     0.000 A 
ATOM     13  C   UNL d   1     -50.308  12.528  21.887  0.00  0.00     0.000 A 
ATOM     14  C   UNL d   1     -49.943  12.247  22.578  0.00  0.00     0.000 A 
ATOM     15  C   UNL d   1     -49.179  12.493  22.769  0.00  0.00     0.002 A 
ENDBRANCH   7  10
ENDBRANCH   4   5
ENDBRANCH   3   4
TORSDOF 3
ENDMDL
MODEL 2
REMARK VINA RESULT:      -6.1      2.138      3.884
REMARK  3 active torsions:
REMARK  status: ('A' for Active; 'I' for Inactive)
REMARK    1  A    between atoms: S_9  and  C_2 
REMARK    2  A    between atoms: C_8  and  C_3 
REMARK    3  A    between atoms: C_10  and  S_9 
ROOT
ATOM      1  N   UNL d   1     -51.058  15.885  23.305  0.00  0.00    -0.195 NA
ATOM      2  C   UNL d   1     -50.574  15.238  23.146  0.00  0.00     0.086 C 
ATOM      3  C   UNL d   1     -50.097  14.587  22.986  0.00  0.00     0.169 C 
ENDROOT
BRANCH   3   4
ATOM      4  S   UNL d   1     -49.286  14.661  23.043  0.00  0.00    -0.072 SA
BRANCH   4   5
ATOM      5  C   UNL d   1     -48.792  14.043  22.822  0.00  0.00     0.137 A 
ATOM      6  N   UNL d   1     -48.322  13.580  23.323  0.00  0.00    -0.232 NA
ATOM      7  C   UNL d   1     -47.924  13.033  22.865  0.00  0.00     0.089 A 
ATOM      8  C   UNL d   1     -48.140  13.148  22.084  0.00  0.00     0.057 A 
ATOM      9  S   UNL d   1     -48.674  13.769  22.052  0.00  0.00    -0.060 SA
BRANCH   7  10
ATOM     10  C   UNL d   1     -47.396  12.462  23.141  0.00  0.00     0.018 A 
ATOM     11  C   UNL d   1     -47.692  11.738  23.395  0.00  0.00     0.002 A 
ATOM     12  C   UNL d   1     -47.164  11.166  23.671  0.00  0.00     0.000 A 
ATOM     13  C   UNL d   1     -46.351  11.319  23.692  0.00  0.00     0.000 A 
ATOM     14  C   UNL d   1     -46.070  12.057  23.432  0.00  0.00     0.000 A 
ATOM     15  C   UNL d   1     -46.601  12.625  23.157  0.00  0.00     0.002 A 
ENDBRANCH   7  10
ENDBRANCH   4   5
ENDBRANCH   3   4
TORSDOF 3
ENDMDL
MODEL 3
REMARK VINA RESULT:      -6.1      1.648      1.869
REMARK  3 active torsions:
REMARK  status: ('A' for Active; 'I' for Inactive)
REMARK    1  A    between atoms: S_9  and  C_2 
REMARK    2  A    between atoms: C_8  and  C_3 
REMARK    3  A    between atoms: C_10  and  S_9 
ROOT
ATOM      1  N   UNL d   1     -44.693  13.254  22.105  0.00  0.00    -0.195 NA
ATOM      2  C   UNL d   1     -45.514  13.254  22.163  0.00  0.00     0.086 C 
ATOM      3  C   UNL d   1     -46.336  13.252  22.216  0.00  0.00     0.169 C 
ENDROOT
BRANCH   3   4
ATOM      4  S   UNL d   1     -46.696  13.561  22.879  0.00  0.00    -0.072 SA
BRANCH   4   5
ATOM      5  C   UNL d   1     -47.514  13.577  22.942  0.00  0.00     0.137 A 
ATOM      6  N   UNL d   1     -48.003  14.244  22.886  0.00  0.00    -0.232 NA
ATOM      7  C   UNL d   1     -48.777  14.002  22.982  0.00  0.00     0.089 A 
ATOM      8  C   UNL d   1     -48.779  13.191  23.098  0.00  0.00     0.057 A 
ATOM      9  S   UNL d   1     -48.004  12.925  23.075  0.00  0.00    -0.060 SA
BRANCH   7  10
ATOM     10  C   UNL d   1     -49.444  14.489  22.966  0.00  0.00     0.018 A 
ATOM     11  C   UNL d   1     -50.047  14.317  22.435  0.00  0.00     0.002 A 
ATOM     12  C   UNL d   1     -50.714  14.803  22.417  0.00  0.00     0.000 A 
ATOM     13  C   UNL d   1     -50.774  15.453  22.926  0.00  0.00     0.000 A 
ATOM     14  C   UNL d   1     -50.154  15.612  23.456  0.00  0.00     0.000 A 
ATOM     15  C   UNL d   1     -49.490  15.123  23.470  0.00  0.00     0.002 A 
ENDBRANCH   7  10
ENDBRANCH   4   5
ENDBRANCH   3   4
TORSDOF 3
ENDMDL
MODEL 4
REMARK VINA RESULT:      -5.2      1.511      3.832
REMARK  3 active torsions:
REMARK  status: ('A' for Active; 'I' for Inactive)
REMARK    1  A    between atoms: S_9  and  C_2 
REMARK    2  A    between atoms: C_8  and  C_3 
REMARK    3  A    between atoms: C_10  and  S_9 
ROOT
ATOM      1  N   UNL d   1     -51.064  13.390  21.159  0.00  0.00    -0.195 NA
ATOM      2  C   UNL d   1     -50.274  13.397  21.391  0.00  0.00     0.086 C 
ATOM      3  C   UNL d   1     -49.483  13.397  21.618  0.00  0.00     0.169 C 
ENDROOT
BRANCH   3   4
ATOM      4  S   UNL d   1     -49.207  13.990  22.107  0.00  0.00    -0.072 SA
BRANCH   4   5
ATOM      5  C   UNL d   1     -48.429  13.989  22.369  0.00  0.00     0.137 A 
ATOM      6  N   UNL d   1     -47.873  13.382  22.270  0.00  0.00    -0.232 NA
ATOM      7  C   UNL d   1     -47.173  13.618  22.618  0.00  0.00     0.089 A 
ATOM      8  C   UNL d   1     -47.284  14.366  22.932  0.00  0.00     0.057 A 
ATOM      9  S   UNL d   1     -48.055  14.598  22.782  0.00  0.00    -0.060 SA
BRANCH   7  10
ATOM     10  C   UNL d   1     -46.474  13.181  22.647  0.00  0.00     0.018 A 
ATOM     11  C   UNL d   1     -46.434  12.531  23.149  0.00  0.00     0.002 A 
ATOM     12  C   UNL d   1     -45.736  12.093  23.179  0.00  0.00     0.000 A 
ATOM     13  C   UNL d   1     -45.086  12.303  22.712  0.00  0.00     0.000 A 
ATOM     14  C   UNL d   1     -45.144  12.963  22.210  0.00  0.00     0.000 A 
ATOM     15  C   UNL d   1     -45.845  13.398  22.184  0.00  0.00     0.002 A 
ENDBRANCH   7  10
ENDBRANCH   4   5
ENDBRANCH   3   4
TORSDOF 3
ENDMDL
MODEL 5
REMARK VINA RESULT:      -5.1      7.888      8.892
REMARK  3 active torsions:
REMARK  status: ('A' for Active; 'I' for Inactive)
REMARK    1  A    between atoms: S_9  and  C_2 
REMARK    2  A    between atoms: C_8  and  C_3 
REMARK    3  A    between atoms: C_10  and  S_9 
ROOT
ATOM      1  N   UNL d   1     -42.459  15.922  15.795  0.00  0.00    -0.195 NA
ATOM      2  C   UNL d   1     -41.862  15.918  16.362  0.00  0.00     0.086 C 
ATOM      3  C   UNL d   1     -41.266  15.921  16.930  0.00  0.00     0.169 C 
ENDROOT
BRANCH   3   4
ATOM      4  S   UNL d   1     -40.887  15.223  17.116  0.00  0.00    -0.072 SA
BRANCH   4   5
ATOM      5  C   UNL d   1     -40.411  15.170  17.783  0.00  0.00     0.137 A 
ATOM      6  N   UNL d   1     -40.617  14.843  18.516  0.00  0.00    -0.232 NA
ATOM      7  C   UNL d   1     -39.973  14.910  19.015  0.00  0.00     0.089 A 
ATOM      8  C   UNL d   1     -39.367  15.273  18.602  0.00  0.00     0.057 A 
ATOM      9  S   UNL d   1     -39.631  15.436  17.844  0.00  0.00    -0.060 SA
BRANCH   7  10
ATOM     10  C   UNL d   1     -39.939  14.654  19.799  0.00  0.00     0.018 A 
ATOM     11  C   UNL d   1     -40.621  14.690  20.257  0.00  0.00     0.002 A 
ATOM     12  C   UNL d   1     -40.587  14.434  21.041  0.00  0.00     0.000 A 
ATOM     13  C   UNL d   1     -39.880  14.148  21.361  0.00  0.00     0.000 A 
ATOM     14  C   UNL d   1     -39.201  14.119  20.883  0.00  0.00     0.000 A 
ATOM     15  C   UNL d   1     -39.239  14.375  20.099  0.00  0.00     0.002 A 
ENDBRANCH   7  10
ENDBRANCH   4   5
ENDBRANCH   3   4
TORSDOF 3
ENDMDL
MODEL 6
REMARK VINA RESULT:      -5.0      8.894     10.056
REMARK  3 active torsions:
REMARK  status: ('A' for Active; 'I' for Inactive)
REMARK    1  A    between atoms: S_9  and  C_2 
REMARK    2  A    between atoms: C_8  and  C_3 
REMARK    3  A    between atoms: C_10  and  S_9 
ROOT
ATOM      1  N   UNL d   1     -42.807  15.922  15.728  0.00  0.00    -0.195 NA
ATOM      2  C   UNL d   1     -42.067  15.919  16.090  0.00  0.00     0.086 C 
ATOM      3  C   UNL d   1     -41.326  15.922  16.447  0.00  0.00     0.169 C 
ENDROOT
BRANCH   3   4
ATOM      4  S   UNL d   1     -41.193  15.447  17.098  0.00  0.00    -0.072 SA
BRANCH   4   5
ATOM      5  C   UNL d   1     -40.434  15.198  17.287  0.00  0.00     0.137 A 
ATOM      6  N   UNL d   1     -40.172  14.415  17.359  0.00  0.00    -0.232 NA
ATOM      7  C   UNL d   1     -39.379  14.429  17.553  0.00  0.00     0.089 A 
ATOM      8  C   UNL d   1     -39.141  15.211  17.603  0.00  0.00     0.057 A 
ATOM      9  S   UNL d   1     -39.787  15.688  17.440  0.00  0.00    -0.060 SA
BRANCH   7  10
ATOM     10  C   UNL d   1     -38.899  13.769  17.677  0.00  0.00     0.018 A 
ATOM     11  C   UNL d   1     -38.700  13.563  18.448  0.00  0.00     0.002 A 
ATOM     12  C   UNL d   1     -38.220  12.903  18.573  0.00  0.00     0.000 A 
ATOM     13  C   UNL d   1     -37.943  12.457  17.934  0.00  0.00     0.000 A 
ATOM     14  C   UNL d   1     -38.153  12.680  17.162  0.00  0.00     0.000 A 
ATOM     15  C   UNL d   1     -38.634  13.340  17.042  0.00  0.00     0.002 A 
ENDBRANCH   7  10
ENDBRANCH   4   5
ENDBRANCH   3   4
TORSDOF 3
ENDMDL
MODEL 7
REMARK VINA RESULT:      -4.8      7.889      8.972
REMARK  3 active torsions:
REMARK  status: ('A' for Active; 'I' for Inactive)
REMARK    1  A    between atoms: S_9  and  C_2 
REMARK    2  A    between atoms: C_8  and  C_3 
REMARK    3  A    between atoms: C_10  and  S_9 
ROOT
ATOM      1  N   UNL d   1     -37.976  13.837  15.373  0.00  0.00    -0.195 NA
ATOM      2  C   UNL d   1     -38.376  14.196  15.997  0.00  0.00     0.086 C 
ATOM      3  C   UNL d   1     -38.770  14.561  16.620  0.00  0.00     0.169 C 
ENDROOT
BRANCH   3   4
ATOM      4  S   UNL d   1     -39.437  14.209  16.933  0.00  0.00    -0.072 SA
BRANCH   4   5
ATOM      5  C   UNL d   1     -39.895  14.601  17.490  0.00  0.00     0.137 A 
ATOM      6  N   UNL d   1     -39.865  14.505  18.313  0.00  0.00    -0.232 NA
ATOM      7  C   UNL d   1     -40.417  15.005  18.648  0.00  0.00     0.089 A 
ATOM      8  C   UNL d   1     -40.792  15.413  18.045  0.00  0.00     0.057 A 
ATOM      9  S   UNL d   1     -40.474  15.168  17.331  0.00  0.00    -0.060 SA
BRANCH   7  10
ATOM     10  C   UNL d   1     -40.572  15.086  19.455  0.00  0.00     0.018 A 
ATOM     11  C   UNL d   1     -40.675  15.840  19.765  0.00  0.00     0.002 A 
ATOM     12  C   UNL d   1     -40.830  15.922  20.571  0.00  0.00     0.000 A 
ATOM     13  C   UNL d   1     -40.879  15.256  21.060  0.00  0.00     0.000 A 
ATOM     14  C   UNL d   1     -40.772  14.502  20.730  0.00  0.00     0.000 A 
ATOM     15  C   UNL d   1     -40.618  14.425  19.923  0.00  0.00     0.002 A 
ENDBRANCH   7  10
ENDBRANCH   4   5
ENDBRANCH   3   4
TORSDOF 3
ENDMDL
