MODEL 1
REMARK VINA RESULT:      -7.1      0.000      0.000
REMARK  5 active torsions:
REMARK  status: ('A' for Active; 'I' for Inactive)
REMARK    1  A    between atoms: C_6  and  N_2 
REMARK    2  A    between atoms: C_8  and  C_6 
REMARK    3  A    between atoms: C_13  and  C_8 
REMARK    4  A    between atoms: C_9  and  O_12 
REMARK    5  A    between atoms: O_12  and  C_13 
ROOT
ATOM      1  N   UNL d   1     -45.634  12.560  22.616  0.00  0.00    -0.227 NA
ATOM      2  N   UNL d   1     -46.671  13.345  22.929  0.00  0.00    -0.289 N 
ATOM      3  C   UNL d   1     -45.909  13.350  22.581  0.00  0.00     0.148 A 
ATOM      4  C   UNL d   1     -46.853  12.584  23.168  0.00  0.00     0.083 A 
ATOM      5  C   UNL d   1     -46.182  12.076  22.965  0.00  0.00     0.099 A 
ATOM      6  C   UNL d   1     -45.508  14.007  22.264  0.00  0.00     0.041 C 
ATOM      7  C   UNL d   1     -47.514  12.279  23.531  0.00  0.00     0.019 A 
ATOM      8  C   UNL d   1     -46.265  11.271  23.167  0.00  0.00     0.021 A 
ATOM      9  C   UNL d   1     -47.524  11.487  23.697  0.00  0.00     0.002 A 
ATOM     10  C   UNL d   1     -46.898  11.013  23.508  0.00  0.00     0.002 A 
ENDROOT
BRANCH   2  11
ATOM     11  C   UNL d   1     -47.025  14.062  22.944  0.00  0.00     0.084 C 
BRANCH  11  12
ATOM     12  C   UNL d   1     -47.772  14.197  22.624  0.00  0.00     0.046 C 
BRANCH  12  13
ATOM     13  C   UNL d   1     -48.183  14.898  22.717  0.00  0.00     0.124 C 
BRANCH  13  14
ATOM     14  O   UNL d   1     -48.896  15.051  22.348  0.00  0.00    -0.305 OA
BRANCH  14  15
ATOM     15  C   UNL d   1     -49.606  15.146  22.756  0.00  0.00     0.100 A 
ATOM     16  C   UNL d   1     -49.682  15.804  23.270  0.00  0.00     0.025 A 
ATOM     17  C   UNL d   1     -50.396  15.922  23.695  0.00  0.00     0.002 A 
ATOM     18  C   UNL d   1     -51.031  15.385  23.606  0.00  0.00     0.000 A 
ATOM     19  C   UNL d   1     -50.955  14.727  23.092  0.00  0.00     0.002 A 
ATOM     20  C   UNL d   1     -50.246  14.631  22.686  0.00  0.00     0.025 A 
ENDBRANCH  14  15
ENDBRANCH  13  14
ENDBRANCH  12  13
ENDBRANCH  11  12
ENDBRANCH   2  11
TORSDOF 5
ENDMDL
MODEL 2
REMARK VINA RESULT:      -7.0      1.788      4.251
REMARK  5 active torsions:
REMARK  status: ('A' for Active; 'I' for Inactive)
REMARK    1  A    between atoms: C_6  and  N_2 
REMARK    2  A    between atoms: C_8  and  C_6 
REMARK    3  A    between atoms: C_13  and  C_8 
REMARK    4  A    between atoms: C_9  and  O_12 
REMARK    5  A    between atoms: O_12  and  C_13 
ROOT
ATOM      1  N   UNL d   1     -50.640  14.341  23.425  0.00  0.00    -0.227 NA
ATOM      2  N   UNL d   1     -49.456  14.026  22.888  0.00  0.00    -0.289 N 
ATOM      3  C   UNL d   1     -49.949  14.672  23.087  0.00  0.00     0.148 A 
ATOM      4  C   UNL d   1     -49.830  13.328  23.095  0.00  0.00     0.083 A 
ATOM      5  C   UNL d   1     -50.596  13.532  23.442  0.00  0.00     0.099 A 
ATOM      6  C   UNL d   1     -49.785  15.481  22.974  0.00  0.00     0.041 C 
ATOM      7  C   UNL d   1     -49.596  12.552  23.022  0.00  0.00     0.019 A 
ATOM      8  C   UNL d   1     -51.064  12.887  23.690  0.00  0.00     0.021 A 
ATOM      9  C   UNL d   1     -50.103  11.977  23.285  0.00  0.00     0.002 A 
ATOM     10  C   UNL d   1     -50.818  12.168  23.609  0.00  0.00     0.002 A 
ENDROOT
BRANCH   2  11
ATOM     11  C   UNL d   1     -48.761  14.239  22.555  0.00  0.00     0.084 C 
BRANCH  11  12
ATOM     12  C   UNL d   1     -48.047  14.227  22.967  0.00  0.00     0.046 C 
BRANCH  12  13
ATOM     13  C   UNL d   1     -47.319  14.138  22.605  0.00  0.00     0.124 C 
BRANCH  13  14
ATOM     14  O   UNL d   1     -46.625  14.020  23.020  0.00  0.00    -0.305 OA
BRANCH  14  15
ATOM     15  C   UNL d   1     -46.036  13.496  22.779  0.00  0.00     0.100 A 
ATOM     16  C   UNL d   1     -45.517  13.739  22.167  0.00  0.00     0.025 A 
ATOM     17  C   UNL d   1     -44.910  13.224  21.905  0.00  0.00     0.002 A 
ATOM     18  C   UNL d   1     -44.820  12.468  22.253  0.00  0.00     0.000 A 
ATOM     19  C   UNL d   1     -45.339  12.225  22.864  0.00  0.00     0.002 A 
ATOM     20  C   UNL d   1     -45.927  12.747  23.106  0.00  0.00     0.025 A 
ENDBRANCH  14  15
ENDBRANCH  13  14
ENDBRANCH  12  13
ENDBRANCH  11  12
ENDBRANCH   2  11
TORSDOF 5
ENDMDL
MODEL 3
REMARK VINA RESULT:      -7.0      1.844      5.034
REMARK  5 active torsions:
REMARK  status: ('A' for Active; 'I' for Inactive)
REMARK    1  A    between atoms: C_6  and  N_2 
REMARK    2  A    between atoms: C_8  and  C_6 
REMARK    3  A    between atoms: C_13  and  C_8 
REMARK    4  A    between atoms: C_9  and  O_12 
REMARK    5  A    between atoms: O_12  and  C_13 
ROOT
ATOM      1  N   UNL d   1     -49.353  13.034  22.457  0.00  0.00    -0.227 NA
ATOM      2  N   UNL d   1     -48.157  12.946  23.050  0.00  0.00    -0.289 N 
ATOM      3  C   UNL d   1     -48.831  12.498  22.833  0.00  0.00     0.148 A 
ATOM      4  C   UNL d   1     -48.264  13.722  22.816  0.00  0.00     0.083 A 
ATOM      5  C   UNL d   1     -49.037  13.779  22.433  0.00  0.00     0.099 A 
ATOM      6  C   UNL d   1     -48.956  11.685  22.964  0.00  0.00     0.041 C 
ATOM      7  C   UNL d   1     -47.784  14.376  22.891  0.00  0.00     0.019 A 
ATOM      8  C   UNL d   1     -49.248  14.537  22.154  0.00  0.00     0.021 A 
ATOM      9  C   UNL d   1     -48.055  15.080  22.596  0.00  0.00     0.002 A 
ATOM     10  C   UNL d   1     -48.778  15.133  22.239  0.00  0.00     0.002 A 
ENDROOT
BRANCH   2  11
ATOM     11  C   UNL d   1     -47.591  12.520  23.420  0.00  0.00     0.084 C 
BRANCH  11  12
ATOM     12  C   UNL d   1     -46.841  12.400  23.098  0.00  0.00     0.046 C 
BRANCH  12  13
ATOM     13  C   UNL d   1     -46.277  11.914  23.437  0.00  0.00     0.124 C 
BRANCH  13  14
ATOM     14  O   UNL d   1     -45.484  11.948  23.244  0.00  0.00    -0.305 OA
BRANCH  14  15
ATOM     15  C   UNL d   1     -44.973  11.304  23.311  0.00  0.00     0.100 A 
ATOM     16  C   UNL d   1     -44.186  11.394  23.038  0.00  0.00     0.025 A 
ATOM     17  C   UNL d   1     -43.648  10.754  23.096  0.00  0.00     0.002 A 
ATOM     18  C   UNL d   1     -43.895  10.025  23.425  0.00  0.00     0.000 A 
ATOM     19  C   UNL d   1     -44.682   9.935  23.698  0.00  0.00     0.002 A 
ATOM     20  C   UNL d   1     -45.193  10.577  23.631  0.00  0.00     0.025 A 
ENDBRANCH  14  15
ENDBRANCH  13  14
ENDBRANCH  12  13
ENDBRANCH  11  12
ENDBRANCH   2  11
TORSDOF 5
ENDMDL
MODEL 4
REMARK VINA RESULT:      -6.9      1.778      4.701
REMARK  5 active torsions:
REMARK  status: ('A' for Active; 'I' for Inactive)
REMARK    1  A    between atoms: C_6  and  N_2 
REMARK    2  A    between atoms: C_8  and  C_6 
REMARK    3  A    between atoms: C_13  and  C_8 
REMARK    4  A    between atoms: C_9  and  O_12 
REMARK    5  A    between atoms: O_12  and  C_13 
ROOT
ATOM      1  N   UNL d   1     -50.968  13.268  23.698  0.00  0.00    -0.227 NA
ATOM      2  N   UNL d   1     -49.762  13.200  23.123  0.00  0.00    -0.289 N 
ATOM      3  C   UNL d   1     -50.384  12.730  23.430  0.00  0.00     0.148 A 
ATOM      4  C   UNL d   1     -49.958  13.990  23.200  0.00  0.00     0.083 A 
ATOM      5  C   UNL d   1     -50.737  14.034  23.572  0.00  0.00     0.099 A 
ATOM      6  C   UNL d   1     -50.415  11.899  23.463  0.00  0.00     0.041 C 
ATOM      7  C   UNL d   1     -49.554  14.666  22.993  0.00  0.00     0.019 A 
ATOM      8  C   UNL d   1     -51.035  14.804  23.698  0.00  0.00     0.021 A 
ATOM      9  C   UNL d   1     -49.905  15.379  23.146  0.00  0.00     0.002 A 
ATOM     10  C   UNL d   1     -50.633  15.420  23.493  0.00  0.00     0.002 A 
ENDROOT
BRANCH   2  11
ATOM     11  C   UNL d   1     -49.147  12.776  22.838  0.00  0.00     0.084 C 
BRANCH  11  12
ATOM     12  C   UNL d   1     -48.458  12.645  23.271  0.00  0.00     0.046 C 
BRANCH  12  13
ATOM     13  C   UNL d   1     -47.739  12.453  22.928  0.00  0.00     0.124 C 
BRANCH  13  14
ATOM     14  O   UNL d   1     -47.026  12.518  23.320  0.00  0.00    -0.305 OA
BRANCH  14  15
ATOM     15  C   UNL d   1     -46.312  12.680  22.940  0.00  0.00     0.100 A 
ATOM     16  C   UNL d   1     -45.716  12.091  22.952  0.00  0.00     0.025 A 
ATOM     17  C   UNL d   1     -44.982  12.233  22.572  0.00  0.00     0.002 A 
ATOM     18  C   UNL d   1     -44.844  12.961  22.182  0.00  0.00     0.000 A 
ATOM     19  C   UNL d   1     -45.440  13.549  22.171  0.00  0.00     0.002 A 
ATOM     20  C   UNL d   1     -46.153  13.388  22.550  0.00  0.00     0.025 A 
ENDBRANCH  14  15
ENDBRANCH  13  14
ENDBRANCH  12  13
ENDBRANCH  11  12
ENDBRANCH   2  11
TORSDOF 5
ENDMDL
MODEL 5
REMARK VINA RESULT:      -6.4      1.749      4.821
REMARK  5 active torsions:
REMARK  status: ('A' for Active; 'I' for Inactive)
REMARK    1  A    between atoms: C_6  and  N_2 
REMARK    2  A    between atoms: C_8  and  C_6 
REMARK    3  A    between atoms: C_13  and  C_8 
REMARK    4  A    between atoms: C_9  and  O_12 
REMARK    5  A    between atoms: O_12  and  C_13 
ROOT
ATOM      1  N   UNL d   1     -49.624  13.291  23.476  0.00  0.00    -0.227 NA
ATOM      2  N   UNL d   1     -48.464  13.396  22.818  0.00  0.00    -0.289 N 
ATOM      3  C   UNL d   1     -48.968  12.848  23.201  0.00  0.00     0.148 A 
ATOM      4  C   UNL d   1     -48.797  14.142  22.857  0.00  0.00     0.083 A 
ATOM      5  C   UNL d   1     -49.547  14.074  23.283  0.00  0.00     0.099 A 
ATOM      6  C   UNL d   1     -48.843  12.029  23.290  0.00  0.00     0.041 C 
ATOM      7  C   UNL d   1     -48.538  14.861  22.576  0.00  0.00     0.019 A 
ATOM      8  C   UNL d   1     -49.974  14.784  23.381  0.00  0.00     0.021 A 
ATOM      9  C   UNL d   1     -49.005  15.509  22.708  0.00  0.00     0.002 A 
ATOM     10  C   UNL d   1     -49.706  15.445  23.106  0.00  0.00     0.002 A 
ENDROOT
BRANCH   2  11
ATOM     11  C   UNL d   1     -47.800  13.068  22.516  0.00  0.00     0.084 C 
BRANCH  11  12
ATOM     12  C   UNL d   1     -47.050  13.216  22.825  0.00  0.00     0.046 C 
BRANCH  12  13
ATOM     13  C   UNL d   1     -46.356  13.044  22.426  0.00  0.00     0.124 C 
BRANCH  13  14
ATOM     14  O   UNL d   1     -45.659  12.850  22.806  0.00  0.00    -0.305 OA
BRANCH  14  15
ATOM     15  C   UNL d   1     -44.946  12.731  22.410  0.00  0.00     0.100 A 
ATOM     16  C   UNL d   1     -44.470  12.081  22.642  0.00  0.00     0.025 A 
ATOM     17  C   UNL d   1     -43.740  11.939  22.255  0.00  0.00     0.002 A 
ATOM     18  C   UNL d   1     -43.486  12.444  21.638  0.00  0.00     0.000 A 
ATOM     19  C   UNL d   1     -43.962  13.094  21.406  0.00  0.00     0.002 A 
ATOM     20  C   UNL d   1     -44.674  13.214  21.800  0.00  0.00     0.025 A 
ENDBRANCH  14  15
ENDBRANCH  13  14
ENDBRANCH  12  13
ENDBRANCH  11  12
ENDBRANCH   2  11
TORSDOF 5
ENDMDL
MODEL 6
REMARK VINA RESULT:      -6.0      9.019      9.880
REMARK  5 active torsions:
REMARK  status: ('A' for Active; 'I' for Inactive)
REMARK    1  A    between atoms: C_6  and  N_2 
REMARK    2  A    between atoms: C_8  and  C_6 
REMARK    3  A    between atoms: C_13  and  C_8 
REMARK    4  A    between atoms: C_9  and  O_12 
REMARK    5  A    between atoms: O_12  and  C_13 
ROOT
ATOM      1  N   UNL d   1     -39.698  13.997  17.245  0.00  0.00    -0.227 NA
ATOM      2  N   UNL d   1     -39.441  14.406  18.493  0.00  0.00    -0.289 N 
ATOM      3  C   UNL d   1     -39.231  13.832  17.921  0.00  0.00     0.148 A 
ATOM      4  C   UNL d   1     -40.012  14.901  18.180  0.00  0.00     0.083 A 
ATOM      5  C   UNL d   1     -40.178  14.637  17.374  0.00  0.00     0.099 A 
ATOM      6  C   UNL d   1     -38.672  13.220  18.006  0.00  0.00     0.041 C 
ATOM      7  C   UNL d   1     -40.400  15.541  18.500  0.00  0.00     0.019 A 
ATOM      8  C   UNL d   1     -40.753  15.078  16.959  0.00  0.00     0.021 A 
ATOM      9  C   UNL d   1     -40.946  15.922  18.038  0.00  0.00     0.002 A 
ATOM     10  C   UNL d   1     -41.101  15.675  17.285  0.00  0.00     0.002 A 
ENDROOT
BRANCH   2  11
ATOM     11  C   UNL d   1     -39.046  14.334  19.184  0.00  0.00     0.084 C 
BRANCH  11  12
ATOM     12  C   UNL d   1     -39.417  14.129  19.891  0.00  0.00     0.046 C 
BRANCH  12  13
ATOM     13  C   UNL d   1     -39.050  14.166  20.621  0.00  0.00     0.124 C 
BRANCH  13  14
ATOM     14  O   UNL d   1     -39.412  13.935  21.316  0.00  0.00    -0.305 OA
BRANCH  14  15
ATOM     15  C   UNL d   1     -39.049  13.983  22.055  0.00  0.00     0.100 A 
ATOM     16  C   UNL d   1     -38.709  13.287  22.374  0.00  0.00     0.025 A 
ATOM     17  C   UNL d   1     -38.334  13.311  23.124  0.00  0.00     0.002 A 
ATOM     18  C   UNL d   1     -38.300  14.028  23.554  0.00  0.00     0.000 A 
ATOM     19  C   UNL d   1     -38.641  14.724  23.234  0.00  0.00     0.002 A 
ATOM     20  C   UNL d   1     -39.003  14.677  22.497  0.00  0.00     0.025 A 
ENDBRANCH  14  15
ENDBRANCH  13  14
ENDBRANCH  12  13
ENDBRANCH  11  12
ENDBRANCH   2  11
TORSDOF 5
ENDMDL
MODEL 7
REMARK VINA RESULT:      -5.4      8.379     10.643
REMARK  5 active torsions:
REMARK  status: ('A' for Active; 'I' for Inactive)
REMARK    1  A    between atoms: C_6  and  N_2 
REMARK    2  A    between atoms: C_8  and  C_6 
REMARK    3  A    between atoms: C_13  and  C_8 
REMARK    4  A    between atoms: C_9  and  O_12 
REMARK    5  A    between atoms: O_12  and  C_13 
ROOT
ATOM      1  N   UNL d   1     -38.042  12.998  16.277  0.00  0.00    -0.227 NA
ATOM      2  N   UNL d   1     -38.277  13.955  17.182  0.00  0.00    -0.289 N 
ATOM      3  C   UNL d   1     -38.185  13.127  17.092  0.00  0.00     0.148 A 
ATOM      4  C   UNL d   1     -38.194  14.316  16.452  0.00  0.00     0.083 A 
ATOM      5  C   UNL d   1     -38.042  13.697  15.867  0.00  0.00     0.099 A 
ATOM      6  C   UNL d   1     -38.227  12.550  17.691  0.00  0.00     0.041 C 
ATOM      7  C   UNL d   1     -38.232  15.099  16.233  0.00  0.00     0.019 A 
ATOM      8  C   UNL d   1     -37.940  13.958  15.081  0.00  0.00     0.021 A 
ATOM      9  C   UNL d   1     -38.124  15.279  15.451  0.00  0.00     0.002 A 
ATOM     10  C   UNL d   1     -37.982  14.701  14.904  0.00  0.00     0.002 A 
ENDROOT
BRANCH   2  11
ATOM     11  C   UNL d   1     -38.419  14.185  17.933  0.00  0.00     0.084 C 
BRANCH  11  12
ATOM     12  C   UNL d   1     -39.135  14.518  18.170  0.00  0.00     0.046 C 
BRANCH  12  13
ATOM     13  C   UNL d   1     -39.247  14.882  18.894  0.00  0.00     0.124 C 
BRANCH  13  14
ATOM     14  O   UNL d   1     -39.984  15.048  19.202  0.00  0.00    -0.305 OA
BRANCH  14  15
ATOM     15  C   UNL d   1     -40.105  15.318  19.972  0.00  0.00     0.100 A 
ATOM     16  C   UNL d   1     -40.854  15.639  20.165  0.00  0.00     0.025 A 
ATOM     17  C   UNL d   1     -41.001  15.920  20.942  0.00  0.00     0.002 A 
ATOM     18  C   UNL d   1     -40.400  15.880  21.523  0.00  0.00     0.000 A 
ATOM     19  C   UNL d   1     -39.651  15.559  21.330  0.00  0.00     0.002 A 
ATOM     20  C   UNL d   1     -39.530  15.289  20.562  0.00  0.00     0.025 A 
ENDBRANCH  14  15
ENDBRANCH  13  14
ENDBRANCH  12  13
ENDBRANCH  11  12
ENDBRANCH   2  11
TORSDOF 5
ENDMDL
MODEL 8
REMARK VINA RESULT:      -4.6      7.884     10.519
REMARK  5 active torsions:
REMARK  status: ('A' for Active; 'I' for Inactive)
REMARK    1  A    between atoms: C_6  and  N_2 
REMARK    2  A    between atoms: C_8  and  C_6 
REMARK    3  A    between atoms: C_13  and  C_8 
REMARK    4  A    between atoms: C_9  and  O_12 
REMARK    5  A    between atoms: O_12  and  C_13 
ROOT
ATOM      1  N   UNL d   1     -39.656  14.262  21.030  0.00  0.00    -0.227 NA
ATOM      2  N   UNL d   1     -39.318  14.883  19.894  0.00  0.00    -0.289 N 
ATOM      3  C   UNL d   1     -39.061  14.305  20.442  0.00  0.00     0.148 A 
ATOM      4  C   UNL d   1     -40.041  15.181  20.136  0.00  0.00     0.083 A 
ATOM      5  C   UNL d   1     -40.259  14.780  20.870  0.00  0.00     0.099 A 
ATOM      6  C   UNL d   1     -38.356  13.862  20.410  0.00  0.00     0.041 C 
ATOM      7  C   UNL d   1     -40.525  15.746  19.807  0.00  0.00     0.019 A 
ATOM      8  C   UNL d   1     -40.987  15.011  21.207  0.00  0.00     0.021 A 
ATOM      9  C   UNL d   1     -41.218  15.920  20.189  0.00  0.00     0.002 A 
ATOM     10  C   UNL d   1     -41.422  15.545  20.875  0.00  0.00     0.002 A 
ENDROOT
BRANCH   2  11
ATOM     11  C   UNL d   1     -38.813  15.000  19.286  0.00  0.00     0.084 C 
BRANCH  11  12
ATOM     12  C   UNL d   1     -38.823  14.539  18.602  0.00  0.00     0.046 C 
BRANCH  12  13
ATOM     13  C   UNL d   1     -38.498  14.779  17.891  0.00  0.00     0.124 C 
BRANCH  13  14
ATOM     14  O   UNL d   1     -38.901  14.747  17.182  0.00  0.00    -0.305 OA
BRANCH  14  15
ATOM     15  C   UNL d   1     -38.584  14.423  16.493  0.00  0.00     0.100 A 
ATOM     16  C   UNL d   1     -38.489  14.923  15.828  0.00  0.00     0.025 A 
ATOM     17  C   UNL d   1     -38.169  14.616  15.116  0.00  0.00     0.002 A 
ATOM     18  C   UNL d   1     -37.944  13.811  15.070  0.00  0.00     0.000 A 
ATOM     19  C   UNL d   1     -38.040  13.310  15.735  0.00  0.00     0.002 A 
ATOM     20  C   UNL d   1     -38.356  13.633  16.423  0.00  0.00     0.025 A 
ENDBRANCH  14  15
ENDBRANCH  13  14
ENDBRANCH  12  13
ENDBRANCH  11  12
ENDBRANCH   2  11
TORSDOF 5
ENDMDL
