MODEL 1
REMARK VINA RESULT:       6.9      0.000      0.000
REMARK  4 active torsions:
REMARK  status: ('A' for Active; 'I' for Inactive)
REMARK    1  A    between atoms: S_6  and  C_1 
REMARK    2  A    between atoms: C_7  and  S_6 
REMARK    3  A    between atoms: C_10  and  C_7 
REMARK    4  A    between atoms: C_11  and  C_10 
ROOT
ATOM      1  C   UNL d   1      46.082 -17.603  43.888  0.00  0.00     0.194 A 
ATOM      2  N   UNL d   1      46.194 -18.276  44.382  0.00  0.00    -0.220 NA
ATOM      3  N   UNL d   1      46.176 -17.851  43.105  0.00  0.00    -0.220 NA
ATOM      4  C   UNL d   1      46.350 -18.911  43.909  0.00  0.00     0.101 A 
ATOM      5  C   UNL d   1      46.339 -18.643  43.102  0.00  0.00     0.101 A 
ATOM      6  C   UNL d   1      46.510 -19.718  44.036  0.00  0.00     0.021 A 
ATOM      7  C   UNL d   1      46.481 -19.175  42.489  0.00  0.00     0.021 A 
ATOM      8  C   UNL d   1      46.636 -19.968  42.657  0.00  0.00     0.002 A 
ATOM      9  C   UNL d   1      46.647 -20.227  43.436  0.00  0.00     0.002 A 
ENDROOT
BRANCH   1  10
ATOM     10  S   UNL d   1      45.939 -17.069  44.498  0.00  0.00    -0.048 SA
BRANCH  10  11
ATOM     11  C   UNL d   1      45.783 -16.274  44.335  0.00  0.00     0.038 C 
BRANCH  11  12
ATOM     12  C   UNL d   1      45.612 -15.757  44.955  0.00  0.00     0.007 C 
BRANCH  12  13
ATOM     13  C   UNL d   1      45.570 -14.961  44.796  0.00  0.00     0.001 C 
ATOM     14  C   UNL d   1      44.843 -14.580  44.883  0.00  0.00     0.000 C 
ATOM     15  C   UNL d   1      46.077 -14.362  44.551  0.00  0.00     0.000 C 
ENDBRANCH  12  13
ENDBRANCH  11  12
ENDBRANCH  10  11
ENDBRANCH   1  10
TORSDOF 4
ENDMDL
MODEL 2
REMARK VINA RESULT:       9.3      1.576      4.647
REMARK  4 active torsions:
REMARK  status: ('A' for Active; 'I' for Inactive)
REMARK    1  A    between atoms: S_6  and  C_1 
REMARK    2  A    between atoms: C_7  and  S_6 
REMARK    3  A    between atoms: C_10  and  C_7 
REMARK    4  A    between atoms: C_11  and  C_10 
ROOT
ATOM      1  C   UNL d   1      45.747 -15.369  44.740  0.00  0.00     0.194 A 
ATOM      2  N   UNL d   1      45.103 -15.055  44.297  0.00  0.00    -0.220 NA
ATOM      3  N   UNL d   1      46.233 -14.737  44.955  0.00  0.00    -0.220 NA
ATOM      4  C   UNL d   1      45.200 -14.255  44.247  0.00  0.00     0.101 A 
ATOM      5  C   UNL d   1      45.913 -14.054  44.663  0.00  0.00     0.101 A 
ATOM      6  C   UNL d   1      44.776 -13.630  43.899  0.00  0.00     0.021 A 
ATOM      7  C   UNL d   1      46.157 -13.268  44.706  0.00  0.00     0.021 A 
ATOM      8  C   UNL d   1      45.709 -12.676  44.346  0.00  0.00     0.002 A 
ATOM      9  C   UNL d   1      45.019 -12.870  43.945  0.00  0.00     0.002 A 
ENDROOT
BRANCH   1  10
ATOM     10  S   UNL d   1      45.507 -16.155  44.699  0.00  0.00    -0.048 SA
BRANCH  10  11
ATOM     11  C   UNL d   1      46.024 -16.741  44.428  0.00  0.00     0.038 C 
BRANCH  11  12
ATOM     12  C   UNL d   1      45.918 -17.522  44.673  0.00  0.00     0.007 C 
BRANCH  12  13
ATOM     13  C   UNL d   1      46.249 -18.117  44.227  0.00  0.00     0.001 C 
ATOM     14  C   UNL d   1      46.529 -18.789  44.613  0.00  0.00     0.000 C 
ATOM     15  C   UNL d   1      46.404 -18.267  43.434  0.00  0.00     0.000 C 
ENDBRANCH  12  13
ENDBRANCH  11  12
ENDBRANCH  10  11
ENDBRANCH   1  10
TORSDOF 4
ENDMDL
