MODEL 1
REMARK VINA RESULT:      28.8      0.000      0.000
REMARK  3 active torsions:
REMARK  status: ('A' for Active; 'I' for Inactive)
REMARK    1  A    between atoms: S_15  and  C_3 
REMARK    2  A    between atoms: C_5  and  C_14 
REMARK    3  A    between atoms: C_14  and  S_15 
ROOT
ATOM      1  N   UNL d   1      14.703  13.190  -1.213  0.00  0.00    -0.263 N 
ATOM      2  C   UNL d   1      15.110  12.689  -0.681  0.00  0.00     0.202 A 
ATOM      3  C   UNL d   1      14.287  12.694  -1.726  0.00  0.00     0.202 A 
ATOM      4  N   UNL d   1      14.915  11.906  -0.904  0.00  0.00    -0.121 NA
ATOM      5  S   UNL d   1      15.547  13.155  -0.140  0.00  0.00    -0.047 SA
ATOM      6  N   UNL d   1      14.434  11.898  -1.514  0.00  0.00    -0.121 NA
ATOM      7  C   UNL d   1      14.894  13.957  -0.994  0.00  0.00     0.074 A 
ATOM      8  C   UNL d   1      15.408  13.937  -0.341  0.00  0.00     0.049 A 
ATOM      9  C   UNL d   1      14.665  14.686  -1.308  0.00  0.00     0.018 A 
ATOM     10  C   UNL d   1      15.681  14.645  -0.016  0.00  0.00     0.008 A 
ATOM     11  C   UNL d   1      14.938  15.402  -0.983  0.00  0.00     0.002 A 
ATOM     12  C   UNL d   1      15.452  15.381  -0.329  0.00  0.00     0.001 A 
ENDROOT
BRANCH   3  13
ATOM     13  S   UNL d   1      13.766  12.949  -2.395  0.00  0.00    -0.048 SA
BRANCH  13  14
ATOM     14  C   UNL d   1      13.863  12.619  -3.135  0.00  0.00     0.042 C 
BRANCH  14  15
ATOM     15  C   UNL d   1      13.468  12.950  -3.767  0.00  0.00     0.051 A 
ATOM     16  C   UNL d   1      13.043  12.635  -4.400  0.00  0.00     0.127 A 
ATOM     17  O   UNL d   1      12.769  13.238  -4.865  0.00  0.00    -0.211 OA
ATOM     18  C   UNL d   1      12.912  11.781  -4.542  0.00  0.00     0.029 C 
ATOM     19  N   UNL d   1      13.005  13.914  -4.547  0.00  0.00    -0.126 NA
ATOM     20  C   UNL d   1      13.444  13.764  -3.862  0.00  0.00     0.111 A 
ATOM     21  C   UNL d   1      13.795  14.314  -3.359  0.00  0.00     0.023 C 
ENDBRANCH  14  15
ENDBRANCH  13  14
ENDBRANCH   3  13
TORSDOF 3
ENDMDL
MODEL 2
REMARK VINA RESULT:      30.0      1.680      3.902
REMARK  3 active torsions:
REMARK  status: ('A' for Active; 'I' for Inactive)
REMARK    1  A    between atoms: S_15  and  C_3 
REMARK    2  A    between atoms: C_5  and  C_14 
REMARK    3  A    between atoms: C_14  and  S_15 
ROOT
ATOM      1  N   UNL d   1      14.150  12.869  -2.203  0.00  0.00    -0.263 N 
ATOM      2  C   UNL d   1      14.154  12.033  -2.231  0.00  0.00     0.202 A 
ATOM      3  C   UNL d   1      14.521  13.079  -1.495  0.00  0.00     0.202 A 
ATOM      4  N   UNL d   1      14.533  11.779  -1.529  0.00  0.00    -0.121 NA
ATOM      5  S   UNL d   1      13.784  11.779  -2.938  0.00  0.00    -0.047 SA
ATOM      6  N   UNL d   1      14.752  12.382  -1.092  0.00  0.00    -0.121 NA
ATOM      7  C   UNL d   1      13.779  13.120  -2.890  0.00  0.00     0.074 A 
ATOM      8  C   UNL d   1      13.556  12.455  -3.339  0.00  0.00     0.049 A 
ATOM      9  C   UNL d   1      13.611  13.876  -3.175  0.00  0.00     0.018 A 
ATOM     10  C   UNL d   1      13.170  12.564  -4.060  0.00  0.00     0.008 A 
ATOM     11  C   UNL d   1      13.222  13.989  -3.901  0.00  0.00     0.002 A 
ATOM     12  C   UNL d   1      12.999  13.324  -4.350  0.00  0.00     0.001 A 
ENDROOT
BRANCH   3  13
ATOM     13  S   UNL d   1      14.660  13.901  -1.199  0.00  0.00    -0.048 SA
BRANCH  13  14
ATOM     14  C   UNL d   1      15.075  14.020  -0.506  0.00  0.00     0.042 C 
BRANCH  14  15
ATOM     15  C   UNL d   1      15.381  14.760  -0.354  0.00  0.00     0.051 A 
ATOM     16  C   UNL d   1      15.065  15.522  -0.379  0.00  0.00     0.127 A 
ATOM     17  O   UNL d   1      15.636  16.055  -0.169  0.00  0.00    -0.211 OA
ATOM     18  C   UNL d   1      14.241  15.718  -0.599  0.00  0.00     0.029 C 
ATOM     19  N   UNL d   1      16.293  15.658  -0.014  0.00  0.00    -0.126 NA
ATOM     20  C   UNL d   1      16.162  14.848  -0.122  0.00  0.00     0.111 A 
ATOM     21  C   UNL d   1      16.701  14.234  -0.020  0.00  0.00     0.023 C 
ENDBRANCH  14  15
ENDBRANCH  13  14
ENDBRANCH   3  13
TORSDOF 3
ENDMDL
MODEL 3
REMARK VINA RESULT:      30.7      1.654      4.304
REMARK  3 active torsions:
REMARK  status: ('A' for Active; 'I' for Inactive)
REMARK    1  A    between atoms: S_15  and  C_3 
REMARK    2  A    between atoms: C_5  and  C_14 
REMARK    3  A    between atoms: C_14  and  S_15 
ROOT
ATOM      1  N   UNL d   1      13.757  13.591  -3.582  0.00  0.00    -0.263 N 
ATOM      2  C   UNL d   1      13.811  14.310  -4.005  0.00  0.00     0.202 A 
ATOM      3  C   UNL d   1      14.023  13.751  -2.817  0.00  0.00     0.202 A 
ATOM      4  N   UNL d   1      14.111  14.874  -3.464  0.00  0.00    -0.121 NA
ATOM      5  S   UNL d   1      13.549  14.189  -4.791  0.00  0.00    -0.047 SA
ATOM      6  N   UNL d   1      14.239  14.558  -2.767  0.00  0.00    -0.121 NA
ATOM      7  C   UNL d   1      13.463  13.036  -4.111  0.00  0.00     0.074 A 
ATOM      8  C   UNL d   1      13.336  13.401  -4.848  0.00  0.00     0.049 A 
ATOM      9  C   UNL d   1      13.290  12.234  -4.020  0.00  0.00     0.018 A 
ATOM     10  C   UNL d   1      13.039  12.955  -5.476  0.00  0.00     0.008 A 
ATOM     11  C   UNL d   1      12.991  11.782  -4.651  0.00  0.00     0.002 A 
ATOM     12  C   UNL d   1      12.864  12.147  -5.388  0.00  0.00     0.001 A 
ENDROOT
BRANCH   3  13
ATOM     13  S   UNL d   1      14.077  13.173  -2.148  0.00  0.00    -0.048 SA
BRANCH  13  14
ATOM     14  C   UNL d   1      14.235  13.438  -1.392  0.00  0.00     0.042 C 
BRANCH  14  15
ATOM     15  C   UNL d   1      14.685  12.972  -0.899  0.00  0.00     0.051 A 
ATOM     16  C   UNL d   1      15.347  13.116  -0.428  0.00  0.00     0.127 A 
ATOM     17  O   UNL d   1      15.562  12.432  -0.052  0.00  0.00    -0.211 OA
ATOM     18  C   UNL d   1      15.751  13.889  -0.350  0.00  0.00     0.029 C 
ATOM     19  N   UNL d   1      15.062  11.870  -0.269  0.00  0.00    -0.126 NA
ATOM     20  C   UNL d   1      14.505  12.179  -0.797  0.00  0.00     0.111 A 
ATOM     21  C   UNL d   1      13.882  11.781  -1.160  0.00  0.00     0.023 C 
ENDBRANCH  14  15
ENDBRANCH  13  14
ENDBRANCH   3  13
TORSDOF 3
ENDMDL
