MODEL 1
REMARK VINA RESULT:      82.0      0.000      0.000
REMARK  3 active torsions:
REMARK  status: ('A' for Active; 'I' for Inactive)
REMARK    1  A    between atoms: N_9  and  C_3 
REMARK    2  A    between atoms: C_12  and  C_4 
REMARK    3  A    between atoms: C_17  and  N_10 
ROOT
ATOM      1  N   UNL d   1     -50.884  26.434  33.994  0.00  0.00    -0.196 N 
ATOM      2  C   UNL d   1     -51.565  26.042  33.758  0.00  0.00     0.167 A 
ATOM      3  C   UNL d   1     -50.861  27.260  34.005  0.00  0.00     0.152 A 
ATOM      4  C   UNL d   1     -51.423  25.234  33.804  0.00  0.00     0.057 A 
ATOM      5  N   UNL d   1     -50.318  25.871  34.188  0.00  0.00    -0.161 NA
ATOM      6  N   UNL d   1     -52.234  26.469  33.529  0.00  0.00    -0.227 NA
ATOM      7  C   UNL d   1     -51.532  27.690  33.775  0.00  0.00     0.057 A 
ATOM      8  C   UNL d   1     -50.660  25.128  34.068  0.00  0.00     0.124 A 
ATOM      9  C   UNL d   1     -52.212  27.298  33.539  0.00  0.00     0.086 A 
ATOM     10  C   UNL d   1     -52.884  27.738  33.308  0.00  0.00     0.021 C 
ENDROOT
BRANCH   3  11
ATOM     11  N   UNL d   1     -50.180  27.653  34.242  0.00  0.00    -0.286 N 
ATOM     12  C   UNL d   1     -49.765  28.128  33.704  0.00  0.00     0.101 A 
ATOM     13  C   UNL d   1     -49.080  28.523  33.942  0.00  0.00     0.100 A 
ATOM     14  N   UNL d   1     -48.808  28.444  34.718  0.00  0.00    -0.301 N 
ATOM     15  C   UNL d   1     -49.219  27.972  35.254  0.00  0.00     0.100 A 
ATOM     16  C   UNL d   1     -49.903  27.577  35.016  0.00  0.00     0.101 A 
BRANCH  14  17
ATOM     17  C   UNL d   1     -48.116  28.842  34.959  0.00  0.00     0.064 A 
ATOM     18  C   UNL d   1     -48.159  29.419  35.541  0.00  0.00     0.018 A 
ATOM     19  C   UNL d   1     -47.388  29.716  35.662  0.00  0.00     0.002 A 
ATOM     20  C   UNL d   1     -46.885  29.317  35.153  0.00  0.00     0.002 A 
ATOM     21  C   UNL d   1     -47.326  28.779  34.718  0.00  0.00     0.018 A 
ENDBRANCH  14  17
ENDBRANCH   3  11
BRANCH   4  22
ATOM     22  C   UNL d   1     -51.896  24.579  33.639  0.00  0.00     0.004 A 
ATOM     23  C   UNL d   1     -52.723  24.657  33.627  0.00  0.00     0.000 A 
ATOM     24  C   UNL d   1     -53.196  24.001  33.462  0.00  0.00     0.000 A 
ATOM     25  C   UNL d   1     -52.851  23.267  33.307  0.00  0.00     0.000 A 
ATOM     26  C   UNL d   1     -52.027  23.188  33.318  0.00  0.00     0.000 A 
ATOM     27  C   UNL d   1     -51.555  23.843  33.484  0.00  0.00     0.000 A 
ENDBRANCH   4  22
TORSDOF 3
ENDMDL
MODEL 2
REMARK VINA RESULT:      84.4      0.837      5.244
REMARK  3 active torsions:
REMARK  status: ('A' for Active; 'I' for Inactive)
REMARK    1  A    between atoms: N_9  and  C_3 
REMARK    2  A    between atoms: C_12  and  C_4 
REMARK    3  A    between atoms: C_17  and  N_10 
ROOT
ATOM      1  N   UNL d   1     -49.609  27.634  34.358  0.00  0.00    -0.196 N 
ATOM      2  C   UNL d   1     -49.297  28.386  34.454  0.00  0.00     0.167 A 
ATOM      3  C   UNL d   1     -50.297  27.521  33.914  0.00  0.00     0.152 A 
ATOM      4  C   UNL d   1     -48.621  28.326  34.917  0.00  0.00     0.057 A 
ATOM      5  N   UNL d   1     -49.128  27.104  34.762  0.00  0.00    -0.161 NA
ATOM      6  N   UNL d   1     -49.667  29.038  34.107  0.00  0.00    -0.227 NA
ATOM      7  C   UNL d   1     -50.669  28.174  33.565  0.00  0.00     0.057 A 
ATOM      8  C   UNL d   1     -48.517  27.540  35.106  0.00  0.00     0.124 A 
ATOM      9  C   UNL d   1     -50.358  28.927  33.661  0.00  0.00     0.086 A 
ATOM     10  C   UNL d   1     -50.739  29.580  33.306  0.00  0.00     0.021 C 
ENDROOT
BRANCH   3  11
ATOM     11  N   UNL d   1     -50.609  26.768  33.819  0.00  0.00    -0.286 N 
ATOM     12  C   UNL d   1     -51.318  26.660  33.402  0.00  0.00     0.101 A 
ATOM     13  C   UNL d   1     -51.632  25.903  33.306  0.00  0.00     0.100 A 
ATOM     14  N   UNL d   1     -51.238  25.250  33.626  0.00  0.00    -0.301 N 
ATOM     15  C   UNL d   1     -50.534  25.355  34.040  0.00  0.00     0.100 A 
ATOM     16  C   UNL d   1     -50.220  26.112  34.136  0.00  0.00     0.101 A 
BRANCH  14  17
ATOM     17  C   UNL d   1     -51.555  24.485  33.529  0.00  0.00     0.064 A 
ATOM     18  C   UNL d   1     -52.356  24.357  33.652  0.00  0.00     0.018 A 
ATOM     19  C   UNL d   1     -52.508  23.548  33.515  0.00  0.00     0.002 A 
ATOM     20  C   UNL d   1     -51.800  23.192  33.310  0.00  0.00     0.002 A 
ATOM     21  C   UNL d   1     -51.209  23.762  33.316  0.00  0.00     0.018 A 
ENDBRANCH  14  17
ENDBRANCH   3  11
BRANCH   4  22
ATOM     22  C   UNL d   1     -48.085  28.890  35.191  0.00  0.00     0.004 A 
ATOM     23  C   UNL d   1     -47.695  29.387  34.652  0.00  0.00     0.000 A 
ATOM     24  C   UNL d   1     -47.159  29.952  34.926  0.00  0.00     0.000 A 
ATOM     25  C   UNL d   1     -47.009  30.024  35.735  0.00  0.00     0.000 A 
ATOM     26  C   UNL d   1     -47.397  29.530  36.273  0.00  0.00     0.000 A 
ATOM     27  C   UNL d   1     -47.932  28.966  35.999  0.00  0.00     0.000 A 
ENDBRANCH   4  22
TORSDOF 3
ENDMDL
