MODEL 1
REMARK VINA RESULT:     139.3      0.000      0.000
REMARK  5 active torsions:
REMARK  status: ('A' for Active; 'I' for Inactive)
REMARK    1  A    between atoms: N_10  and  C_3 
REMARK    2  A    between atoms: C_11  and  C_5 
REMARK    3  A    between atoms: C_16  and  C_7 
REMARK    4  A    between atoms: C_15  and  N_10 
REMARK       I    between atoms: C_12  and  N_13 
REMARK    5  A    between atoms: N_13  and  C_17 
ROOT
ATOM      1  N   UNL d   1     -57.223 -99.171 -43.040  0.00  0.00    -0.184 N 
ATOM      2  C   UNL d   1     -56.781 -99.218 -43.736  0.00  0.00     0.168 A 
ATOM      3  C   UNL d   1     -58.007 -99.020 -43.076  0.00  0.00     0.217 A 
ATOM      4  N   UNL d   1     -56.083 -99.428 -42.300  0.00  0.00    -0.162 NA
ATOM      5  C   UNL d   1     -56.006 -99.367 -43.700  0.00  0.00     0.055 A 
ATOM      6  N   UNL d   1     -57.143 -99.111 -44.439  0.00  0.00    -0.227 NA
ATOM      7  C   UNL d   1     -58.369 -98.913 -43.786  0.00  0.00     0.066 A 
ATOM      8  C   UNL d   1     -55.649 -99.474 -42.984  0.00  0.00     0.104 A 
ATOM      9  C   UNL d   1     -57.928 -98.959 -44.481  0.00  0.00     0.087 A 
ATOM     10  C   UNL d   1     -54.863 -99.625 -42.957  0.00  0.00     0.023 C 
ATOM     11  C   UNL d   1     -58.303 -98.848 -45.224  0.00  0.00     0.021 C 
ENDROOT
BRANCH   3  12
ATOM     12  N   UNL d   1     -58.444 -98.974 -42.373  0.00  0.00    -0.383 NA
BRANCH  12  13
ATOM     13  C   UNL d   1     -58.798 -98.927 -41.627  0.00  0.00     0.134 A 
ATOM     14  C   UNL d   1     -59.613 -98.809 -41.563  0.00  0.00     0.034 A 
ATOM     15  C   UNL d   1     -59.959 -98.763 -40.810  0.00  0.00     0.022 A 
ATOM     16  C   UNL d   1     -59.495 -98.834 -40.132  0.00  0.00     0.085 A 
ATOM     17  C   UNL d   1     -58.677 -98.953 -40.190  0.00  0.00     0.022 A 
ATOM     18  C   UNL d   1     -58.321 -99.000 -40.944  0.00  0.00     0.034 A 
BRANCH  16  19
ATOM     19  N   UNL d   1     -59.858 -98.786 -39.384  0.00  0.00    -0.208 NA
ATOM     20  C   UNL d   1     -59.380 -98.805 -38.702  0.00  0.00     0.279 C 
ATOM     21  O   UNL d   1     -59.725 -98.758 -37.963  0.00  0.00    -0.265 OA
ATOM     22  C   UNL d   1     -58.559 -98.870 -38.764  0.00  0.00     0.068 C 
ENDBRANCH  16  19
ENDBRANCH  12  13
ENDBRANCH   3  12
BRANCH   7  23
ATOM     23  C   UNL d   1     -59.182 -98.755 -43.840  0.00  0.00     0.006 C 
ATOM     24  C   UNL d   1     -59.729 -99.364 -44.020  0.00  0.00     0.000 C 
ENDBRANCH   7  23
BRANCH   5  25
ATOM     25  C   UNL d   1     -55.578 -99.412 -44.374  0.00  0.00     0.004 A 
ATOM     26  C   UNL d   1     -55.415 -98.756 -44.796  0.00  0.00     0.000 A 
ATOM     27  C   UNL d   1     -54.980 -98.802 -45.481  0.00  0.00     0.000 A 
ATOM     28  C   UNL d   1     -54.716 -99.504 -45.733  0.00  0.00     0.000 A 
ATOM     29  C   UNL d   1     -54.878-100.172 -45.310  0.00  0.00     0.000 A 
ATOM     30  C   UNL d   1     -55.306-100.126 -44.635  0.00  0.00     0.000 A 
ENDBRANCH   5  25
TORSDOF 5
ENDMDL
