MODEL 1
REMARK VINA RESULT:       0.4      0.000      0.000
REMARK  2 active torsions:
REMARK  status: ('A' for Active; 'I' for Inactive)
REMARK    1  A    between atoms: N_9  and  C_3 
REMARK    2  A    between atoms: C_11  and  C_4 
ROOT
ATOM      1  N   UNL d   1      30.341  17.003 -24.010  0.00  0.00    -0.196 N 
ATOM      2  C   UNL d   1      29.533  16.826 -23.960  0.00  0.00     0.167 A 
ATOM      3  C   UNL d   1      30.588  17.677 -24.426  0.00  0.00     0.153 A 
ATOM      4  C   UNL d   1      29.278  16.165 -23.553  0.00  0.00     0.057 A 
ATOM      5  N   UNL d   1      30.649  15.843 -23.234  0.00  0.00    -0.161 NA
ATOM      6  N   UNL d   1      28.981  17.319 -24.323  0.00  0.00    -0.227 NA
ATOM      7  C   UNL d   1      30.034  18.159 -24.782  0.00  0.00     0.057 A 
ATOM      8  C   UNL d   1      29.840  15.670 -23.188  0.00  0.00     0.124 A 
ATOM      9  C   UNL d   1      29.227  17.979 -24.731  0.00  0.00     0.086 A 
ATOM     10  C   UNL d   1      28.675  18.472 -25.093  0.00  0.00     0.021 C 
ENDROOT
BRANCH   4  11
ATOM     11  C   UNL d   1      28.475  15.986 -23.501  0.00  0.00     0.004 A 
ATOM     12  C   UNL d   1      28.089  15.633 -24.142  0.00  0.00     0.000 A 
ATOM     13  C   UNL d   1      27.285  15.454 -24.091  0.00  0.00     0.000 A 
ATOM     14  C   UNL d   1      26.867  15.633 -23.386  0.00  0.00     0.000 A 
ATOM     15  C   UNL d   1      27.266  15.983 -22.759  0.00  0.00     0.000 A 
ATOM     16  C   UNL d   1      26.063  15.454 -23.335  0.00  0.00     0.000 C 
ATOM     17  C   UNL d   1      28.066  16.161 -22.810  0.00  0.00     0.000 A 
ENDBRANCH   4  11
BRANCH   3  18
ATOM     18  N   UNL d   1      31.421  17.863 -24.480  0.00  0.00    -0.285 N 
ATOM     19  C   UNL d   1      31.755  18.453 -23.960  0.00  0.00     0.108 A 
ATOM     20  C   UNL d   1      32.581  18.633 -24.017  0.00  0.00     0.142 A 
ATOM     21  O   UNL d   1      33.086  18.224 -24.596  0.00  0.00    -0.300 OA
ATOM     22  C   UNL d   1      32.732  17.646 -25.097  0.00  0.00     0.142 A 
ATOM     23  C   UNL d   1      31.907  17.462 -25.044  0.00  0.00     0.108 A 
ENDBRANCH   3  18
TORSDOF 2
ENDMDL
MODEL 2
REMARK VINA RESULT:       0.5      3.494      4.895
REMARK  2 active torsions:
REMARK  status: ('A' for Active; 'I' for Inactive)
REMARK    1  A    between atoms: N_9  and  C_3 
REMARK    2  A    between atoms: C_11  and  C_4 
ROOT
ATOM      1  N   UNL d   1      32.755  20.128 -23.511  0.00  0.00    -0.196 N 
ATOM      2  C   UNL d   1      32.741  19.320 -23.325  0.00  0.00     0.167 A 
ATOM      3  C   UNL d   1      32.932  20.681 -22.918  0.00  0.00     0.153 A 
ATOM      4  C   UNL d   1      32.568  18.766 -23.901  0.00  0.00     0.057 A 
ATOM      5  N   UNL d   1      32.417  19.829 -24.867  0.00  0.00    -0.161 NA
ATOM      6  N   UNL d   1      32.904  19.071 -22.557  0.00  0.00    -0.227 NA
ATOM      7  C   UNL d   1      33.092  20.425 -22.159  0.00  0.00     0.057 A 
ATOM      8  C   UNL d   1      32.405  19.023 -24.677  0.00  0.00     0.124 A 
ATOM      9  C   UNL d   1      33.077  19.616 -21.978  0.00  0.00     0.086 A 
ATOM     10  C   UNL d   1      33.240  19.367 -21.209  0.00  0.00     0.021 C 
ENDROOT
BRANCH   4  11
ATOM     11  C   UNL d   1      32.554  17.961 -23.721  0.00  0.00     0.004 A 
ATOM     12  C   UNL d   1      31.851  17.609 -23.462  0.00  0.00     0.000 A 
ATOM     13  C   UNL d   1      31.837  16.805 -23.282  0.00  0.00     0.000 A 
ATOM     14  C   UNL d   1      32.538  16.351 -23.363  0.00  0.00     0.000 A 
ATOM     15  C   UNL d   1      33.227  16.717 -23.621  0.00  0.00     0.000 A 
ATOM     16  C   UNL d   1      32.523  15.546 -23.182  0.00  0.00     0.000 C 
ATOM     17  C   UNL d   1      33.241  17.518 -23.800  0.00  0.00     0.000 A 
ENDBRANCH   4  11
BRANCH   3  18
ATOM     18  N   UNL d   1      32.947  21.515 -23.105  0.00  0.00    -0.285 N 
ATOM     19  C   UNL d   1      33.227  21.770 -23.870  0.00  0.00     0.108 A 
ATOM     20  C   UNL d   1      33.240  22.597 -24.051  0.00  0.00     0.142 A 
ATOM     21  O   UNL d   1      32.972  23.183 -23.467  0.00  0.00    -0.300 OA
ATOM     22  C   UNL d   1      32.700  22.906 -22.718  0.00  0.00     0.142 A 
ATOM     23  C   UNL d   1      32.685  22.080 -22.533  0.00  0.00     0.108 A 
ENDBRANCH   3  18
TORSDOF 2
ENDMDL
MODEL 3
REMARK VINA RESULT:       1.9      1.765      4.321
REMARK  2 active torsions:
REMARK  status: ('A' for Active; 'I' for Inactive)
REMARK    1  A    between atoms: N_9  and  C_3 
REMARK    2  A    between atoms: C_11  and  C_4 
ROOT
ATOM      1  N   UNL d   1      29.136  16.406 -23.668  0.00  0.00    -0.196 N 
ATOM      2  C   UNL d   1      29.808  16.806 -23.944  0.00  0.00     0.167 A 
ATOM      3  C   UNL d   1      28.382  16.683 -23.875  0.00  0.00     0.153 A 
ATOM      4  C   UNL d   1      30.556  16.542 -23.747  0.00  0.00     0.057 A 
ATOM      5  N   UNL d   1      29.968  15.464 -22.987  0.00  0.00    -0.161 NA
ATOM      6  N   UNL d   1      29.724  17.473 -24.420  0.00  0.00    -0.227 NA
ATOM      7  C   UNL d   1      28.308  17.345 -24.347  0.00  0.00     0.057 A 
ATOM      8  C   UNL d   1      30.637  15.867 -23.266  0.00  0.00     0.124 A 
ATOM      9  C   UNL d   1      28.982  17.742 -24.621  0.00  0.00     0.086 A 
ATOM     10  C   UNL d   1      28.898  18.410 -25.097  0.00  0.00     0.021 C 
ENDROOT
BRANCH   4  11
ATOM     11  C   UNL d   1      31.227  16.937 -24.019  0.00  0.00     0.004 A 
ATOM     12  C   UNL d   1      31.555  17.550 -23.571  0.00  0.00     0.000 A 
ATOM     13  C   UNL d   1      32.227  17.945 -23.843  0.00  0.00     0.000 A 
ATOM     14  C   UNL d   1      32.569  17.720 -24.575  0.00  0.00     0.000 A 
ATOM     15  C   UNL d   1      32.230  17.109 -25.008  0.00  0.00     0.000 A 
ATOM     16  C   UNL d   1      33.241  18.115 -24.848  0.00  0.00     0.000 C 
ATOM     17  C   UNL d   1      31.562  16.716 -24.736  0.00  0.00     0.000 A 
ENDBRANCH   4  11
BRANCH   3  18
ATOM     18  N   UNL d   1      27.686  16.274 -23.593  0.00  0.00    -0.285 N 
ATOM     19  C   UNL d   1      27.503  16.281 -22.759  0.00  0.00     0.108 A 
ATOM     20  C   UNL d   1      26.813  15.874 -22.483  0.00  0.00     0.142 A 
ATOM     21  O   UNL d   1      26.295  15.453 -23.041  0.00  0.00    -0.300 OA
ATOM     22  C   UNL d   1      26.498  15.461 -23.859  0.00  0.00     0.142 A 
ATOM     23  C   UNL d   1      27.187  15.866 -24.139  0.00  0.00     0.108 A 
ENDBRANCH   3  18
TORSDOF 2
ENDMDL
MODEL 4
REMARK VINA RESULT:       1.9      3.110      5.288
REMARK  2 active torsions:
REMARK  status: ('A' for Active; 'I' for Inactive)
REMARK    1  A    between atoms: N_9  and  C_3 
REMARK    2  A    between atoms: C_11  and  C_4 
ROOT
ATOM      1  N   UNL d   1      32.727  18.393 -23.128  0.00  0.00    -0.196 N 
ATOM      2  C   UNL d   1      32.739  19.220 -23.072  0.00  0.00     0.167 A 
ATOM      3  C   UNL d   1      32.529  18.033 -23.849  0.00  0.00     0.153 A 
ATOM      4  C   UNL d   1      32.932  19.584 -22.367  0.00  0.00     0.057 A 
ATOM      5  N   UNL d   1      33.107  18.288 -21.754  0.00  0.00    -0.161 NA
ATOM      6  N   UNL d   1      32.555  19.679 -23.732  0.00  0.00    -0.227 NA
ATOM      7  C   UNL d   1      32.348  18.497 -24.497  0.00  0.00     0.057 A 
ATOM      8  C   UNL d   1      33.117  19.116 -21.704  0.00  0.00     0.124 A 
ATOM      9  C   UNL d   1      32.361  19.323 -24.437  0.00  0.00     0.086 A 
ATOM     10  C   UNL d   1      32.177  19.783 -25.096  0.00  0.00     0.021 C 
ENDROOT
BRANCH   4  11
ATOM     11  C   UNL d   1      32.945  20.407 -22.308  0.00  0.00     0.004 A 
ATOM     12  C   UNL d   1      32.676  20.775 -21.618  0.00  0.00     0.000 A 
ATOM     13  C   UNL d   1      32.689  21.598 -21.559  0.00  0.00     0.000 A 
ATOM     14  C   UNL d   1      32.976  22.053 -22.202  0.00  0.00     0.000 A 
ATOM     15  C   UNL d   1      33.240  21.671 -22.880  0.00  0.00     0.000 A 
ATOM     16  C   UNL d   1      32.990  22.876 -22.143  0.00  0.00     0.000 C 
ATOM     17  C   UNL d   1      33.227  20.852 -22.939  0.00  0.00     0.000 A 
ENDBRANCH   4  11
BRANCH   3  18
ATOM     18  N   UNL d   1      32.515  17.181 -23.910  0.00  0.00    -0.285 N 
ATOM     19  C   UNL d   1      31.766  16.774 -23.960  0.00  0.00     0.108 A 
ATOM     20  C   UNL d   1      31.757  15.929 -24.020  0.00  0.00     0.142 A 
ATOM     21  O   UNL d   1      32.501  15.478 -24.032  0.00  0.00    -0.300 OA
ATOM     22  C   UNL d   1      33.228  15.903 -23.982  0.00  0.00     0.142 A 
ATOM     23  C   UNL d   1      33.241  16.748 -23.921  0.00  0.00     0.108 A 
ENDBRANCH   3  18
TORSDOF 2
ENDMDL
MODEL 5
REMARK VINA RESULT:       3.1      5.231      7.092
REMARK  2 active torsions:
REMARK  status: ('A' for Active; 'I' for Inactive)
REMARK    1  A    between atoms: N_9  and  C_3 
REMARK    2  A    between atoms: C_11  and  C_4 
ROOT
ATOM      1  N   UNL d   1      32.663  21.771 -20.156  0.00  0.00    -0.196 N 
ATOM      2  C   UNL d   1      32.585  21.536 -20.947  0.00  0.00     0.167 A 
ATOM      3  C   UNL d   1      32.421  22.532 -19.929  0.00  0.00     0.153 A 
ATOM      4  C   UNL d   1      32.821  20.789 -21.182  0.00  0.00     0.057 A 
ATOM      5  N   UNL d   1      33.221  20.498 -19.825  0.00  0.00    -0.161 NA
ATOM      6  N   UNL d   1      32.268  22.056 -21.502  0.00  0.00    -0.227 NA
ATOM      7  C   UNL d   1      32.108  23.040 -20.486  0.00  0.00     0.057 A 
ATOM      8  C   UNL d   1      33.141  20.267 -20.617  0.00  0.00     0.124 A 
ATOM      9  C   UNL d   1      32.031  22.801 -21.276  0.00  0.00     0.086 A 
ATOM     10  C   UNL d   1      31.714  23.322 -21.830  0.00  0.00     0.021 C 
ENDROOT
BRANCH   4  11
ATOM     11  C   UNL d   1      32.744  20.552 -21.968  0.00  0.00     0.004 A 
ATOM     12  C   UNL d   1      32.187  19.975 -22.172  0.00  0.00     0.000 A 
ATOM     13  C   UNL d   1      32.111  19.738 -22.958  0.00  0.00     0.000 A 
ATOM     14  C   UNL d   1      32.601  20.084 -23.544  0.00  0.00     0.000 A 
ATOM     15  C   UNL d   1      33.149  20.656 -23.323  0.00  0.00     0.000 A 
ATOM     16  C   UNL d   1      32.524  19.847 -24.330  0.00  0.00     0.000 C 
ATOM     17  C   UNL d   1      33.225  20.892 -22.541  0.00  0.00     0.000 A 
ENDBRANCH   4  11
BRANCH   3  18
ATOM     18  N   UNL d   1      32.500  22.778 -19.114  0.00  0.00    -0.285 N 
ATOM     19  C   UNL d   1      33.023  23.425 -18.919  0.00  0.00     0.108 A 
ATOM     20  C   UNL d   1      33.098  23.665 -18.110  0.00  0.00     0.142 A 
ATOM     21  O   UNL d   1      32.649  23.261 -17.484  0.00  0.00    -0.300 OA
ATOM     22  C   UNL d   1      32.140  22.626 -17.703  0.00  0.00     0.142 A 
ATOM     23  C   UNL d   1      32.062  22.381 -18.510  0.00  0.00     0.108 A 
ENDBRANCH   3  18
TORSDOF 2
ENDMDL
MODEL 6
REMARK VINA RESULT:       3.3      4.156      5.648
REMARK  2 active torsions:
REMARK  status: ('A' for Active; 'I' for Inactive)
REMARK    1  A    between atoms: N_9  and  C_3 
REMARK    2  A    between atoms: C_11  and  C_4 
ROOT
ATOM      1  N   UNL d   1      32.927  20.802 -22.414  0.00  0.00    -0.196 N 
ATOM      2  C   UNL d   1      32.925  19.990 -22.580  0.00  0.00     0.167 A 
ATOM      3  C   UNL d   1      33.035  21.059 -21.632  0.00  0.00     0.153 A 
ATOM      4  C   UNL d   1      32.820  19.725 -23.346  0.00  0.00     0.057 A 
ATOM      5  N   UNL d   1      32.715  21.093 -23.796  0.00  0.00    -0.161 NA
ATOM      6  N   UNL d   1      33.030  19.444 -21.971  0.00  0.00    -0.227 NA
ATOM      7  C   UNL d   1      33.138  20.511 -21.036  0.00  0.00     0.057 A 
ATOM      8  C   UNL d   1      32.714  20.280 -23.958  0.00  0.00     0.124 A 
ATOM      9  C   UNL d   1      33.136  19.700 -21.206  0.00  0.00     0.086 A 
ATOM     10  C   UNL d   1      33.241  19.155 -20.597  0.00  0.00     0.021 C 
ENDROOT
BRANCH   4  11
ATOM     11  C   UNL d   1      32.817  18.918 -23.516  0.00  0.00     0.004 A 
ATOM     12  C   UNL d   1      33.241  18.632 -24.166  0.00  0.00     0.000 A 
ATOM     13  C   UNL d   1      33.239  17.825 -24.336  0.00  0.00     0.000 A 
ATOM     14  C   UNL d   1      32.805  17.301 -23.846  0.00  0.00     0.000 A 
ATOM     15  C   UNL d   1      32.389  17.602 -23.204  0.00  0.00     0.000 A 
ATOM     16  C   UNL d   1      32.802  16.494 -24.015  0.00  0.00     0.000 C 
ATOM     17  C   UNL d   1      32.392  18.406 -23.035  0.00  0.00     0.000 A 
ENDBRANCH   4  11
BRANCH   3  18
ATOM     18  N   UNL d   1      33.037  21.896 -21.456  0.00  0.00    -0.285 N 
ATOM     19  C   UNL d   1      32.841  22.161 -20.668  0.00  0.00     0.108 A 
ATOM     20  C   UNL d   1      32.845  22.991 -20.499  0.00  0.00     0.142 A 
ATOM     21  O   UNL d   1      33.045  23.569 -21.117  0.00  0.00    -0.300 OA
ATOM     22  C   UNL d   1      33.235  23.282 -21.887  0.00  0.00     0.142 A 
ATOM     23  C   UNL d   1      33.233  22.453 -22.061  0.00  0.00     0.108 A 
ENDBRANCH   3  18
TORSDOF 2
ENDMDL
