MODEL 1
REMARK VINA RESULT:       0.6      0.000      0.000
REMARK  7 active torsions:
REMARK  status: ('A' for Active; 'I' for Inactive)
REMARK       I    between atoms: C_5  and  N_1 
REMARK    1  A    between atoms: C_11  and  C_3 
REMARK    2  A    between atoms: C_12  and  C_5 
REMARK    3  A    between atoms: N_7  and  C_12 
REMARK    4  A    between atoms: C_13  and  C_8 
REMARK    5  A    between atoms: C_29  and  N_10 
REMARK    6  A    between atoms: O_28  and  C_16 
REMARK    7  A    between atoms: O_30  and  C_23 
ROOT
ATOM      1  N   UNL d   1     -38.435  14.078  18.742  0.00  0.00    -0.193 N 
ATOM      2  N   UNL d   1     -38.338  13.500  18.174  0.00  0.00    -0.162 NA
ATOM      3  C   UNL d   1     -38.235  12.774  18.546  0.00  0.00     0.109 A 
ATOM      4  C   UNL d   1     -38.554  14.884  18.610  0.00  0.00     0.298 C 
ATOM      5  C   UNL d   1     -38.393  13.720  19.484  0.00  0.00     0.088 A 
ATOM      6  C   UNL d   1     -38.269  12.910  19.358  0.00  0.00     0.041 A 
ATOM      7  O   UNL d   1     -38.640  15.389  19.248  0.00  0.00    -0.264 OA
ENDROOT
BRANCH   4   8
ATOM      8  C   UNL d   1     -38.584  15.169  17.849  0.00  0.00     0.146 C 
BRANCH   8   9
ATOM      9  N   UNL d   1     -39.309  15.354  17.512  0.00  0.00    -0.262 N 
ATOM     10  C   UNL d   1     -39.359  15.529  16.713  0.00  0.00     0.322 A 
ATOM     11  C   UNL d   1     -40.087  15.716  16.374  0.00  0.00     0.322 A 
ATOM     12  O   UNL d   1     -38.677  15.520  16.246  0.00  0.00    -0.261 OA
ATOM     13  O   UNL d   1     -40.134  15.892  15.567  0.00  0.00    -0.261 OA
ATOM     14  N   UNL d   1     -40.766  15.727  16.833  0.00  0.00    -0.267 N 
ATOM     15  C   UNL d   1     -40.718  15.550  17.636  0.00  0.00     0.102 A 
ATOM     16  C   UNL d   1     -39.989  15.364  17.976  0.00  0.00     0.102 A 
BRANCH  14  17
ATOM     17  C   UNL d   1     -41.495  15.913  16.494  0.00  0.00     0.083 C 
ATOM     18  C   UNL d   1     -42.179  15.523  16.747  0.00  0.00     0.021 C 
ENDBRANCH  14  17
ENDBRANCH   8   9
ENDBRANCH   4   8
BRANCH   5  19
ATOM     19  C   UNL d   1     -38.459  14.085  20.209  0.00  0.00     0.020 A 
ATOM     20  C   UNL d   1     -39.043  13.849  20.734  0.00  0.00     0.028 A 
ATOM     21  C   UNL d   1     -39.104  14.225  21.471  0.00  0.00     0.116 A 
ATOM     22  C   UNL d   1     -38.588  14.826  21.670  0.00  0.00     0.116 A 
ATOM     23  C   UNL d   1     -38.002  15.060  21.138  0.00  0.00     0.026 A 
ATOM     24  C   UNL d   1     -37.941  14.684  20.404  0.00  0.00     0.004 A 
BRANCH  21  25
ATOM     25  O   UNL d   1     -39.687  13.988  21.994  0.00  0.00    -0.326 OA
ATOM     26  C   UNL d   1     -39.997  13.234  21.960  0.00  0.00     0.181 C 
ENDBRANCH  21  25
BRANCH  22  27
ATOM     27  O   UNL d   1     -38.650  15.193  22.392  0.00  0.00    -0.326 OA
ATOM     28  C   UNL d   1     -38.124  15.785  22.598  0.00  0.00     0.181 C 
ENDBRANCH  22  27
ENDBRANCH   5  19
BRANCH   3  29
ATOM     29  C   UNL d   1     -38.120  12.048  18.175  0.00  0.00     0.049 A 
ATOM     30  S   UNL d   1     -38.049  11.918  17.377  0.00  0.00    -0.085 SA
ATOM     31  C   UNL d   1     -37.941  11.115  17.241  0.00  0.00     0.035 A 
ATOM     32  C   UNL d   1     -37.945  10.742  17.982  0.00  0.00     0.007 A 
ATOM     33  C   UNL d   1     -38.057  11.320  18.566  0.00  0.00     0.009 A 
ENDBRANCH   3  29
TORSDOF 7
ENDMDL
