MODEL 1
REMARK VINA RESULT:      78.7      0.000      0.000
REMARK  6 active torsions:
REMARK  status: ('A' for Active; 'I' for Inactive)
REMARK    1  A    between atoms: N_2  and  S_1 
REMARK    2  A    between atoms: C_3  and  S_1 
REMARK    3  A    between atoms: C_8  and  N_2 
REMARK    4  A    between atoms: C_6  and  O_7 
REMARK    5  A    between atoms: O_7  and  C_13 
REMARK    6  A    between atoms: O_16  and  C_10 
ROOT
ATOM      1  C   UNL d   1      57.370  48.734  50.452  0.00  0.00     0.105 A 
ATOM      2  C   UNL d   1      57.529  48.553  51.233  0.00  0.00     0.015 A 
ATOM      3  C   UNL d   1      57.876  49.236  50.031  0.00  0.00     0.015 A 
ATOM      4  C   UNL d   1      58.696  49.371  51.178  0.00  0.00     0.100 A 
ATOM      5  C   UNL d   1      58.536  49.552  50.396  0.00  0.00     0.025 A 
ATOM      6  C   UNL d   1      58.189  48.869  51.598  0.00  0.00     0.025 A 
ENDROOT
BRANCH   1   7
ATOM      7  S   UNL d   1      56.700  48.410  50.089  0.00  0.00     0.285 S 
ATOM      8  O   UNL d   1      56.035  48.881  49.955  0.00  0.00    -0.198 OA
ATOM      9  O   UNL d   1      56.699  47.617  49.864  0.00  0.00    -0.198 OA
BRANCH   7  10
ATOM     10  N   UNL d   1      56.147  47.912  49.725  0.00  0.00    -0.157 NA
BRANCH  10  11
ATOM     11  C   UNL d   1      56.313  47.099  49.646  0.00  0.00     0.113 A 
ATOM     12  C   UNL d   1      56.249  46.736  48.908  0.00  0.00     0.119 A 
ATOM     13  N   UNL d   1      56.415  45.923  48.829  0.00  0.00    -0.241 NA
ATOM     14  C   UNL d   1      56.646  45.483  49.496  0.00  0.00     0.099 A 
ATOM     15  C   UNL d   1      56.709  45.853  50.238  0.00  0.00     0.022 A 
ATOM     16  C   UNL d   1      56.542  46.661  50.307  0.00  0.00     0.023 A 
ENDBRANCH  10  11
ENDBRANCH   7  10
ENDBRANCH   1   7
BRANCH   4  17
ATOM     17  O   UNL d   1      59.365  49.691  51.550  0.00  0.00    -0.305 OA
BRANCH  17  18
ATOM     18  C   UNL d   1      60.116  49.607  51.209  0.00  0.00     0.122 A 
ATOM     19  C   UNL d   1      60.767  49.457  51.688  0.00  0.00     0.117 A 
ATOM     20  C   UNL d   1      61.514  49.374  51.346  0.00  0.00     0.026 A 
ATOM     21  C   UNL d   1      61.604  49.441  50.534  0.00  0.00     0.002 A 
ATOM     22  C   UNL d   1      60.949  49.592  50.055  0.00  0.00     0.002 A 
ATOM     23  C   UNL d   1      60.202  49.675  50.397  0.00  0.00     0.027 A 
BRANCH  19  24
ATOM     24  O   UNL d   1      60.668  49.391  52.498  0.00  0.00    -0.326 OA
ATOM     25  C   UNL d   1      61.224  49.695  53.008  0.00  0.00     0.181 C 
ENDBRANCH  19  24
ENDBRANCH  17  18
ENDBRANCH   4  17
TORSDOF 6
ENDMDL
