MODEL 1
REMARK VINA RESULT:      -2.5      0.000      0.000
REMARK  5 active torsions:
REMARK  status: ('A' for Active; 'I' for Inactive)
REMARK    1  A    between atoms: N_2  and  S_1 
REMARK    2  A    between atoms: C_5  and  S_1 
REMARK    3  A    between atoms: S_8  and  C_3 
REMARK    4  A    between atoms: C_13  and  S_8 
REMARK    5  A    between atoms: C_15  and  C_13 
ROOT
ATOM      1  N   UNL d   1      30.917  16.538 -24.338  0.00  0.00    -0.208 N 
ATOM      2  C   UNL d   1      31.646  16.788 -24.027  0.00  0.00     0.189 A 
ATOM      3  N   UNL d   1      32.069  16.118 -23.789  0.00  0.00    -0.219 NA
ATOM      4  C   UNL d   1      30.891  15.708 -24.290  0.00  0.00     0.114 A 
ATOM      5  C   UNL d   1      31.601  15.454 -23.953  0.00  0.00     0.121 A 
ENDROOT
BRANCH   1   6
ATOM      6  S   UNL d   1      30.324  17.031 -24.641  0.00  0.00     0.273 S 
ATOM      7  O   UNL d   1      29.930  17.625 -25.064  0.00  0.00    -0.200 OA
ATOM      8  O   UNL d   1      30.909  17.414 -25.068  0.00  0.00    -0.200 OA
BRANCH   6   9
ATOM      9  C   UNL d   1      29.719  16.658 -24.218  0.00  0.00     0.104 A 
ATOM     10  C   UNL d   1      29.386  15.971 -24.515  0.00  0.00     0.015 A 
ATOM     11  C   UNL d   1      28.784  15.601 -24.093  0.00  0.00     0.030 A 
ATOM     12  C   UNL d   1      28.522  15.923 -23.378  0.00  0.00     0.140 A 
ATOM     13  C   UNL d   1      28.859  16.612 -23.082  0.00  0.00     0.030 A 
ATOM     14  F   UNL d   1      27.918  15.551 -22.954  0.00  0.00    -0.204 F 
ATOM     15  C   UNL d   1      29.464  16.983 -23.508  0.00  0.00     0.015 A 
ENDBRANCH   6   9
ENDBRANCH   1   6
BRANCH   2  16
ATOM     16  S   UNL d   1      31.906  17.577 -23.967  0.00  0.00    -0.049 SA
BRANCH  16  17
ATOM     17  C   UNL d   1      32.647  17.742 -23.642  0.00  0.00     0.038 C 
BRANCH  17  18
ATOM     18  C   UNL d   1      32.791  18.487 -23.302  0.00  0.00     0.007 A 
ATOM     19  C   UNL d   1      32.774  18.584 -22.477  0.00  0.00     0.001 A 
ATOM     20  C   UNL d   1      32.916  19.316 -22.137  0.00  0.00     0.000 A 
ATOM     21  C   UNL d   1      33.077  19.964 -22.621  0.00  0.00     0.000 A 
ATOM     22  C   UNL d   1      33.095  19.871 -23.444  0.00  0.00     0.000 A 
ATOM     23  C   UNL d   1      33.220  20.703 -22.287  0.00  0.00     0.000 C 
ATOM     24  C   UNL d   1      32.952  19.134 -23.782  0.00  0.00     0.001 A 
ENDBRANCH  17  18
ENDBRANCH  16  17
ENDBRANCH   2  16
TORSDOF 5
ENDMDL
MODEL 2
REMARK VINA RESULT:      -2.1      1.853      2.649
REMARK  5 active torsions:
REMARK  status: ('A' for Active; 'I' for Inactive)
REMARK    1  A    between atoms: N_2  and  S_1 
REMARK    2  A    between atoms: C_5  and  S_1 
REMARK    3  A    between atoms: S_8  and  C_3 
REMARK    4  A    between atoms: C_13  and  S_8 
REMARK    5  A    between atoms: C_15  and  C_13 
ROOT
ATOM      1  N   UNL d   1      32.850  18.080 -23.697  0.00  0.00    -0.208 N 
ATOM      2  C   UNL d   1      33.030  18.433 -22.966  0.00  0.00     0.189 A 
ATOM      3  N   UNL d   1      33.232  17.833 -22.433  0.00  0.00    -0.219 NA
ATOM      4  C   UNL d   1      32.943  17.258 -23.613  0.00  0.00     0.114 A 
ATOM      5  C   UNL d   1      33.178  17.111 -22.835  0.00  0.00     0.121 A 
ENDROOT
BRANCH   1   6
ATOM      6  S   UNL d   1      32.620  18.481 -24.386  0.00  0.00     0.273 S 
ATOM      7  O   UNL d   1      32.589  19.026 -25.008  0.00  0.00    -0.200 OA
ATOM      8  O   UNL d   1      33.241  18.999 -24.249  0.00  0.00    -0.200 OA
BRANCH   6   9
ATOM      9  C   UNL d   1      31.990  17.970 -24.540  0.00  0.00     0.104 A 
ATOM     10  C   UNL d   1      32.129  17.269 -24.941  0.00  0.00     0.015 A 
ATOM     11  C   UNL d   1      31.500  16.761 -25.094  0.00  0.00     0.030 A 
ATOM     12  C   UNL d   1      30.737  16.961 -24.845  0.00  0.00     0.140 A 
ATOM     13  C   UNL d   1      30.600  17.665 -24.443  0.00  0.00     0.030 A 
ATOM     14  F   UNL d   1      30.106  16.450 -24.999  0.00  0.00    -0.204 F 
ATOM     15  C   UNL d   1      31.234  18.174 -24.290  0.00  0.00     0.015 A 
ENDBRANCH   6   9
ENDBRANCH   1   6
BRANCH   2  16
ATOM     16  S   UNL d   1      33.009  19.249 -22.800  0.00  0.00    -0.049 SA
BRANCH  16  17
ATOM     17  C   UNL d   1      32.989  19.508 -22.016  0.00  0.00     0.038 C 
BRANCH  17  18
ATOM     18  C   UNL d   1      32.925  20.321 -21.852  0.00  0.00     0.007 A 
ATOM     19  C   UNL d   1      33.063  20.882 -22.448  0.00  0.00     0.001 A 
ATOM     20  C   UNL d   1      33.002  21.685 -22.291  0.00  0.00     0.000 A 
ATOM     21  C   UNL d   1      32.801  21.936 -21.532  0.00  0.00     0.000 A 
ATOM     22  C   UNL d   1      32.663  21.378 -20.934  0.00  0.00     0.000 A 
ATOM     23  C   UNL d   1      32.738  22.740 -21.366  0.00  0.00     0.000 C 
ATOM     24  C   UNL d   1      32.726  20.573 -21.096  0.00  0.00     0.001 A 
ENDBRANCH  17  18
ENDBRANCH  16  17
ENDBRANCH   2  16
TORSDOF 5
ENDMDL
MODEL 3
REMARK VINA RESULT:      -1.2      1.679      4.186
REMARK  5 active torsions:
REMARK  status: ('A' for Active; 'I' for Inactive)
REMARK    1  A    between atoms: N_2  and  S_1 
REMARK    2  A    between atoms: C_5  and  S_1 
REMARK    3  A    between atoms: S_8  and  C_3 
REMARK    4  A    between atoms: C_13  and  S_8 
REMARK    5  A    between atoms: C_15  and  C_13 
ROOT
ATOM      1  N   UNL d   1      32.512  16.788 -23.897  0.00  0.00    -0.208 N 
ATOM      2  C   UNL d   1      31.919  16.251 -23.672  0.00  0.00     0.189 A 
ATOM      3  N   UNL d   1      32.269  15.658 -23.212  0.00  0.00    -0.219 NA
ATOM      4  C   UNL d   1      33.232  16.523 -23.575  0.00  0.00     0.114 A 
ATOM      5  C   UNL d   1      33.078  15.829 -23.155  0.00  0.00     0.121 A 
ENDROOT
BRANCH   1   6
ATOM      6  S   UNL d   1      32.402  17.466 -24.362  0.00  0.00     0.273 S 
ATOM      7  O   UNL d   1      32.259  17.967 -25.005  0.00  0.00    -0.200 OA
ATOM      8  O   UNL d   1      32.285  16.966 -25.000  0.00  0.00    -0.200 OA
BRANCH   6   9
ATOM      9  C   UNL d   1      32.517  17.986 -23.730  0.00  0.00     0.104 A 
ATOM     10  C   UNL d   1      33.128  17.849 -23.202  0.00  0.00     0.015 A 
ATOM     11  C   UNL d   1      33.241  18.368 -22.573  0.00  0.00     0.030 A 
ATOM     12  C   UNL d   1      32.741  19.020 -22.480  0.00  0.00     0.140 A 
ATOM     13  C   UNL d   1      32.128  19.155 -23.012  0.00  0.00     0.030 A 
ATOM     14  F   UNL d   1      32.855  19.541 -21.848  0.00  0.00    -0.204 F 
ATOM     15  C   UNL d   1      32.016  18.632 -23.643  0.00  0.00     0.015 A 
ENDBRANCH   6   9
ENDBRANCH   1   6
BRANCH   2  16
ATOM     16  S   UNL d   1      31.112  16.302 -23.873  0.00  0.00    -0.049 SA
BRANCH  16  17
ATOM     17  C   UNL d   1      30.612  15.662 -23.727  0.00  0.00     0.038 C 
BRANCH  17  18
ATOM     18  C   UNL d   1      29.796  15.791 -23.630  0.00  0.00     0.007 A 
ATOM     19  C   UNL d   1      29.354  16.165 -24.226  0.00  0.00     0.001 A 
ATOM     20  C   UNL d   1      28.550  16.295 -24.134  0.00  0.00     0.000 A 
ATOM     21  C   UNL d   1      28.176  16.050 -23.442  0.00  0.00     0.000 A 
ATOM     22  C   UNL d   1      28.613  15.677 -22.844  0.00  0.00     0.000 A 
ATOM     23  C   UNL d   1      27.368  16.177 -23.342  0.00  0.00     0.000 C 
ATOM     24  C   UNL d   1      29.420  15.549 -22.940  0.00  0.00     0.001 A 
ENDBRANCH  17  18
ENDBRANCH  16  17
ENDBRANCH   2  16
TORSDOF 5
ENDMDL
MODEL 4
REMARK VINA RESULT:      -0.9      3.067      5.240
REMARK  5 active torsions:
REMARK  status: ('A' for Active; 'I' for Inactive)
REMARK    1  A    between atoms: N_2  and  S_1 
REMARK    2  A    between atoms: C_5  and  S_1 
REMARK    3  A    between atoms: S_8  and  C_3 
REMARK    4  A    between atoms: C_13  and  S_8 
REMARK    5  A    between atoms: C_15  and  C_13 
ROOT
ATOM      1  N   UNL d   1      33.058  20.349 -22.198  0.00  0.00    -0.208 N 
ATOM      2  C   UNL d   1      33.021  19.866 -22.874  0.00  0.00     0.189 A 
ATOM      3  N   UNL d   1      33.134  20.345 -23.540  0.00  0.00    -0.219 NA
ATOM      4  C   UNL d   1      33.195  21.130 -22.450  0.00  0.00     0.114 A 
ATOM      5  C   UNL d   1      33.241  21.123 -23.274  0.00  0.00     0.121 A 
ENDROOT
BRANCH   1   6
ATOM      6  S   UNL d   1      32.974  20.093 -21.414  0.00  0.00     0.273 S 
ATOM      7  O   UNL d   1      32.973  19.621 -20.734  0.00  0.00    -0.200 OA
ATOM      8  O   UNL d   1      33.240  19.359 -21.663  0.00  0.00    -0.200 OA
BRANCH   6   9
ATOM      9  C   UNL d   1      32.703  20.826 -21.145  0.00  0.00     0.104 A 
ATOM     10  C   UNL d   1      33.240  21.368 -20.846  0.00  0.00     0.015 A 
ATOM     11  C   UNL d   1      32.969  22.097 -20.578  0.00  0.00     0.030 A 
ATOM     12  C   UNL d   1      32.162  22.276 -20.612  0.00  0.00     0.140 A 
ATOM     13  C   UNL d   1      31.626  21.730 -20.912  0.00  0.00     0.030 A 
ATOM     14  F   UNL d   1      31.891  23.009 -20.342  0.00  0.00    -0.204 F 
ATOM     15  C   UNL d   1      31.900  20.997 -21.181  0.00  0.00     0.015 A 
ENDBRANCH   6   9
ENDBRANCH   1   6
BRANCH   2  16
ATOM     16  S   UNL d   1      32.892  19.043 -22.880  0.00  0.00    -0.049 SA
BRANCH  16  17
ATOM     17  C   UNL d   1      33.066  18.605 -23.558  0.00  0.00     0.038 C 
BRANCH  17  18
ATOM     18  C   UNL d   1      32.704  17.865 -23.674  0.00  0.00     0.007 A 
ATOM     19  C   UNL d   1      33.149  17.166 -23.612  0.00  0.00     0.001 A 
ATOM     20  C   UNL d   1      32.797  16.433 -23.725  0.00  0.00     0.000 A 
ATOM     21  C   UNL d   1      31.993  16.393 -23.903  0.00  0.00     0.000 A 
ATOM     22  C   UNL d   1      31.547  17.089 -23.965  0.00  0.00     0.000 A 
ATOM     23  C   UNL d   1      31.633  15.661 -24.018  0.00  0.00     0.000 C 
ATOM     24  C   UNL d   1      31.903  17.821 -23.851  0.00  0.00     0.001 A 
ENDBRANCH  17  18
ENDBRANCH  16  17
ENDBRANCH   2  16
TORSDOF 5
ENDMDL
MODEL 5
REMARK VINA RESULT:       0.0      3.481      5.702
REMARK  5 active torsions:
REMARK  status: ('A' for Active; 'I' for Inactive)
REMARK    1  A    between atoms: N_2  and  S_1 
REMARK    2  A    between atoms: C_5  and  S_1 
REMARK    3  A    between atoms: S_8  and  C_3 
REMARK    4  A    between atoms: C_13  and  S_8 
REMARK    5  A    between atoms: C_15  and  C_13 
ROOT
ATOM      1  N   UNL d   1      33.061  20.965 -21.379  0.00  0.00    -0.208 N 
ATOM      2  C   UNL d   1      33.036  20.157 -21.573  0.00  0.00     0.189 A 
ATOM      3  N   UNL d   1      33.148  19.721 -20.878  0.00  0.00    -0.219 NA
ATOM      4  C   UNL d   1      33.188  21.026 -20.559  0.00  0.00     0.114 A 
ATOM      5  C   UNL d   1      33.241  20.260 -20.256  0.00  0.00     0.121 A 
ENDROOT
BRANCH   1   6
ATOM      6  S   UNL d   1      32.973  21.594 -21.911  0.00  0.00     0.273 S 
ATOM      7  O   UNL d   1      32.971  22.047 -22.604  0.00  0.00    -0.200 OA
ATOM      8  O   UNL d   1      33.241  21.089 -22.497  0.00  0.00    -0.200 OA
BRANCH   6   9
ATOM      9  C   UNL d   1      32.701  22.119 -21.333  0.00  0.00     0.104 A 
ATOM     10  C   UNL d   1      33.240  22.481 -20.833  0.00  0.00     0.015 A 
ATOM     11  C   UNL d   1      32.967  23.003 -20.258  0.00  0.00     0.030 A 
ATOM     12  C   UNL d   1      32.158  23.158 -20.190  0.00  0.00     0.140 A 
ATOM     13  C   UNL d   1      31.620  22.793 -20.693  0.00  0.00     0.030 A 
ATOM     14  F   UNL d   1      31.885  23.682 -19.613  0.00  0.00    -0.204 F 
ATOM     15  C   UNL d   1      31.896  22.268 -21.270  0.00  0.00     0.015 A 
ENDBRANCH   6   9
ENDBRANCH   1   6
BRANCH   2  16
ATOM     16  S   UNL d   1      32.920  19.842 -22.335  0.00  0.00    -0.049 SA
BRANCH  16  17
ATOM     17  C   UNL d   1      33.139  19.062 -22.494  0.00  0.00     0.038 C 
BRANCH  17  18
ATOM     18  C   UNL d   1      32.732  18.630 -23.077  0.00  0.00     0.007 A 
ATOM     19  C   UNL d   1      32.463  19.005 -23.768  0.00  0.00     0.001 A 
ATOM     20  C   UNL d   1      32.060  18.583 -24.345  0.00  0.00     0.000 A 
ATOM     21  C   UNL d   1      31.923  17.777 -24.237  0.00  0.00     0.000 A 
ATOM     22  C   UNL d   1      32.190  17.400 -23.549  0.00  0.00     0.000 A 
ATOM     23  C   UNL d   1      31.520  17.347 -24.811  0.00  0.00     0.000 C 
ATOM     24  C   UNL d   1      32.593  17.827 -22.972  0.00  0.00     0.001 A 
ENDBRANCH  17  18
ENDBRANCH  16  17
ENDBRANCH   2  16
TORSDOF 5
ENDMDL
