MODEL 1
REMARK VINA RESULT:      -3.6      0.000      0.000
REMARK  7 active torsions:
REMARK  status: ('A' for Active; 'I' for Inactive)
REMARK    1  A    between atoms: N_2  and  S_1 
REMARK    2  A    between atoms: C_3  and  S_1 
REMARK       I    between atoms: C_4  and  N_9 
REMARK    3  A    between atoms: C_10  and  C_4 
REMARK    4  A    between atoms: C_12  and  C_6 
REMARK    5  A    between atoms: N_9  and  C_12 
REMARK    6  A    between atoms: O_22  and  C_19 
REMARK    7  A    between atoms: C_25  and  O_22 
ROOT
ATOM      1  N   UNL d   1      59.084  -0.676  28.972  0.00  0.00    -0.229 N 
ATOM      2  C   UNL d   1      58.599  -0.308  29.531  0.00  0.00     0.094 A 
ATOM      3  C   UNL d   1      59.373  -0.090  28.455  0.00  0.00     0.092 A 
ATOM      4  C   UNL d   1      58.593   0.500  29.355  0.00  0.00     0.021 A 
ATOM      5  C   UNL d   1      59.068   0.629  28.695  0.00  0.00     0.021 A 
ENDROOT
BRANCH   2   6
ATOM      6  C   UNL d   1      58.232  -0.756  30.119  0.00  0.00     0.120 C 
BRANCH   6   7
ATOM      7  N   UNL d   1      57.837  -0.380  30.730  0.00  0.00    -0.205 NA
ATOM      8  C   UNL d   1      57.350  -0.813  31.217  0.00  0.00     0.279 C 
ATOM      9  O   UNL d   1      57.245  -1.626  31.108  0.00  0.00    -0.265 OA
BRANCH   8  10
ATOM     10  C   UNL d   1      56.943  -0.432  31.845  0.00  0.00     0.058 A 
ATOM     11  C   UNL d   1      56.159  -0.632  32.007  0.00  0.00     0.007 A 
ATOM     12  C   UNL d   1      55.757  -0.265  32.617  0.00  0.00     0.025 A 
ATOM     13  C   UNL d   1      56.140   0.313  33.074  0.00  0.00     0.100 A 
ATOM     14  C   UNL d   1      56.923   0.512  32.912  0.00  0.00     0.025 A 
ATOM     15  C   UNL d   1      57.319   0.134  32.293  0.00  0.00     0.007 A 
BRANCH  13  16
ATOM     16  O   UNL d   1      55.728   0.682  33.691  0.00  0.00    -0.305 OA
BRANCH  16  17
ATOM     17  C   UNL d   1      55.595   0.289  34.404  0.00  0.00     0.123 C 
ATOM     18  C   UNL d   1      55.124   0.636  34.984  0.00  0.00     0.029 C 
ENDBRANCH  16  17
ENDBRANCH  13  16
ENDBRANCH   8  10
ENDBRANCH   6   7
ENDBRANCH   2   6
BRANCH   1  19
ATOM     19  S   UNL d   1      59.250  -1.484  28.936  0.00  0.00     0.277 S 
ATOM     20  O   UNL d   1      59.961  -1.356  29.339  0.00  0.00    -0.199 OA
ATOM     21  O   UNL d   1      58.537  -1.609  28.531  0.00  0.00    -0.199 OA
BRANCH  19  22
ATOM     22  C   UNL d   1      59.420  -2.298  28.901  0.00  0.00     0.133 A 
ATOM     23  S   UNL d   1      58.984  -2.938  28.606  0.00  0.00    -0.074 SA
ATOM     24  C   UNL d   1      59.432  -3.615  28.721  0.00  0.00     0.036 A 
ATOM     25  C   UNL d   1      60.137  -3.392  29.083  0.00  0.00     0.008 A 
ATOM     26  C   UNL d   1      60.127  -2.586  29.192  0.00  0.00     0.020 A 
ENDBRANCH  19  22
ENDBRANCH   1  19
TORSDOF 7
ENDMDL
