MODEL 1
REMARK VINA RESULT:      -7.4      0.000      0.000
REMARK  3 active torsions:
REMARK  status: ('A' for Active; 'I' for Inactive)
REMARK    1  A    between atoms: C_4  and  C_1 
REMARK    2  A    between atoms: N_7  and  C_4 
REMARK    3  A    between atoms: C_9  and  N_7 
ROOT
ATOM      1  C   UNL d   1     -48.104  13.470  22.775  0.00  0.00     0.171 C 
ATOM      2  S   UNL d   1     -48.164  12.966  22.124  0.00  0.00    -0.054 SA
ENDROOT
BRANCH   1   3
ATOM      3  C   UNL d   1     -48.733  13.968  22.968  0.00  0.00     0.191 A 
ATOM      4  N   UNL d   1     -49.497  13.723  23.166  0.00  0.00    -0.223 NA
ATOM      5  C   UNL d   1     -49.948  14.401  23.317  0.00  0.00     0.101 A 
ATOM      6  C   UNL d   1     -50.737  14.507  23.537  0.00  0.00     0.021 A 
ATOM      7  C   UNL d   1     -49.457  15.061  23.211  0.00  0.00     0.101 A 
ATOM      8  C   UNL d   1     -51.035  15.262  23.650  0.00  0.00     0.002 A 
ATOM      9  C   UNL d   1     -50.544  15.922  23.544  0.00  0.00     0.002 A 
ATOM     10  C   UNL d   1     -49.761  15.821  23.326  0.00  0.00     0.021 A 
ATOM     11  N   UNL d   1     -48.707  14.786  22.995  0.00  0.00    -0.223 NA
ENDBRANCH   1   3
BRANCH   1  12
ATOM     12  N   UNL d   1     -47.420  13.477  23.233  0.00  0.00    -0.232 NA
BRANCH  12  13
ATOM     13  C   UNL d   1     -46.961  12.790  23.301  0.00  0.00     0.083 A 
ATOM     14  C   UNL d   1     -46.180  12.790  23.042  0.00  0.00     0.020 A 
ATOM     15  C   UNL d   1     -45.719  12.113  23.106  0.00  0.00     0.013 A 
ATOM     16  C   UNL d   1     -46.051  11.425  23.437  0.00  0.00     0.058 A 
ATOM     17  C   UNL d   1     -46.834  11.423  23.698  0.00  0.00     0.013 A 
ATOM     18 CL   UNL d   1     -45.596  10.745  23.505  0.00  0.00    -0.082 Cl
ATOM     19  C   UNL d   1     -47.285  12.111  23.627  0.00  0.00     0.020 A 
ENDBRANCH  12  13
ENDBRANCH   1  12
TORSDOF 3
ENDMDL
MODEL 2
REMARK VINA RESULT:      -6.6      1.482      1.941
REMARK  3 active torsions:
REMARK  status: ('A' for Active; 'I' for Inactive)
REMARK    1  A    between atoms: C_4  and  C_1 
REMARK    2  A    between atoms: N_7  and  C_4 
REMARK    3  A    between atoms: C_9  and  N_7 
ROOT
ATOM      1  C   UNL d   1     -47.817  12.456  23.341  0.00  0.00     0.171 C 
ATOM      2  S   UNL d   1     -47.636  11.665  23.495  0.00  0.00    -0.054 SA
ENDROOT
BRANCH   1   3
ATOM      3  C   UNL d   1     -48.568  12.658  23.063  0.00  0.00     0.191 A 
ATOM      4  N   UNL d   1     -48.929  12.349  22.387  0.00  0.00    -0.223 NA
ATOM      5  C   UNL d   1     -49.674  12.702  22.315  0.00  0.00     0.101 A 
ATOM      6  C   UNL d   1     -50.279  12.617  21.759  0.00  0.00     0.021 A 
ATOM      7  C   UNL d   1     -49.768  13.228  22.949  0.00  0.00     0.101 A 
ATOM      8  C   UNL d   1     -50.971  13.050  21.834  0.00  0.00     0.002 A 
ATOM      9  C   UNL d   1     -51.064  13.576  22.468  0.00  0.00     0.002 A 
ATOM     10  C   UNL d   1     -50.466  13.663  23.021  0.00  0.00     0.021 A 
ATOM     11  N   UNL d   1     -49.080  13.196  23.408  0.00  0.00    -0.223 NA
ENDBRANCH   1   3
BRANCH   1  12
ATOM     12  N   UNL d   1     -47.254  13.043  23.464  0.00  0.00    -0.232 NA
BRANCH  12  13
ATOM     13  C   UNL d   1     -46.532  13.013  23.059  0.00  0.00     0.083 A 
ATOM     14  C   UNL d   1     -46.285  13.658  22.611  0.00  0.00     0.020 A 
ATOM     15  C   UNL d   1     -45.570  13.637  22.207  0.00  0.00     0.013 A 
ATOM     16  C   UNL d   1     -45.096  12.955  22.255  0.00  0.00     0.058 A 
ATOM     17  C   UNL d   1     -45.342  12.306  22.704  0.00  0.00     0.013 A 
ATOM     18 CL   UNL d   1     -44.381  12.925  21.854  0.00  0.00    -0.082 Cl
ATOM     19  C   UNL d   1     -46.063  12.343  23.104  0.00  0.00     0.020 A 
ENDBRANCH  12  13
ENDBRANCH   1  12
TORSDOF 3
ENDMDL
MODEL 3
REMARK VINA RESULT:      -6.5      1.826      4.477
REMARK  3 active torsions:
REMARK  status: ('A' for Active; 'I' for Inactive)
REMARK    1  A    between atoms: C_4  and  C_1 
REMARK    2  A    between atoms: N_7  and  C_4 
REMARK    3  A    between atoms: C_9  and  N_7 
ROOT
ATOM      1  C   UNL d   1     -48.096  13.370  22.633  0.00  0.00     0.171 C 
ATOM      2  S   UNL d   1     -48.656  13.165  22.061  0.00  0.00    -0.054 SA
ENDROOT
BRANCH   1   3
ATOM      3  C   UNL d   1     -47.507  12.830  22.840  0.00  0.00     0.191 A 
ATOM      4  N   UNL d   1     -47.626  12.122  23.249  0.00  0.00    -0.223 NA
ATOM      5  C   UNL d   1     -46.890  11.755  23.339  0.00  0.00     0.101 A 
ATOM      6  C   UNL d   1     -46.660  11.046  23.694  0.00  0.00     0.021 A 
ATOM      7  C   UNL d   1     -46.320  12.241  22.984  0.00  0.00     0.101 A 
ATOM      8  C   UNL d   1     -45.872  10.823  23.698  0.00  0.00     0.002 A 
ATOM      9  C   UNL d   1     -45.302  11.309  23.343  0.00  0.00     0.002 A 
ATOM     10  C   UNL d   1     -45.525  12.014  22.989  0.00  0.00     0.021 A 
ATOM     11  N   UNL d   1     -46.708  12.905  22.678  0.00  0.00    -0.223 NA
ENDBRANCH   1   3
BRANCH   1  12
ATOM     12  N   UNL d   1     -48.123  14.107  22.995  0.00  0.00    -0.232 NA
BRANCH  12  13
ATOM     13  C   UNL d   1     -48.844  14.512  23.056  0.00  0.00     0.083 A 
ATOM     14  C   UNL d   1     -49.417  14.253  23.586  0.00  0.00     0.020 A 
ATOM     15  C   UNL d   1     -50.134  14.648  23.653  0.00  0.00     0.013 A 
ATOM     16  C   UNL d   1     -50.275  15.316  23.177  0.00  0.00     0.058 A 
ATOM     17  C   UNL d   1     -49.701  15.578  22.644  0.00  0.00     0.013 A 
ATOM     18 CL   UNL d   1     -50.989  15.717  23.237  0.00  0.00    -0.082 Cl
ATOM     19  C   UNL d   1     -48.986  15.170  22.589  0.00  0.00     0.020 A 
ENDBRANCH  12  13
ENDBRANCH   1  12
TORSDOF 3
ENDMDL
MODEL 4
REMARK VINA RESULT:      -6.0      2.488      5.037
REMARK  3 active torsions:
REMARK  status: ('A' for Active; 'I' for Inactive)
REMARK    1  A    between atoms: C_4  and  C_1 
REMARK    2  A    between atoms: N_7  and  C_4 
REMARK    3  A    between atoms: C_9  and  N_7 
ROOT
ATOM      1  C   UNL d   1     -46.894  11.901  23.515  0.00  0.00     0.171 C 
ATOM      2  S   UNL d   1     -46.927  12.726  23.504  0.00  0.00    -0.054 SA
ENDROOT
BRANCH   1   3
ATOM      3  C   UNL d   1     -46.164  11.519  23.481  0.00  0.00     0.191 A 
ATOM      4  N   UNL d   1     -46.021  10.735  23.698  0.00  0.00    -0.223 NA
ATOM      5  C   UNL d   1     -45.217  10.581  23.576  0.00  0.00     0.101 A 
ATOM      6  C   UNL d   1     -44.754   9.907  23.691  0.00  0.00     0.021 A 
ATOM      7  C   UNL d   1     -44.868  11.274  23.283  0.00  0.00     0.101 A 
ATOM      8  C   UNL d   1     -43.954   9.921  23.516  0.00  0.00     0.002 A 
ATOM      9  C   UNL d   1     -43.606  10.614  23.224  0.00  0.00     0.002 A 
ATOM     10  C   UNL d   1     -44.060  11.286  23.109  0.00  0.00     0.021 A 
ATOM     11  N   UNL d   1     -45.459  11.851  23.227  0.00  0.00    -0.223 NA
ENDBRANCH   1   3
BRANCH   1  12
ATOM     12  N   UNL d   1     -47.587  11.459  23.561  0.00  0.00    -0.232 NA
BRANCH  12  13
ATOM     13  C   UNL d   1     -48.284  11.747  23.218  0.00  0.00     0.083 A 
ATOM     14  C   UNL d   1     -48.817  12.179  23.672  0.00  0.00     0.020 A 
ATOM     15  C   UNL d   1     -49.510  12.468  23.340  0.00  0.00     0.013 A 
ATOM     16  C   UNL d   1     -49.669  12.319  22.537  0.00  0.00     0.058 A 
ATOM     17  C   UNL d   1     -49.136  11.886  22.079  0.00  0.00     0.013 A 
ATOM     18 CL   UNL d   1     -50.360  12.605  22.198  0.00  0.00    -0.082 Cl
ATOM     19  C   UNL d   1     -48.444  11.602  22.427  0.00  0.00     0.020 A 
ENDBRANCH  12  13
ENDBRANCH   1  12
TORSDOF 3
ENDMDL
MODEL 5
REMARK VINA RESULT:      -5.8      9.283     10.173
REMARK  3 active torsions:
REMARK  status: ('A' for Active; 'I' for Inactive)
REMARK    1  A    between atoms: C_4  and  C_1 
REMARK    2  A    between atoms: N_7  and  C_4 
REMARK    3  A    between atoms: C_9  and  N_7 
ROOT
ATOM      1  C   UNL d   1     -39.532  14.825  19.733  0.00  0.00     0.171 C 
ATOM      2  S   UNL d   1     -39.138  15.492  19.447  0.00  0.00    -0.054 SA
ENDROOT
BRANCH   1   3
ATOM      3  C   UNL d   1     -39.244  14.434  20.400  0.00  0.00     0.191 A 
ATOM      4  N   UNL d   1     -38.582  13.939  20.419  0.00  0.00    -0.223 NA
ATOM      5  C   UNL d   1     -38.493  13.666  21.195  0.00  0.00     0.101 A 
ATOM      6  C   UNL d   1     -37.941  13.163  21.549  0.00  0.00     0.021 A 
ATOM      7  C   UNL d   1     -39.102  13.995  21.651  0.00  0.00     0.101 A 
ATOM      8  C   UNL d   1     -37.994  12.990  22.347  0.00  0.00     0.002 A 
ATOM      9  C   UNL d   1     -38.603  13.319  22.803  0.00  0.00     0.002 A 
ATOM     10  C   UNL d   1     -39.153  13.818  22.457  0.00  0.00     0.021 A 
ATOM     11  N   UNL d   1     -39.563  14.469  21.154  0.00  0.00    -0.223 NA
ENDBRANCH   1   3
BRANCH   1  12
ATOM     12  N   UNL d   1     -40.210  14.550  19.357  0.00  0.00    -0.232 NA
BRANCH  12  13
ATOM     13  C   UNL d   1     -40.434  14.866  18.625  0.00  0.00     0.083 A 
ATOM     14  C   UNL d   1     -40.288  14.445  17.933  0.00  0.00     0.020 A 
ATOM     15  C   UNL d   1     -40.506  14.752  17.203  0.00  0.00     0.013 A 
ATOM     16  C   UNL d   1     -40.878  15.495  17.170  0.00  0.00     0.058 A 
ATOM     17  C   UNL d   1     -41.026  15.920  17.863  0.00  0.00     0.013 A 
ATOM     18 CL   UNL d   1     -41.100  15.809  16.444  0.00  0.00    -0.082 Cl
ATOM     19  C   UNL d   1     -40.800  15.598  18.588  0.00  0.00     0.020 A 
ENDBRANCH  12  13
ENDBRANCH   1  12
TORSDOF 3
ENDMDL
MODEL 6
REMARK VINA RESULT:      -5.6      9.067      9.471
REMARK  3 active torsions:
REMARK  status: ('A' for Active; 'I' for Inactive)
REMARK    1  A    between atoms: C_4  and  C_1 
REMARK    2  A    between atoms: N_7  and  C_4 
REMARK    3  A    between atoms: C_9  and  N_7 
ROOT
ATOM      1  C   UNL d   1     -39.995  14.660  20.441  0.00  0.00     0.171 C 
ATOM      2  S   UNL d   1     -40.600  14.420  20.950  0.00  0.00    -0.054 SA
ENDROOT
BRANCH   1   3
ATOM      3  C   UNL d   1     -40.163  14.809  19.647  0.00  0.00     0.191 A 
ATOM      4  N   UNL d   1     -40.488  15.507  19.346  0.00  0.00    -0.223 NA
ATOM      5  C   UNL d   1     -40.562  15.418  18.527  0.00  0.00     0.101 A 
ATOM      6  C   UNL d   1     -40.847  15.920  17.936  0.00  0.00     0.021 A 
ATOM      7  C   UNL d   1     -40.282  14.664  18.327  0.00  0.00     0.101 A 
ATOM      8  C   UNL d   1     -40.852  15.675  17.154  0.00  0.00     0.002 A 
ATOM      9  C   UNL d   1     -40.571  14.921  16.954  0.00  0.00     0.002 A 
ATOM     10  C   UNL d   1     -40.288  14.420  17.537  0.00  0.00     0.021 A 
ATOM     11  N   UNL d   1     -40.036  14.293  19.024  0.00  0.00    -0.223 NA
ENDBRANCH   1   3
BRANCH   1  12
ATOM     12  N   UNL d   1     -39.228  14.752  20.722  0.00  0.00    -0.232 NA
BRANCH  12  13
ATOM     13  C   UNL d   1     -39.008  14.405  21.442  0.00  0.00     0.083 A 
ATOM     14  C   UNL d   1     -38.691  13.645  21.452  0.00  0.00     0.020 A 
ATOM     15  C   UNL d   1     -38.470  13.294  22.161  0.00  0.00     0.013 A 
ATOM     16  C   UNL d   1     -38.570  13.716  22.871  0.00  0.00     0.058 A 
ATOM     17  C   UNL d   1     -38.887  14.478  22.864  0.00  0.00     0.013 A 
ATOM     18 CL   UNL d   1     -38.351  13.372  23.584  0.00  0.00    -0.082 Cl
ATOM     19  C   UNL d   1     -39.104  14.817  22.144  0.00  0.00     0.020 A 
ENDBRANCH  12  13
ENDBRANCH   1  12
TORSDOF 3
ENDMDL
