MODEL 1
REMARK VINA RESULT:      -1.7      0.000      0.000
REMARK  5 active torsions:
REMARK  status: ('A' for Active; 'I' for Inactive)
REMARK    1  A    between atoms: C_3  and  C_1 
REMARK    2  A    between atoms: N_2  and  C_10 
REMARK    3  A    between atoms: N_6  and  C_3 
REMARK    4  A    between atoms: C_11  and  C_5 
REMARK    5  A    between atoms: C_20  and  N_7 
ROOT
ATOM      1  C   UNL d   1      32.713  18.517 -23.926  0.00  0.00     0.126 A 
ATOM      2  O   UNL d   1      32.093  18.162 -24.340  0.00  0.00    -0.305 OA
ATOM      3  C   UNL d   1      32.003  17.386 -24.059  0.00  0.00     0.100 A 
ATOM      4  C   UNL d   1      33.006  17.962 -23.389  0.00  0.00     0.029 A 
ATOM      5  C   UNL d   1      32.576  17.267 -23.465  0.00  0.00     0.027 A 
ENDROOT
BRANCH   1   6
ATOM      6  C   UNL d   1      33.007  19.322 -24.029  0.00  0.00     0.143 C 
ATOM      7  S   UNL d   1      33.241  19.577 -24.778  0.00  0.00    -0.057 SA
BRANCH   6   8
ATOM      8  N   UNL d   1      33.046  19.828 -23.354  0.00  0.00    -0.291 N 
ATOM      9  C   UNL d   1      33.053  19.530 -22.590  0.00  0.00     0.100 A 
ATOM     10  C   UNL d   1      33.092  20.045 -21.957  0.00  0.00     0.100 A 
ATOM     11  N   UNL d   1      33.124  20.846 -22.053  0.00  0.00    -0.301 N 
ATOM     12  C   UNL d   1      33.118  21.174 -22.829  0.00  0.00     0.100 A 
ATOM     13  C   UNL d   1      33.079  20.659 -23.483  0.00  0.00     0.100 A 
BRANCH  11  14
ATOM     14  C   UNL d   1      33.163  21.349 -21.394  0.00  0.00     0.064 A 
ATOM     15  C   UNL d   1      33.201  22.155 -21.512  0.00  0.00     0.018 A 
ATOM     16  C   UNL d   1      33.240  22.678 -20.876  0.00  0.00     0.002 A 
ATOM     17  C   UNL d   1      33.241  22.380 -20.111  0.00  0.00     0.000 A 
ATOM     18  C   UNL d   1      33.202  21.559 -19.983  0.00  0.00     0.002 A 
ATOM     19  C   UNL d   1      33.163  21.051 -20.629  0.00  0.00     0.018 A 
ENDBRANCH  11  14
ENDBRANCH   6   8
ENDBRANCH   1   6
BRANCH   3  20
ATOM     20  C   UNL d   1      31.478  16.778 -24.265  0.00  0.00     0.024 A 
ATOM     21  C   UNL d   1      30.697  16.787 -23.983  0.00  0.00     0.025 A 
ATOM     22  C   UNL d   1      30.175  16.182 -24.188  0.00  0.00     0.127 A 
ATOM     23  C   UNL d   1      30.423  15.554 -24.679  0.00  0.00     0.024 A 
ATOM     24  C   UNL d   1      31.203  15.555 -24.954  0.00  0.00     0.002 A 
ATOM     25  C   UNL d   1      31.725  16.160 -24.749  0.00  0.00     0.002 A 
BRANCH  22  26
ATOM     26  N   UNL d   1      29.413  16.202 -23.906  0.00  0.00    -0.114 N 
ATOM     27  O   UNL d   1      28.750  16.543 -24.301  0.00  0.00    -0.532 OA
ATOM     28  O   UNL d   1      29.191  15.880 -23.177  0.00  0.00    -0.532 OA
ENDBRANCH  22  26
ENDBRANCH   3  20
TORSDOF 5
ENDMDL
MODEL 2
REMARK VINA RESULT:      -0.5      2.352      5.986
REMARK  5 active torsions:
REMARK  status: ('A' for Active; 'I' for Inactive)
REMARK    1  A    between atoms: C_3  and  C_1 
REMARK    2  A    between atoms: N_2  and  C_10 
REMARK    3  A    between atoms: N_6  and  C_3 
REMARK    4  A    between atoms: C_11  and  C_5 
REMARK    5  A    between atoms: C_20  and  N_7 
ROOT
ATOM      1  C   UNL d   1      33.003  20.620 -22.719  0.00  0.00     0.126 A 
ATOM      2  O   UNL d   1      33.040  21.436 -22.601  0.00  0.00    -0.305 OA
ATOM      3  C   UNL d   1      33.018  21.582 -21.784  0.00  0.00     0.100 A 
ATOM      4  C   UNL d   1      32.959  20.261 -21.976  0.00  0.00     0.029 A 
ATOM      5  C   UNL d   1      32.968  20.845 -21.400  0.00  0.00     0.027 A 
ENDROOT
BRANCH   1   6
ATOM      6  C   UNL d   1      33.010  20.208 -23.478  0.00  0.00     0.143 C 
ATOM      7  S   UNL d   1      33.241  20.613 -24.158  0.00  0.00    -0.057 SA
BRANCH   6   8
ATOM      8  N   UNL d   1      32.777  19.396 -23.500  0.00  0.00    -0.291 N 
ATOM      9  C   UNL d   1      33.241  18.805 -23.172  0.00  0.00     0.100 A 
ATOM     10  C   UNL d   1      32.990  18.029 -23.209  0.00  0.00     0.100 A 
ATOM     11  N   UNL d   1      32.294  17.816 -23.559  0.00  0.00    -0.301 N 
ATOM     12  C   UNL d   1      31.802  18.408 -23.903  0.00  0.00     0.100 A 
ATOM     13  C   UNL d   1      32.047  19.203 -23.872  0.00  0.00     0.100 A 
BRANCH  11  14
ATOM     14  C   UNL d   1      32.060  17.020 -23.585  0.00  0.00     0.064 A 
ATOM     15  C   UNL d   1      31.264  16.841 -23.571  0.00  0.00     0.018 A 
ATOM     16  C   UNL d   1      31.004  16.059 -23.595  0.00  0.00     0.002 A 
ATOM     17  C   UNL d   1      31.556  15.453 -23.633  0.00  0.00     0.000 A 
ATOM     18  C   UNL d   1      32.368  15.629 -23.648  0.00  0.00     0.002 A 
ATOM     19  C   UNL d   1      32.612  16.414 -23.623  0.00  0.00     0.018 A 
ENDBRANCH  11  14
ENDBRANCH   6   8
ENDBRANCH   1   6
BRANCH   3  20
ATOM     20  C   UNL d   1      33.037  22.286 -21.345  0.00  0.00     0.024 A 
ATOM     21  C   UNL d   1      32.882  22.272 -20.529  0.00  0.00     0.025 A 
ATOM     22  C   UNL d   1      32.901  22.972 -20.092  0.00  0.00     0.127 A 
ATOM     23  C   UNL d   1      33.076  23.700 -20.461  0.00  0.00     0.024 A 
ATOM     24  C   UNL d   1      33.229  23.701 -21.274  0.00  0.00     0.002 A 
ATOM     25  C   UNL d   1      33.210  23.002 -21.711  0.00  0.00     0.002 A 
BRANCH  22  26
ATOM     26  N   UNL d   1      32.748  22.947 -19.294  0.00  0.00    -0.114 N 
ATOM     27  O   UNL d   1      33.240  22.591 -18.708  0.00  0.00    -0.532 OA
ATOM     28  O   UNL d   1      32.071  23.277 -18.953  0.00  0.00    -0.532 OA
ENDBRANCH  22  26
ENDBRANCH   3  20
TORSDOF 5
ENDMDL
MODEL 3
REMARK VINA RESULT:      -0.1      1.160      1.715
REMARK  5 active torsions:
REMARK  status: ('A' for Active; 'I' for Inactive)
REMARK    1  A    between atoms: C_3  and  C_1 
REMARK    2  A    between atoms: N_2  and  C_10 
REMARK    3  A    between atoms: N_6  and  C_3 
REMARK    4  A    between atoms: C_11  and  C_5 
REMARK    5  A    between atoms: C_20  and  N_7 
ROOT
ATOM      1  C   UNL d   1      33.006  20.244 -24.370  0.00  0.00     0.126 A 
ATOM      2  O   UNL d   1      32.670  19.688 -23.862  0.00  0.00    -0.305 OA
ATOM      3  C   UNL d   1      32.667  18.952 -24.247  0.00  0.00     0.100 A 
ATOM      4  C   UNL d   1      33.211  19.854 -25.068  0.00  0.00     0.029 A 
ATOM      5  C   UNL d   1      33.006  19.062 -24.999  0.00  0.00     0.027 A 
ENDROOT
BRANCH   1   6
ATOM      6  C   UNL d   1      33.126  21.084 -24.208  0.00  0.00     0.143 C 
ATOM      7  S   UNL d   1      33.241  21.607 -24.835  0.00  0.00    -0.057 SA
BRANCH   6   8
ATOM      8  N   UNL d   1      33.121  21.346 -23.405  0.00  0.00    -0.291 N 
ATOM      9  C   UNL d   1      33.241  20.828 -22.781  0.00  0.00     0.100 A 
ATOM     10  C   UNL d   1      33.231  21.111 -22.015  0.00  0.00     0.100 A 
ATOM     11  N   UNL d   1      33.105  21.890 -21.843  0.00  0.00    -0.301 N 
ATOM     12  C   UNL d   1      32.979  22.440 -22.470  0.00  0.00     0.100 A 
ATOM     13  C   UNL d   1      32.988  22.163 -23.256  0.00  0.00     0.100 A 
BRANCH  11  14
ATOM     14  C   UNL d   1      33.099  22.154 -21.057  0.00  0.00     0.064 A 
ATOM     15  C   UNL d   1      33.064  21.606 -20.455  0.00  0.00     0.018 A 
ATOM     16  C   UNL d   1      33.057  21.841 -19.664  0.00  0.00     0.002 A 
ATOM     17  C   UNL d   1      33.085  22.641 -19.483  0.00  0.00     0.000 A 
ATOM     18  C   UNL d   1      33.121  23.205 -20.092  0.00  0.00     0.002 A 
ATOM     19  C   UNL d   1      33.128  22.955 -20.876  0.00  0.00     0.018 A 
ENDBRANCH  11  14
ENDBRANCH   6   8
ENDBRANCH   1   6
BRANCH   3  20
ATOM     20  C   UNL d   1      32.401  18.202 -24.011  0.00  0.00     0.024 A 
ATOM     21  C   UNL d   1      31.627  17.959 -24.188  0.00  0.00     0.025 A 
ATOM     22  C   UNL d   1      31.363  17.214 -23.954  0.00  0.00     0.127 A 
ATOM     23  C   UNL d   1      31.867  16.695 -23.537  0.00  0.00     0.024 A 
ATOM     24  C   UNL d   1      32.635  16.948 -23.366  0.00  0.00     0.002 A 
ATOM     25  C   UNL d   1      32.900  17.693 -23.600  0.00  0.00     0.002 A 
BRANCH  22  26
ATOM     26  N   UNL d   1      30.603  16.986 -24.133  0.00  0.00    -0.114 N 
ATOM     27  O   UNL d   1      30.386  16.359 -24.654  0.00  0.00    -0.532 OA
ATOM     28  O   UNL d   1      29.934  17.354 -23.816  0.00  0.00    -0.532 OA
ENDBRANCH  22  26
ENDBRANCH   3  20
TORSDOF 5
ENDMDL
