MODEL 1
REMARK VINA RESULT:      54.1      0.000      0.000
REMARK  4 active torsions:
REMARK  status: ('A' for Active; 'I' for Inactive)
REMARK    1  A    between atoms: N_7  and  C_4 
REMARK    2  A    between atoms: N_9  and  N_7 
REMARK       I    between atoms: C_8  and  N_9 
REMARK    3  A    between atoms: C_11  and  C_8 
REMARK    4  A    between atoms: C_13  and  C_14 
ROOT
ATOM      1  C   UNL d   1      13.554  13.325  -3.618  0.00  0.00     0.297 C 
ATOM      2  N   UNL d   1      13.763  14.094  -3.826  0.00  0.00    -0.104 NA
ATOM      3  O   UNL d   1      13.096  12.869  -4.131  0.00  0.00    -0.264 OA
ENDROOT
BRANCH   1   4
ATOM      4  C   UNL d   1      13.802  13.013  -2.899  0.00  0.00     0.059 A 
ATOM      5  C   UNL d   1      14.269  13.464  -2.391  0.00  0.00     0.004 A 
ATOM      6  C   UNL d   1      14.517  13.152  -1.670  0.00  0.00    -0.004 A 
ATOM      7  C   UNL d   1      14.298  12.387  -1.458  0.00  0.00    -0.023 A 
ATOM      8  C   UNL d   1      13.826  11.924  -1.965  0.00  0.00    -0.004 A 
ATOM      9  C   UNL d   1      13.582  12.242  -2.680  0.00  0.00     0.004 A 
BRANCH   7  10
ATOM     10  C   UNL d   1      14.553  12.081  -0.730  0.00  0.00     0.019 C 
ATOM     11  C   UNL d   1      15.356  11.967  -0.800  0.00  0.00     0.004 C 
ATOM     12  C   UNL d   1      13.848  12.040  -0.276  0.00  0.00     0.004 C 
ATOM     13  C   UNL d   1      14.810  11.779  -0.014  0.00  0.00     0.004 C 
ENDBRANCH   7  10
ENDBRANCH   1   4
BRANCH   2  14
ATOM     14  N   UNL d   1      13.516  14.406  -4.545  0.00  0.00    -0.127 NA
BRANCH  14  15
ATOM     15  C   UNL d   1      13.789  15.147  -4.791  0.00  0.00     0.178 A 
ATOM     16  N   UNL d   1      13.467  15.509  -5.455  0.00  0.00    -0.240 N 
ATOM     17  C   UNL d   1      13.737  16.241  -5.697  0.00  0.00     0.343 A 
ATOM     18  C   UNL d   1      12.868  15.130  -5.878  0.00  0.00     0.105 C 
ATOM     19  N   UNL d   1      14.336  16.619  -5.274  0.00  0.00    -0.224 N 
ATOM     20  O   UNL d   1      13.412  16.603  -6.365  0.00  0.00    -0.245 OA
ATOM     21  C   UNL d   1      14.670  16.269  -4.605  0.00  0.00     0.271 A 
ATOM     22  C   UNL d   1      14.610  17.360  -5.519  0.00  0.00     0.107 C 
ATOM     23  C   UNL d   1      14.387  15.526  -4.368  0.00  0.00     0.101 A 
ATOM     24  O   UNL d   1      15.263  16.644  -4.186  0.00  0.00    -0.266 OA
ENDBRANCH  14  15
ENDBRANCH   2  14
TORSDOF 4
ENDMDL
