MODEL 1
REMARK VINA RESULT:      31.5      0.000      0.000
REMARK  5 active torsions:
REMARK  status: ('A' for Active; 'I' for Inactive)
REMARK    1  A    between atoms: C_8  and  N_1 
REMARK       I    between atoms: N_2  and  C_4 
REMARK    2  A    between atoms: C_3  and  N_2 
REMARK    3  A    between atoms: N_6  and  C_3 
REMARK    4  A    between atoms: C_4  and  C_12 
REMARK    5  A    between atoms: C_7  and  N_6 
ROOT
ATOM      1  N   UNL d   1      13.591  13.056  -3.362  0.00  0.00    -0.168 NA
ATOM      2  C   UNL d   1      13.267  13.222  -4.102  0.00  0.00     0.282 C 
ATOM      3  O   UNL d   1      12.774  12.678  -4.467  0.00  0.00    -0.265 OA
ENDROOT
BRANCH   2   4
ATOM      4  C   UNL d   1      13.441  13.939  -4.475  0.00  0.00     0.058 A 
ATOM      5  C   UNL d   1      13.255  14.652  -4.092  0.00  0.00     0.006 A 
ATOM      6  C   UNL d   1      13.425  15.364  -4.457  0.00  0.00     0.024 A 
ATOM      7  C   UNL d   1      13.782  15.372  -5.205  0.00  0.00     0.127 A 
ATOM      8  C   UNL d   1      13.964  14.660  -5.580  0.00  0.00     0.024 A 
ATOM      9  C   UNL d   1      13.790  13.943  -5.207  0.00  0.00     0.006 A 
BRANCH   7  10
ATOM     10  N   UNL d   1      13.952  16.089  -5.570  0.00  0.00    -0.114 N 
ATOM     11  O   UNL d   1      14.557  16.570  -5.281  0.00  0.00    -0.532 OA
ATOM     12  O   UNL d   1      13.518  16.324  -6.225  0.00  0.00    -0.532 OA
ENDBRANCH   7  10
ENDBRANCH   2   4
BRANCH   1  13
ATOM     13  C   UNL d   1      13.422  12.345  -2.984  0.00  0.00     0.275 C 
ATOM     14  S   UNL d   1      12.963  11.779  -3.369  0.00  0.00    -0.023 SA
BRANCH  13  15
ATOM     15  N   UNL d   1      13.709  12.195  -2.227  0.00  0.00    -0.369 NA
BRANCH  15  16
ATOM     16  C   UNL d   1      13.985  12.048  -1.483  0.00  0.00     0.180 A 
ATOM     17  C   UNL d   1      14.656  11.969  -1.189  0.00  0.00     0.255 A 
ATOM     18  S   UNL d   1      14.725  11.833  -0.461  0.00  0.00    -0.043 SA
ATOM     19  O   UNL d   1      15.253  12.023  -1.608  0.00  0.00    -0.277 OA
ATOM     20  C   UNL d   1      14.127  11.779  -0.042  0.00  0.00     0.041 A 
ATOM     21  C   UNL d   1      13.457  11.859  -0.336  0.00  0.00     0.043 A 
ENDBRANCH  15  16
ENDBRANCH  13  15
ENDBRANCH   1  13
TORSDOF 5
ENDMDL
