MODEL 1
REMARK VINA RESULT:      73.2      0.000      0.000
REMARK  4 active torsions:
REMARK  status: ('A' for Active; 'I' for Inactive)
REMARK    1  A    between atoms: S_3  and  N_1 
REMARK    2  A    between atoms: C_7  and  C_4 
REMARK    3  A    between atoms: C_11  and  C_5 
REMARK    4  A    between atoms: O_21  and  C_18 
ROOT
ATOM      1  N   UNL d   1      60.970  48.529  51.131  0.00  0.00    -0.155 N 
ATOM      2  N   UNL d   1      61.488  47.930  50.918  0.00  0.00    -0.156 NA
ATOM      3  C   UNL d   1      60.278  48.443  50.692  0.00  0.00     0.102 A 
ATOM      4  C   UNL d   1      61.138  47.455  50.343  0.00  0.00     0.104 A 
ATOM      5  C   UNL d   1      60.372  47.790  50.209  0.00  0.00     0.041 A 
ENDROOT
BRANCH   4   6
ATOM      6  C   UNL d   1      61.450  46.814  49.987  0.00  0.00     0.020 A 
ATOM      7  C   UNL d   1      61.132  46.037  50.157  0.00  0.00     0.004 A 
ATOM      8  C   UNL d   1      61.437  45.378  49.805  0.00  0.00     0.024 A 
ATOM      9  C   UNL d   1      62.075  45.422  49.259  0.00  0.00     0.094 A 
ATOM     10  C   UNL d   1      62.383  46.176  49.094  0.00  0.00     0.024 A 
ATOM     11  C   UNL d   1      62.092  46.866  49.439  0.00  0.00     0.004 A 
BRANCH   9  12
ATOM     12  O   UNL d   1      62.388  44.729  48.895  0.00  0.00    -0.328 OA
ATOM     13  C   UNL d   1      61.959  44.025  48.947  0.00  0.00     0.181 C 
ENDBRANCH   9  12
ENDBRANCH   4   6
BRANCH   1  14
ATOM     14  S   UNL d   1      61.137  49.127  51.707  0.00  0.00     0.266 S 
ATOM     15  O   UNL d   1      61.146  49.706  51.128  0.00  0.00    -0.203 OA
ATOM     16  O   UNL d   1      61.298  49.697  52.278  0.00  0.00    -0.203 OA
ATOM     17  C   UNL d   1      61.124  48.512  52.306  0.00  0.00     0.165 C 
ENDBRANCH   1  14
BRANCH   3  18
ATOM     18  C   UNL d   1      59.608  48.938  50.738  0.00  0.00     0.048 A 
ATOM     19  S   UNL d   1      59.196  49.252  50.123  0.00  0.00    -0.085 SA
ATOM     20  C   UNL d   1      58.573  49.707  50.410  0.00  0.00     0.035 A 
ATOM     21  C   UNL d   1      58.600  49.675  51.210  0.00  0.00     0.007 A 
ATOM     22  C   UNL d   1      59.233  49.204  51.419  0.00  0.00     0.009 A 
ENDBRANCH   3  18
TORSDOF 4
ENDMDL
