MODEL 1
REMARK VINA RESULT:      44.2      0.000      0.000
REMARK  3 active torsions:
REMARK  status: ('A' for Active; 'I' for Inactive)
REMARK    1  A    between atoms: C_8  and  C_1 
REMARK    2  A    between atoms: C_9  and  C_4 
REMARK    3  A    between atoms: O_20  and  C_8 
ROOT
ATOM      1  C   UNL d   1     -58.352 -98.814 -45.540  0.00  0.00     0.107 A 
ATOM      2  C   UNL d   1     -57.788 -98.802 -46.154  0.00  0.00     0.208 A 
ATOM      3  C   UNL d   1     -57.290 -98.813 -44.564  0.00  0.00     0.062 A 
ATOM      4  C   UNL d   1     -58.085 -98.819 -44.739  0.00  0.00     0.020 A 
ATOM      5  C   UNL d   1     -56.726 -98.801 -45.179  0.00  0.00     0.101 A 
ATOM      6  O   UNL d   1     -56.959 -98.795 -45.966  0.00  0.00    -0.288 OA
ATOM      7  C   UNL d   1     -57.045 -98.818 -43.784  0.00  0.00     0.194 A 
ATOM      8  C   UNL d   1     -55.919 -98.794 -45.011  0.00  0.00     0.002 A 
ATOM      9  C   UNL d   1     -55.681 -98.800 -44.219  0.00  0.00     0.042 A 
ATOM     10  C   UNL d   1     -56.245 -98.812 -43.605  0.00  0.00     0.019 A 
ATOM     11  O   UNL d   1     -57.612 -98.830 -43.167  0.00  0.00    -0.287 OA
ATOM     12  N   UNL d   1     -58.042 -98.797 -46.961  0.00  0.00    -0.121 N 
ATOM     13  C   UNL d   1     -55.031 -98.798 -43.732  0.00  0.00     0.009 C 
ATOM     14  C   UNL d   1     -55.005 -98.788 -44.695  0.00  0.00     0.009 C 
ENDROOT
BRANCH   4  15
ATOM     15  C   UNL d   1     -58.628 -98.830 -44.134  0.00  0.00     0.030 A 
ATOM     16  S   UNL d   1     -59.572 -98.913 -44.090  0.00  0.00    -0.086 SA
ATOM     17  C   UNL d   1     -59.578 -98.851 -43.088  0.00  0.00     0.035 A 
ATOM     18  C   UNL d   1     -58.886 -98.780 -42.936  0.00  0.00     0.007 A 
ATOM     19  C   UNL d   1     -58.409 -98.769 -43.466  0.00  0.00     0.007 A 
ENDBRANCH   4  15
BRANCH   1  20
ATOM     20  C   UNL d   1     -59.169 -98.820 -45.734  0.00  0.00     0.299 C 
ATOM     21  O   UNL d   1     -59.755 -98.787 -45.136  0.00  0.00    -0.259 OA
BRANCH  20  22
ATOM     22  O   UNL d   1     -59.418 -98.859 -46.517  0.00  0.00    -0.296 OA
ATOM     23  C   UNL d   1     -59.946 -99.465 -46.780  0.00  0.00     0.185 C 
ENDBRANCH  20  22
ENDBRANCH   1  20
TORSDOF 3
ENDMDL
