MODEL 1
REMARK VINA RESULT:      51.2      0.000      0.000
REMARK  10 active torsions:
REMARK  status: ('A' for Active; 'I' for Inactive)
REMARK    1  A    between atoms: P_2  and  C_1 
REMARK    2  A    between atoms: N_3  and  C_1 
REMARK    3  A    between atoms: C_4  and  C_1 
REMARK    4  A    between atoms: O_9  and  P_2 
REMARK    5  A    between atoms: O_10  and  P_2 
REMARK       I    between atoms: C_5  and  N_3 
REMARK    6  A    between atoms: C_8  and  C_5 
REMARK    7  A    between atoms: C_16  and  O_9 
REMARK    8  A    between atoms: C_15  and  O_10 
REMARK    9  A    between atoms: C_18  and  C_15 
REMARK   10  A    between atoms: C_17  and  C_16 
ROOT
ATOM      1  C   UNL d   1     -51.358  25.575  33.985  0.00  0.00     0.186 C 
ENDROOT
BRANCH   1   2
ATOM      2  P   UNL d   1     -51.276  24.815  33.644  0.00  0.00     0.393 P 
ATOM      3  O   UNL d   1     -51.213  24.065  33.308  0.00  0.00    -0.251 OA
BRANCH   2   4
ATOM      4  O   UNL d   1     -52.094  24.728  33.689  0.00  0.00    -0.263 OA
BRANCH   4   5
ATOM      5  C   UNL d   1     -52.450  24.045  33.379  0.00  0.00     0.126 C 
BRANCH   5   6
ATOM      6  C   UNL d   1     -53.240  23.847  33.569  0.00  0.00     0.027 C 
ATOM      7  C   UNL d   1     -53.586  23.188  34.064  0.00  0.00     0.002 C 
ENDBRANCH   5   6
ENDBRANCH   4   5
ENDBRANCH   2   4
BRANCH   2   8
ATOM      8  O   UNL d   1     -50.467  24.883  33.591  0.00  0.00    -0.263 OA
BRANCH   8   9
ATOM      9  C   UNL d   1     -50.022  24.228  33.382  0.00  0.00     0.126 C 
BRANCH   9  10
ATOM     10  C   UNL d   1     -49.211  24.202  33.562  0.00  0.00     0.027 C 
ATOM     11  C   UNL d   1     -48.984  23.458  33.588  0.00  0.00     0.002 C 
ENDBRANCH   9  10
ENDBRANCH   8   9
ENDBRANCH   2   8
ENDBRANCH   1   2
BRANCH   1  12
ATOM     12  N   UNL d   1     -51.236  25.652  34.809  0.00  0.00    -0.199 NA
ATOM     13  C   UNL d   1     -51.590  26.300  35.200  0.00  0.00     0.279 C 
ATOM     14  O   UNL d   1     -52.037  26.836  34.795  0.00  0.00    -0.265 OA
BRANCH  13  15
ATOM     15  C   UNL d   1     -51.498  26.413  35.997  0.00  0.00     0.058 A 
ATOM     16  C   UNL d   1     -52.157  26.364  36.491  0.00  0.00     0.005 A 
ATOM     17  C   UNL d   1     -52.058  26.480  37.298  0.00  0.00     0.000 A 
ATOM     18  C   UNL d   1     -51.300  26.644  37.609  0.00  0.00     0.000 A 
ATOM     19  C   UNL d   1     -50.652  26.692  37.122  0.00  0.00     0.000 A 
ATOM     20  C   UNL d   1     -50.744  26.576  36.304  0.00  0.00     0.005 A 
ENDBRANCH  13  15
ENDBRANCH   1  12
BRANCH   1  21
ATOM     21  C   UNL d   1     -51.552  26.219  33.529  0.00  0.00     0.140 C 
ATOM     22 CL   UNL d   1     -52.291  26.252  33.326  0.00  0.00    -0.068 Cl
ATOM     23 CL   UNL d   1     -50.944  26.809  33.306  0.00  0.00    -0.068 Cl
ENDBRANCH   1  21
TORSDOF 10
ENDMDL
MODEL 2
REMARK VINA RESULT:      51.6      0.559      2.218
REMARK  10 active torsions:
REMARK  status: ('A' for Active; 'I' for Inactive)
REMARK    1  A    between atoms: P_2  and  C_1 
REMARK    2  A    between atoms: N_3  and  C_1 
REMARK    3  A    between atoms: C_4  and  C_1 
REMARK    4  A    between atoms: O_9  and  P_2 
REMARK    5  A    between atoms: O_10  and  P_2 
REMARK       I    between atoms: C_5  and  N_3 
REMARK    6  A    between atoms: C_8  and  C_5 
REMARK    7  A    between atoms: C_16  and  O_9 
REMARK    8  A    between atoms: C_15  and  O_10 
REMARK    9  A    between atoms: C_18  and  C_15 
REMARK   10  A    between atoms: C_17  and  C_16 
ROOT
ATOM      1  C   UNL d   1     -51.342  25.880  34.128  0.00  0.00     0.186 C 
ENDROOT
BRANCH   1   2
ATOM      2  P   UNL d   1     -51.284  25.154  33.716  0.00  0.00     0.393 P 
ATOM      3  O   UNL d   1     -51.207  24.442  33.307  0.00  0.00    -0.251 OA
BRANCH   2   4
ATOM      4  O   UNL d   1     -50.483  25.309  33.597  0.00  0.00    -0.263 OA
BRANCH   4   5
ATOM      5  C   UNL d   1     -49.948  24.677  33.541  0.00  0.00     0.126 C 
BRANCH   5   6
ATOM      6  C   UNL d   1     -49.154  24.804  33.311  0.00  0.00     0.027 C 
ATOM      7  C   UNL d   1     -48.387  24.439  33.591  0.00  0.00     0.002 C 
ENDBRANCH   5   6
ENDBRANCH   4   5
ENDBRANCH   2   4
BRANCH   2   8
ATOM      8  O   UNL d   1     -52.071  24.983  33.823  0.00  0.00    -0.263 OA
BRANCH   8   9
ATOM      9  C   UNL d   1     -52.403  24.350  33.424  0.00  0.00     0.126 C 
BRANCH   9  10
ATOM     10  C   UNL d   1     -52.900  23.818  33.827  0.00  0.00     0.027 C 
ATOM     11  C   UNL d   1     -53.350  23.454  33.307  0.00  0.00     0.002 C 
ENDBRANCH   9  10
ENDBRANCH   8   9
ENDBRANCH   2   8
ENDBRANCH   1   2
BRANCH   1  12
ATOM     12  N   UNL d   1     -51.441  25.855  34.958  0.00  0.00    -0.199 NA
ATOM     13  C   UNL d   1     -51.187  26.516  35.404  0.00  0.00     0.279 C 
ATOM     14  O   UNL d   1     -50.857  27.158  35.043  0.00  0.00    -0.265 OA
BRANCH  13  15
ATOM     15  C   UNL d   1     -51.264  26.534  36.209  0.00  0.00     0.058 A 
ATOM     16  C   UNL d   1     -50.617  26.758  36.672  0.00  0.00     0.005 A 
ATOM     17  C   UNL d   1     -50.699  26.775  37.488  0.00  0.00     0.000 A 
ATOM     18  C   UNL d   1     -51.428  26.569  37.842  0.00  0.00     0.000 A 
ATOM     19  C   UNL d   1     -52.064  26.349  37.387  0.00  0.00     0.000 A 
ATOM     20  C   UNL d   1     -51.988  26.329  36.559  0.00  0.00     0.005 A 
ENDBRANCH  13  15
ENDBRANCH   1  12
BRANCH   1  21
ATOM     21  C   UNL d   1     -51.305  26.589  33.732  0.00  0.00     0.140 C 
ATOM     22 CL   UNL d   1     -50.592  26.845  33.610  0.00  0.00    -0.068 Cl
ATOM     23 CL   UNL d   1     -52.036  27.000  33.479  0.00  0.00    -0.068 Cl
ENDBRANCH   1  21
TORSDOF 10
ENDMDL
