MODEL 1
REMARK VINA RESULT:      -2.5      0.000      0.000
REMARK  3 active torsions:
REMARK  status: ('A' for Active; 'I' for Inactive)
REMARK       I    between atoms: N_2  and  C_1 
REMARK       I    between atoms: N_5  and  C_1 
REMARK       I    between atoms: C_4  and  N_3 
REMARK    1  A    between atoms: O_14  and  C_4 
REMARK    2  A    between atoms: C_12  and  N_5 
REMARK    3  A    between atoms: C_20  and  O_14 
ROOT
ATOM      1  C   UNL d   1      32.677  16.144 -23.311  0.00  0.00     0.354 C 
ATOM      2  N   UNL d   1      31.874  16.264 -23.489  0.00  0.00    -0.253 N 
ATOM      3  N   UNL d   1      30.296  16.472 -23.826  0.00  0.00    -0.249 N 
ATOM      4  C   UNL d   1      29.472  16.573 -23.998  0.00  0.00     0.378 C 
ATOM      5  N   UNL d   1      33.241  16.742 -23.511  0.00  0.00    -0.192 NA
ATOM      6  O   UNL d   1      32.953  15.453 -22.940  0.00  0.00    -0.244 OA
ATOM      7  C   UNL d   1      31.608  16.959 -23.861  0.00  0.00     0.104 A 
ATOM      8  C   UNL d   1      31.342  15.682 -23.291  0.00  0.00     0.104 A 
ATOM      9  C   UNL d   1      30.536  15.791 -23.465  0.00  0.00     0.104 A 
ATOM     10  C   UNL d   1      30.812  17.047 -24.022  0.00  0.00     0.104 A 
ATOM     11  O   UNL d   1      29.189  17.245 -24.361  0.00  0.00    -0.237 OA
ENDROOT
BRANCH   5  12
ATOM     12  C   UNL d   1      32.996  17.412 -23.867  0.00  0.00     0.087 A 
ATOM     13  C   UNL d   1      32.859  18.106 -23.449  0.00  0.00     0.031 A 
ATOM     14  C   UNL d   1      32.614  18.771 -23.822  0.00  0.00     0.059 A 
ATOM     15 CL   UNL d   1      32.484  19.461 -23.362  0.00  0.00    -0.082 Cl
ATOM     16  C   UNL d   1      32.492  18.776 -24.638  0.00  0.00     0.011 A 
ATOM     17  C   UNL d   1      32.628  18.080 -25.066  0.00  0.00     0.002 A 
ATOM     18  C   UNL d   1      32.874  17.415 -24.693  0.00  0.00     0.019 A 
ENDBRANCH   5  12
BRANCH   4  19
ATOM     19  O   UNL d   1      28.941  15.974 -23.792  0.00  0.00    -0.257 OA
BRANCH  19  20
ATOM     20  C   UNL d   1      28.137  16.118 -23.810  0.00  0.00     0.128 C 
ATOM     21  C   UNL d   1      27.599  15.502 -23.707  0.00  0.00     0.029 C 
ENDBRANCH  19  20
ENDBRANCH   4  19
TORSDOF 3
ENDMDL
MODEL 2
REMARK VINA RESULT:      -0.9      1.772      3.590
REMARK  3 active torsions:
REMARK  status: ('A' for Active; 'I' for Inactive)
REMARK       I    between atoms: N_2  and  C_1 
REMARK       I    between atoms: N_5  and  C_1 
REMARK       I    between atoms: C_4  and  N_3 
REMARK    1  A    between atoms: O_14  and  C_4 
REMARK    2  A    between atoms: C_12  and  N_5 
REMARK    3  A    between atoms: C_20  and  O_14 
ROOT
ATOM      1  C   UNL d   1      31.651  15.861 -23.249  0.00  0.00     0.354 C 
ATOM      2  N   UNL d   1      31.749  16.604 -23.609  0.00  0.00    -0.253 N 
ATOM      3  N   UNL d   1      31.967  18.060 -24.302  0.00  0.00    -0.249 N 
ATOM      4  C   UNL d   1      32.088  18.819 -24.661  0.00  0.00     0.378 C 
ATOM      5  N   UNL d   1      30.916  15.453 -23.332  0.00  0.00    -0.192 NA
ATOM      6  O   UNL d   1      32.255  15.498 -22.806  0.00  0.00    -0.244 OA
ATOM      7  C   UNL d   1      31.139  16.959 -24.050  0.00  0.00     0.104 A 
ATOM      8  C   UNL d   1      32.461  16.986 -23.522  0.00  0.00     0.104 A 
ATOM      9  C   UNL d   1      32.569  17.731 -23.878  0.00  0.00     0.104 A 
ATOM     10  C   UNL d   1      31.266  17.690 -24.392  0.00  0.00     0.104 A 
ATOM     11  O   UNL d   1      31.506  19.185 -25.097  0.00  0.00    -0.237 OA
ENDROOT
BRANCH   5  12
ATOM     12  C   UNL d   1      30.325  15.784 -23.753  0.00  0.00     0.087 A 
ATOM     13  C   UNL d   1      29.701  16.182 -23.394  0.00  0.00     0.031 A 
ATOM     14  C   UNL d   1      29.116  16.509 -23.832  0.00  0.00     0.059 A 
ATOM     15 CL   UNL d   1      28.494  16.908 -23.432  0.00  0.00    -0.082 Cl
ATOM     16  C   UNL d   1      29.123  16.456 -24.655  0.00  0.00     0.011 A 
ATOM     17  C   UNL d   1      29.750  16.056 -25.023  0.00  0.00     0.002 A 
ATOM     18  C   UNL d   1      30.335  15.728 -24.585  0.00  0.00     0.019 A 
ENDBRANCH   5  12
BRANCH   4  19
ATOM     19  O   UNL d   1      32.817  19.197 -24.565  0.00  0.00    -0.257 OA
BRANCH  19  20
ATOM     20  C   UNL d   1      32.860  20.012 -24.599  0.00  0.00     0.128 C 
ATOM     21  C   UNL d   1      33.241  20.438 -24.005  0.00  0.00     0.029 C 
ENDBRANCH  19  20
ENDBRANCH   4  19
TORSDOF 3
ENDMDL
MODEL 3
REMARK VINA RESULT:      -0.2      4.608      6.009
REMARK  3 active torsions:
REMARK  status: ('A' for Active; 'I' for Inactive)
REMARK       I    between atoms: N_2  and  C_1 
REMARK       I    between atoms: N_5  and  C_1 
REMARK       I    between atoms: C_4  and  N_3 
REMARK    1  A    between atoms: O_14  and  C_4 
REMARK    2  A    between atoms: C_12  and  N_5 
REMARK    3  A    between atoms: C_20  and  O_14 
ROOT
ATOM      1  C   UNL d   1      32.990  22.916 -22.543  0.00  0.00     0.354 C 
ATOM      2  N   UNL d   1      32.989  22.099 -22.390  0.00  0.00    -0.253 N 
ATOM      3  N   UNL d   1      32.997  20.494 -22.119  0.00  0.00    -0.249 N 
ATOM      4  C   UNL d   1      33.004  19.657 -21.984  0.00  0.00     0.378 C 
ATOM      5  N   UNL d   1      32.757  23.453 -21.933  0.00  0.00    -0.192 NA
ATOM      6  O   UNL d   1      33.214  23.231 -23.280  0.00  0.00    -0.244 OA
ATOM      7  C   UNL d   1      32.764  21.793 -21.650  0.00  0.00     0.104 A 
ATOM      8  C   UNL d   1      33.216  21.593 -22.985  0.00  0.00     0.104 A 
ATOM      9  C   UNL d   1      33.219  20.773 -22.843  0.00  0.00     0.104 A 
ATOM     10  C   UNL d   1      32.774  20.985 -21.531  0.00  0.00     0.104 A 
ATOM     11  O   UNL d   1      32.787  19.336 -21.269  0.00  0.00    -0.237 OA
ENDROOT
BRANCH   5  12
ATOM     12  C   UNL d   1      32.539  23.170 -21.220  0.00  0.00     0.087 A 
ATOM     13  C   UNL d   1      32.968  23.328 -20.537  0.00  0.00     0.031 A 
ATOM     14  C   UNL d   1      32.736  23.036 -19.828  0.00  0.00     0.059 A 
ATOM     15 CL   UNL d   1      33.199  23.217 -19.151  0.00  0.00    -0.082 Cl
ATOM     16  C   UNL d   1      32.059  22.569 -19.765  0.00  0.00     0.011 A 
ATOM     17  C   UNL d   1      31.621  22.407 -20.450  0.00  0.00     0.002 A 
ATOM     18  C   UNL d   1      31.854  22.698 -21.159  0.00  0.00     0.019 A 
ENDBRANCH   5  12
BRANCH   4  19
ATOM     19  O   UNL d   1      33.236  19.153 -22.598  0.00  0.00    -0.257 OA
BRANCH  19  20
ATOM     20  C   UNL d   1      33.050  18.359 -22.564  0.00  0.00     0.128 C 
ATOM     21  C   UNL d   1      33.190  17.868 -23.211  0.00  0.00     0.029 C 
ENDBRANCH  19  20
ENDBRANCH   4  19
TORSDOF 3
ENDMDL
MODEL 4
REMARK VINA RESULT:      -0.2      2.845      4.484
REMARK  3 active torsions:
REMARK  status: ('A' for Active; 'I' for Inactive)
REMARK       I    between atoms: N_2  and  C_1 
REMARK       I    between atoms: N_5  and  C_1 
REMARK       I    between atoms: C_4  and  N_3 
REMARK    1  A    between atoms: O_14  and  C_4 
REMARK    2  A    between atoms: C_12  and  N_5 
REMARK    3  A    between atoms: C_20  and  O_14 
ROOT
ATOM      1  C   UNL d   1      32.989  18.648 -22.271  0.00  0.00     0.354 C 
ATOM      2  N   UNL d   1      32.983  19.292 -22.797  0.00  0.00    -0.253 N 
ATOM      3  N   UNL d   1      32.983  20.572 -23.802  0.00  0.00    -0.249 N 
ATOM      4  C   UNL d   1      32.985  21.243 -24.320  0.00  0.00     0.378 C 
ATOM      5  N   UNL d   1      32.737  17.888 -22.543  0.00  0.00    -0.192 NA
ATOM      6  O   UNL d   1      33.236  18.720 -21.480  0.00  0.00    -0.244 OA
ATOM      7  C   UNL d   1      32.735  19.211 -23.586  0.00  0.00     0.104 A 
ATOM      8  C   UNL d   1      33.229  20.018 -22.522  0.00  0.00     0.104 A 
ATOM      9  C   UNL d   1      33.227  20.670 -23.039  0.00  0.00     0.104 A 
ATOM     10  C   UNL d   1      32.741  19.863 -24.077  0.00  0.00     0.104 A 
ATOM     11  O   UNL d   1      32.747  21.187 -25.096  0.00  0.00    -0.237 OA
ENDROOT
BRANCH   5  12
ATOM     12  C   UNL d   1      32.497  17.799 -23.299  0.00  0.00     0.087 A 
ATOM     13  C   UNL d   1      31.702  17.793 -23.508  0.00  0.00     0.031 A 
ATOM     14  C   UNL d   1      31.478  17.703 -24.272  0.00  0.00     0.059 A 
ATOM     15 CL   UNL d   1      30.657  17.702 -24.449  0.00  0.00    -0.082 Cl
ATOM     16  C   UNL d   1      32.040  17.612 -24.869  0.00  0.00     0.011 A 
ATOM     17  C   UNL d   1      32.843  17.617 -24.665  0.00  0.00     0.002 A 
ATOM     18  C   UNL d   1      33.067  17.708 -23.901  0.00  0.00     0.019 A 
ENDBRANCH   5  12
BRANCH   4  19
ATOM     19  O   UNL d   1      33.237  21.975 -24.029  0.00  0.00    -0.257 OA
BRANCH  19  20
ATOM     20  C   UNL d   1      33.102  22.653 -24.464  0.00  0.00     0.128 C 
ATOM     21  C   UNL d   1      33.033  23.384 -24.089  0.00  0.00     0.029 C 
ENDBRANCH  19  20
ENDBRANCH   4  19
TORSDOF 3
ENDMDL
