MODEL 1
REMARK VINA RESULT:      -4.3      0.000      0.000
REMARK  9 active torsions:
REMARK  status: ('A' for Active; 'I' for Inactive)
REMARK    1  A    between atoms: C_6  and  C_1 
REMARK    2  A    between atoms: C_2  and  O_5 
REMARK    3  A    between atoms: C_4  and  C_2 
REMARK    4  A    between atoms: O_5  and  C_3 
REMARK    5  A    between atoms: C_7  and  C_6 
REMARK    6  A    between atoms: C_10  and  C_7 
REMARK    7  A    between atoms: O_25  and  C_8 
REMARK    8  A    between atoms: C_20  and  C_10 
REMARK    9  A    between atoms: O_27  and  C_14 
ROOT
ATOM      1  C   UNL d   1     -40.628  14.203  20.837  0.00  0.00     0.062 A 
ATOM      2  C   UNL d   1     -40.228  14.286  20.109  0.00  0.00     0.106 A 
ATOM      3  C   UNL d   1     -40.192  14.105  21.530  0.00  0.00     0.012 A 
ATOM      4  C   UNL d   1     -39.407  14.269  20.094  0.00  0.00     0.025 A 
ATOM      5  C   UNL d   1     -39.371  14.090  21.506  0.00  0.00     0.035 A 
ATOM      6  C   UNL d   1     -38.975  14.172  20.785  0.00  0.00     0.009 A 
ATOM      7 BR   UNL d   1     -38.937  13.992  22.202  0.00  0.00    -0.049 Br
ENDROOT
BRANCH   1   8
ATOM      8  C   UNL d   1     -41.452  14.219  20.859  0.00  0.00     0.198 C 
ATOM      9  O   UNL d   1     -41.855  14.919  20.681  0.00  0.00    -0.286 OA
BRANCH   8  10
ATOM     10  C   UNL d   1     -41.873  13.540  21.058  0.00  0.00     0.042 C 
BRANCH  10  11
ATOM     11  C   UNL d   1     -42.698  13.544  21.039  0.00  0.00     0.003 C 
BRANCH  11  12
ATOM     12  C   UNL d   1     -43.129  13.005  21.503  0.00  0.00     0.002 A 
ATOM     13  C   UNL d   1     -43.918  13.207  21.702  0.00  0.00     0.026 A 
ATOM     14  C   UNL d   1     -44.339  12.648  22.173  0.00  0.00     0.116 A 
ATOM     15  C   UNL d   1     -43.988  11.941  22.423  0.00  0.00     0.116 A 
ATOM     16  C   UNL d   1     -43.196  11.773  22.205  0.00  0.00     0.026 A 
ATOM     17  C   UNL d   1     -42.772  12.310  21.745  0.00  0.00     0.002 A 
BRANCH  14  18
ATOM     18  O   UNL d   1     -45.112  12.804  22.391  0.00  0.00    -0.326 OA
ATOM     19  C   UNL d   1     -45.484  13.501  22.145  0.00  0.00     0.181 C 
ENDBRANCH  14  18
BRANCH  15  20
ATOM     20  O   UNL d   1     -44.412  11.405  22.884  0.00  0.00    -0.326 OA
ATOM     21  C   UNL d   1     -44.027  10.760  23.229  0.00  0.00     0.181 C 
ENDBRANCH  15  20
ENDBRANCH  11  12
ENDBRANCH  10  11
ENDBRANCH   8  10
ENDBRANCH   1   8
BRANCH   2  22
ATOM     22  O   UNL d   1     -40.660  14.383  19.418  0.00  0.00    -0.271 OA
BRANCH  22  23
ATOM     23  C   UNL d   1     -40.293  14.263  18.687  0.00  0.00     0.323 C 
ATOM     24  O   UNL d   1     -39.707  13.683  18.599  0.00  0.00    -0.257 OA
BRANCH  23  25
ATOM     25  C   UNL d   1     -40.507  14.723  18.037  0.00  0.00     0.163 A 
ATOM     26  O   UNL d   1     -41.145  14.579  17.534  0.00  0.00    -0.300 OA
ATOM     27  C   UNL d   1     -41.154  15.182  16.955  0.00  0.00     0.123 A 
ATOM     28  C   UNL d   1     -40.523  15.691  17.106  0.00  0.00     0.029 A 
ATOM     29  C   UNL d   1     -40.123  15.408  17.774  0.00  0.00     0.032 A 
ENDBRANCH  23  25
ENDBRANCH  22  23
ENDBRANCH   2  22
TORSDOF 9
ENDMDL
MODEL 2
REMARK VINA RESULT:      -3.9      1.719      5.385
REMARK  9 active torsions:
REMARK  status: ('A' for Active; 'I' for Inactive)
REMARK    1  A    between atoms: C_6  and  C_1 
REMARK    2  A    between atoms: C_2  and  O_5 
REMARK    3  A    between atoms: C_4  and  C_2 
REMARK    4  A    between atoms: O_5  and  C_3 
REMARK    5  A    between atoms: C_7  and  C_6 
REMARK    6  A    between atoms: C_10  and  C_7 
REMARK    7  A    between atoms: O_25  and  C_8 
REMARK    8  A    between atoms: C_20  and  C_10 
REMARK    9  A    between atoms: O_27  and  C_14 
ROOT
ATOM      1  C   UNL d   1     -40.000  14.994  20.282  0.00  0.00     0.062 A 
ATOM      2  C   UNL d   1     -40.398  14.640  20.925  0.00  0.00     0.106 A 
ATOM      3  C   UNL d   1     -39.307  15.420  20.420  0.00  0.00     0.012 A 
ATOM      4  C   UNL d   1     -40.095  14.720  21.683  0.00  0.00     0.025 A 
ATOM      5  C   UNL d   1     -39.011  15.495  21.182  0.00  0.00     0.035 A 
ATOM      6  C   UNL d   1     -39.405  15.144  21.819  0.00  0.00     0.009 A 
ATOM      7 BR   UNL d   1     -38.316  15.922  21.317  0.00  0.00    -0.049 Br
ENDROOT
BRANCH   1   8
ATOM      8  C   UNL d   1     -40.299  14.918  19.517  0.00  0.00     0.198 C 
ATOM      9  O   UNL d   1     -40.991  15.317  19.306  0.00  0.00    -0.286 OA
BRANCH   8  10
ATOM     10  C   UNL d   1     -39.910  14.446  18.967  0.00  0.00     0.042 C 
BRANCH  10  11
ATOM     11  C   UNL d   1     -40.145  14.452  18.176  0.00  0.00     0.003 C 
BRANCH  11  12
ATOM     12  C   UNL d   1     -39.621  14.199  17.582  0.00  0.00     0.002 A 
ATOM     13  C   UNL d   1     -39.260  13.449  17.676  0.00  0.00     0.026 A 
ATOM     14  C   UNL d   1     -38.731  13.211  17.062  0.00  0.00     0.116 A 
ATOM     15  C   UNL d   1     -38.582  13.693  16.408  0.00  0.00     0.116 A 
ATOM     16  C   UNL d   1     -38.962  14.438  16.347  0.00  0.00     0.026 A 
ATOM     17  C   UNL d   1     -39.481  14.685  16.939  0.00  0.00     0.002 A 
BRANCH  14  18
ATOM     18  O   UNL d   1     -38.356  12.485  17.113  0.00  0.00    -0.326 OA
ATOM     19  C   UNL d   1     -38.100  12.196  17.844  0.00  0.00     0.181 C 
ENDBRANCH  14  18
BRANCH  15  20
ATOM     20  O   UNL d   1     -38.063  13.446  15.817  0.00  0.00    -0.326 OA
ATOM     21  C   UNL d   1     -37.940  13.918  15.149  0.00  0.00     0.181 C 
ENDBRANCH  15  20
ENDBRANCH  11  12
ENDBRANCH  10  11
ENDBRANCH   8  10
ENDBRANCH   1   8
BRANCH   2  22
ATOM     22  O   UNL d   1     -41.088  14.216  20.789  0.00  0.00    -0.271 OA
BRANCH  22  23
ATOM     23  C   UNL d   1     -41.373  13.704  21.372  0.00  0.00     0.323 C 
ATOM     24  O   UNL d   1     -40.877  13.440  21.982  0.00  0.00    -0.257 OA
BRANCH  23  25
ATOM     25  C   UNL d   1     -42.158  13.450  21.352  0.00  0.00     0.163 A 
ATOM     26  O   UNL d   1     -42.821  13.928  21.458  0.00  0.00    -0.300 OA
ATOM     27  C   UNL d   1     -43.499  13.442  21.392  0.00  0.00     0.123 A 
ATOM     28  C   UNL d   1     -43.246  12.670  21.246  0.00  0.00     0.029 A 
ATOM     29  C   UNL d   1     -42.418  12.675  21.221  0.00  0.00     0.032 A 
ENDBRANCH  23  25
ENDBRANCH  22  23
ENDBRANCH   2  22
TORSDOF 9
ENDMDL
MODEL 3
REMARK VINA RESULT:      -3.5      2.335      5.467
REMARK  9 active torsions:
REMARK  status: ('A' for Active; 'I' for Inactive)
REMARK    1  A    between atoms: C_6  and  C_1 
REMARK    2  A    between atoms: C_2  and  O_5 
REMARK    3  A    between atoms: C_4  and  C_2 
REMARK    4  A    between atoms: O_5  and  C_3 
REMARK    5  A    between atoms: C_7  and  C_6 
REMARK    6  A    between atoms: C_10  and  C_7 
REMARK    7  A    between atoms: O_25  and  C_8 
REMARK    8  A    between atoms: C_20  and  C_10 
REMARK    9  A    between atoms: O_27  and  C_14 
ROOT
ATOM      1  C   UNL d   1     -41.086  14.457  20.741  0.00  0.00     0.062 A 
ATOM      2  C   UNL d   1     -40.607  14.154  21.354  0.00  0.00     0.106 A 
ATOM      3  C   UNL d   1     -41.791  14.074  20.551  0.00  0.00     0.012 A 
ATOM      4  C   UNL d   1     -40.845  13.481  21.759  0.00  0.00     0.025 A 
ATOM      5  C   UNL d   1     -42.021  13.400  20.961  0.00  0.00     0.035 A 
ATOM      6  C   UNL d   1     -41.547  13.100  21.568  0.00  0.00     0.009 A 
ATOM      7 BR   UNL d   1     -42.728  13.018  20.768  0.00  0.00    -0.049 Br
ENDROOT
BRANCH   1   8
ATOM      8  C   UNL d   1     -40.853  15.133  20.330  0.00  0.00     0.198 C 
ATOM      9  O   UNL d   1     -41.070  15.880  20.612  0.00  0.00    -0.286 OA
BRANCH   8  10
ATOM     10  C   UNL d   1     -40.406  15.066  19.643  0.00  0.00     0.042 C 
BRANCH  10  11
ATOM     11  C   UNL d   1     -40.153  15.743  19.245  0.00  0.00     0.003 C 
BRANCH  11  12
ATOM     12  C   UNL d   1     -39.875  15.689  18.463  0.00  0.00     0.002 A 
ATOM     13  C   UNL d   1     -40.440  15.567  17.857  0.00  0.00     0.026 A 
ATOM     14  C   UNL d   1     -40.137  15.516  17.070  0.00  0.00     0.116 A 
ATOM     15  C   UNL d   1     -39.328  15.582  16.912  0.00  0.00     0.116 A 
ATOM     16  C   UNL d   1     -38.792  15.703  17.545  0.00  0.00     0.026 A 
ATOM     17  C   UNL d   1     -39.072  15.756  18.319  0.00  0.00     0.002 A 
BRANCH  14  18
ATOM     18  O   UNL d   1     -40.654  15.397  16.446  0.00  0.00    -0.326 OA
ATOM     19  C   UNL d   1     -41.467  15.501  16.550  0.00  0.00     0.181 C 
ENDBRANCH  14  18
BRANCH  15  20
ATOM     20  O   UNL d   1     -39.048  15.529  16.139  0.00  0.00    -0.326 OA
ATOM     21  C   UNL d   1     -38.263  15.724  15.968  0.00  0.00     0.181 C 
ENDBRANCH  15  20
ENDBRANCH  11  12
ENDBRANCH  10  11
ENDBRANCH   8  10
ENDBRANCH   1   8
BRANCH   2  22
ATOM     22  O   UNL d   1     -39.905  14.534  21.545  0.00  0.00    -0.271 OA
BRANCH  22  23
ATOM     23  C   UNL d   1     -39.390  14.190  22.094  0.00  0.00     0.323 C 
ATOM     24  O   UNL d   1     -39.302  13.367  22.130  0.00  0.00    -0.257 OA
BRANCH  23  25
ATOM     25  C   UNL d   1     -38.960  14.667  22.611  0.00  0.00     0.163 A 
ATOM     26  O   UNL d   1     -39.278  15.158  23.192  0.00  0.00    -0.300 OA
ATOM     27  C   UNL d   1     -38.642  15.535  23.583  0.00  0.00     0.123 A 
ATOM     28  C   UNL d   1     -37.940  15.273  23.239  0.00  0.00     0.029 A 
ATOM     29  C   UNL d   1     -38.135  14.737  22.638  0.00  0.00     0.032 A 
ENDBRANCH  23  25
ENDBRANCH  22  23
ENDBRANCH   2  22
TORSDOF 9
ENDMDL
MODEL 4
REMARK VINA RESULT:      -3.3      3.574      6.514
REMARK  9 active torsions:
REMARK  status: ('A' for Active; 'I' for Inactive)
REMARK    1  A    between atoms: C_6  and  C_1 
REMARK    2  A    between atoms: C_2  and  O_5 
REMARK    3  A    between atoms: C_4  and  C_2 
REMARK    4  A    between atoms: O_5  and  C_3 
REMARK    5  A    between atoms: C_7  and  C_6 
REMARK    6  A    between atoms: C_10  and  C_7 
REMARK    7  A    between atoms: O_25  and  C_8 
REMARK    8  A    between atoms: C_20  and  C_10 
REMARK    9  A    between atoms: O_27  and  C_14 
ROOT
ATOM      1  C   UNL d   1     -46.597  12.637  22.870  0.00  0.00     0.062 A 
ATOM      2  C   UNL d   1     -45.846  12.273  22.824  0.00  0.00     0.106 A 
ATOM      3  C   UNL d   1     -47.237  12.208  23.162  0.00  0.00     0.012 A 
ATOM      4  C   UNL d   1     -45.758  11.494  23.069  0.00  0.00     0.025 A 
ATOM      5  C   UNL d   1     -47.140  11.429  23.405  0.00  0.00     0.035 A 
ATOM      6  C   UNL d   1     -46.397  11.069  23.359  0.00  0.00     0.009 A 
ATOM      7 BR   UNL d   1     -47.784  11.002  23.697  0.00  0.00    -0.049 Br
ENDROOT
BRANCH   1   8
ATOM      8  C   UNL d   1     -46.692  13.419  22.626  0.00  0.00     0.198 C 
ATOM      9  O   UNL d   1     -46.120  13.771  22.144  0.00  0.00    -0.286 OA
BRANCH   8  10
ATOM     10  C   UNL d   1     -47.355  13.846  22.860  0.00  0.00     0.042 C 
BRANCH  10  11
ATOM     11  C   UNL d   1     -47.658  14.439  22.373  0.00  0.00     0.003 C 
BRANCH  11  12
ATOM     12  C   UNL d   1     -48.436  14.714  22.483  0.00  0.00     0.002 A 
ATOM     13  C   UNL d   1     -49.043  14.352  22.034  0.00  0.00     0.026 A 
ATOM     14  C   UNL d   1     -49.825  14.645  22.160  0.00  0.00     0.116 A 
ATOM     15  C   UNL d   1     -49.978  15.255  22.698  0.00  0.00     0.116 A 
ATOM     16  C   UNL d   1     -49.344  15.593  23.130  0.00  0.00     0.026 A 
ATOM     17  C   UNL d   1     -48.574  15.317  23.018  0.00  0.00     0.002 A 
BRANCH  14  18
ATOM     18  O   UNL d   1     -50.450  14.321  21.742  0.00  0.00    -0.326 OA
ATOM     19  C   UNL d   1     -50.591  13.506  21.765  0.00  0.00     0.181 C 
ENDBRANCH  14  18
BRANCH  15  20
ATOM     20  O   UNL d   1     -50.746  15.530  22.810  0.00  0.00    -0.326 OA
ATOM     21  C   UNL d   1     -50.949  15.921  23.510  0.00  0.00     0.181 C 
ENDBRANCH  15  20
ENDBRANCH  11  12
ENDBRANCH  10  11
ENDBRANCH   8  10
ENDBRANCH   1   8
BRANCH   2  22
ATOM     22  O   UNL d   1     -45.207  12.698  22.533  0.00  0.00    -0.271 OA
BRANCH  22  23
ATOM     23  C   UNL d   1     -44.470  12.330  22.464  0.00  0.00     0.323 C 
ATOM     24  O   UNL d   1     -44.310  11.626  22.871  0.00  0.00    -0.257 OA
BRANCH  23  25
ATOM     25  C   UNL d   1     -43.886  12.663  21.986  0.00  0.00     0.163 A 
ATOM     26  O   UNL d   1     -43.946  13.378  21.579  0.00  0.00    -0.300 OA
ATOM     27  C   UNL d   1     -43.228  13.498  21.167  0.00  0.00     0.123 A 
ATOM     28  C   UNL d   1     -42.733  12.857  21.325  0.00  0.00     0.029 A 
ATOM     29  C   UNL d   1     -43.140  12.341  21.830  0.00  0.00     0.032 A 
ENDBRANCH  23  25
ENDBRANCH  22  23
ENDBRANCH   2  22
TORSDOF 9
ENDMDL
MODEL 5
REMARK VINA RESULT:      -3.0      3.958      8.035
REMARK  9 active torsions:
REMARK  status: ('A' for Active; 'I' for Inactive)
REMARK    1  A    between atoms: C_6  and  C_1 
REMARK    2  A    between atoms: C_2  and  O_5 
REMARK    3  A    between atoms: C_4  and  C_2 
REMARK    4  A    between atoms: O_5  and  C_3 
REMARK    5  A    between atoms: C_7  and  C_6 
REMARK    6  A    between atoms: C_10  and  C_7 
REMARK    7  A    between atoms: O_25  and  C_8 
REMARK    8  A    between atoms: C_20  and  C_10 
REMARK    9  A    between atoms: O_27  and  C_14 
ROOT
ATOM      1  C   UNL d   1     -48.473  12.737  22.283  0.00  0.00     0.062 A 
ATOM      2  C   UNL d   1     -49.205  13.127  22.386  0.00  0.00     0.106 A 
ATOM      3  C   UNL d   1     -48.367  12.241  21.633  0.00  0.00     0.012 A 
ATOM      4  C   UNL d   1     -49.806  13.010  21.839  0.00  0.00     0.025 A 
ATOM      5  C   UNL d   1     -48.974  12.130  21.091  0.00  0.00     0.035 A 
ATOM      6  C   UNL d   1     -49.698  12.516  21.193  0.00  0.00     0.009 A 
ATOM      7 BR   UNL d   1     -48.863  11.632  20.441  0.00  0.00    -0.049 Br
ENDROOT
BRANCH   1   8
ATOM      8  C   UNL d   1     -47.865  12.850  22.828  0.00  0.00     0.198 C 
ATOM      9  O   UNL d   1     -47.999  12.700  23.630  0.00  0.00    -0.286 OA
BRANCH   8  10
ATOM     10  C   UNL d   1     -47.127  13.112  22.576  0.00  0.00     0.042 C 
BRANCH  10  11
ATOM     11  C   UNL d   1     -46.470  13.037  23.069  0.00  0.00     0.003 C 
BRANCH  11  12
ATOM     12  C   UNL d   1     -45.715  12.908  22.743  0.00  0.00     0.002 A 
ATOM     13  C   UNL d   1     -45.310  12.209  22.965  0.00  0.00     0.026 A 
ATOM     14  C   UNL d   1     -44.546  12.097  22.624  0.00  0.00     0.116 A 
ATOM     15  C   UNL d   1     -44.220  12.649  22.100  0.00  0.00     0.116 A 
ATOM     16  C   UNL d   1     -44.655  13.337  21.901  0.00  0.00     0.026 A 
ATOM     17  C   UNL d   1     -45.404  13.461  22.227  0.00  0.00     0.002 A 
BRANCH  14  18
ATOM     18  O   UNL d   1     -44.114  11.428  22.813  0.00  0.00    -0.326 OA
ATOM     19  C   UNL d   1     -44.488  10.766  23.138  0.00  0.00     0.181 C 
ENDBRANCH  14  18
BRANCH  15  20
ATOM     20  O   UNL d   1     -43.473  12.525  21.776  0.00  0.00    -0.326 OA
ATOM     21  C   UNL d   1     -43.333  12.699  20.979  0.00  0.00     0.181 C 
ENDBRANCH  15  20
ENDBRANCH  11  12
ENDBRANCH  10  11
ENDBRANCH   8  10
ENDBRANCH   1   8
BRANCH   2  22
ATOM     22  O   UNL d   1     -49.313  13.622  23.032  0.00  0.00    -0.271 OA
BRANCH  22  23
ATOM     23  C   UNL d   1     -50.080  13.809  23.278  0.00  0.00     0.323 C 
ATOM     24  O   UNL d   1     -50.645  13.213  23.389  0.00  0.00    -0.257 OA
BRANCH  23  25
ATOM     25  C   UNL d   1     -50.288  14.596  23.416  0.00  0.00     0.163 A 
ATOM     26  O   UNL d   1     -49.767  15.233  23.453  0.00  0.00    -0.300 OA
ATOM     27  C   UNL d   1     -50.216  15.922  23.602  0.00  0.00     0.123 A 
ATOM     28  C   UNL d   1     -51.010  15.702  23.655  0.00  0.00     0.029 A 
ATOM     29  C   UNL d   1     -51.055  14.883  23.540  0.00  0.00     0.032 A 
ENDBRANCH  23  25
ENDBRANCH  22  23
ENDBRANCH   2  22
TORSDOF 9
ENDMDL
MODEL 6
REMARK VINA RESULT:      -2.7      3.362      7.315
REMARK  9 active torsions:
REMARK  status: ('A' for Active; 'I' for Inactive)
REMARK    1  A    between atoms: C_6  and  C_1 
REMARK    2  A    between atoms: C_2  and  O_5 
REMARK    3  A    between atoms: C_4  and  C_2 
REMARK    4  A    between atoms: O_5  and  C_3 
REMARK    5  A    between atoms: C_7  and  C_6 
REMARK    6  A    between atoms: C_10  and  C_7 
REMARK    7  A    between atoms: O_25  and  C_8 
REMARK    8  A    between atoms: C_20  and  C_10 
REMARK    9  A    between atoms: O_27  and  C_14 
ROOT
ATOM      1  C   UNL d   1     -47.338  12.467  23.324  0.00  0.00     0.062 A 
ATOM      2  C   UNL d   1     -48.135  12.712  23.276  0.00  0.00     0.106 A 
ATOM      3  C   UNL d   1     -47.165  11.673  23.460  0.00  0.00     0.012 A 
ATOM      4  C   UNL d   1     -48.734  12.158  23.364  0.00  0.00     0.025 A 
ATOM      5  C   UNL d   1     -47.771  11.125  23.547  0.00  0.00     0.035 A 
ATOM      6  C   UNL d   1     -48.560  11.367  23.499  0.00  0.00     0.009 A 
ATOM      7 BR   UNL d   1     -47.594  10.329  23.683  0.00  0.00    -0.049 Br
ENDROOT
BRANCH   1   8
ATOM      8  C   UNL d   1     -46.731  13.019  23.237  0.00  0.00     0.198 C 
ATOM      9  O   UNL d   1     -46.730  13.706  23.697  0.00  0.00    -0.286 OA
BRANCH   8  10
ATOM     10  C   UNL d   1     -46.128  12.887  22.693  0.00  0.00     0.042 C 
BRANCH  10  11
ATOM     11  C   UNL d   1     -45.518  13.436  22.609  0.00  0.00     0.003 C 
BRANCH  11  12
ATOM     12  C   UNL d   1     -44.820  13.227  22.207  0.00  0.00     0.002 A 
ATOM     13  C   UNL d   1     -44.434  12.520  22.439  0.00  0.00     0.026 A 
ATOM     14  C   UNL d   1     -43.728  12.326  22.019  0.00  0.00     0.116 A 
ATOM     15  C   UNL d   1     -43.437  12.810  21.414  0.00  0.00     0.116 A 
ATOM     16  C   UNL d   1     -43.850  13.510  21.210  0.00  0.00     0.026 A 
ATOM     17  C   UNL d   1     -44.542  13.713  21.611  0.00  0.00     0.002 A 
BRANCH  14  18
ATOM     18  O   UNL d   1     -43.318  11.645  22.212  0.00  0.00    -0.326 OA
ATOM     19  C   UNL d   1     -43.588  11.151  22.818  0.00  0.00     0.181 C 
ENDBRANCH  14  18
BRANCH  15  20
ATOM     20  O   UNL d   1     -42.746  12.607  21.014  0.00  0.00    -0.326 OA
ATOM     21  C   UNL d   1     -42.387  13.151  20.505  0.00  0.00     0.181 C 
ENDBRANCH  15  20
ENDBRANCH  11  12
ENDBRANCH  10  11
ENDBRANCH   8  10
ENDBRANCH   1   8
BRANCH   2  22
ATOM     22  O   UNL d   1     -48.309  13.502  23.141  0.00  0.00    -0.271 OA
BRANCH  22  23
ATOM     23  C   UNL d   1     -49.078  13.778  23.265  0.00  0.00     0.323 C 
ATOM     24  O   UNL d   1     -49.633  13.313  23.671  0.00  0.00    -0.257 OA
BRANCH  23  25
ATOM     25  C   UNL d   1     -49.301  14.521  22.986  0.00  0.00     0.163 A 
ATOM     26  O   UNL d   1     -48.970  14.912  22.340  0.00  0.00    -0.300 OA
ATOM     27  C   UNL d   1     -49.363  15.645  22.256  0.00  0.00     0.123 A 
ATOM     28  C   UNL d   1     -49.932  15.699  22.851  0.00  0.00     0.029 A 
ATOM     29  C   UNL d   1     -49.894  15.004  23.302  0.00  0.00     0.032 A 
ENDBRANCH  23  25
ENDBRANCH  22  23
ENDBRANCH   2  22
TORSDOF 9
ENDMDL
MODEL 7
REMARK VINA RESULT:      -2.4      2.676      5.000
REMARK  9 active torsions:
REMARK  status: ('A' for Active; 'I' for Inactive)
REMARK    1  A    between atoms: C_6  and  C_1 
REMARK    2  A    between atoms: C_2  and  O_5 
REMARK    3  A    between atoms: C_4  and  C_2 
REMARK    4  A    between atoms: O_5  and  C_3 
REMARK    5  A    between atoms: C_7  and  C_6 
REMARK    6  A    between atoms: C_10  and  C_7 
REMARK    7  A    between atoms: O_25  and  C_8 
REMARK    8  A    between atoms: C_20  and  C_10 
REMARK    9  A    between atoms: O_27  and  C_14 
ROOT
ATOM      1  C   UNL d   1     -44.906  12.294  22.657  0.00  0.00     0.062 A 
ATOM      2  C   UNL d   1     -44.129  12.273  22.352  0.00  0.00     0.106 A 
ATOM      3  C   UNL d   1     -45.183  11.659  23.103  0.00  0.00     0.012 A 
ATOM      4  C   UNL d   1     -43.652  11.622  22.502  0.00  0.00     0.025 A 
ATOM      5  C   UNL d   1     -44.700  11.011  23.248  0.00  0.00     0.035 A 
ATOM      6  C   UNL d   1     -43.930  10.990  22.947  0.00  0.00     0.009 A 
ATOM      7 BR   UNL d   1     -44.981  10.376  23.696  0.00  0.00    -0.049 Br
ENDROOT
BRANCH   1   8
ATOM      8  C   UNL d   1     -45.390  12.946  22.510  0.00  0.00     0.198 C 
ATOM      9  O   UNL d   1     -45.067  13.708  22.524  0.00  0.00    -0.286 OA
BRANCH   8  10
ATOM     10  C   UNL d   1     -46.190  12.839  22.351  0.00  0.00     0.042 C 
BRANCH  10  11
ATOM     11  C   UNL d   1     -46.685  13.493  22.263  0.00  0.00     0.003 C 
BRANCH  11  12
ATOM     12  C   UNL d   1     -47.511  13.394  22.256  0.00  0.00     0.002 A 
ATOM     13  C   UNL d   1     -47.972  13.940  22.693  0.00  0.00     0.026 A 
ATOM     14  C   UNL d   1     -48.808  13.822  22.673  0.00  0.00     0.116 A 
ATOM     15  C   UNL d   1     -49.148  13.201  22.245  0.00  0.00     0.116 A 
ATOM     16  C   UNL d   1     -48.654  12.673  21.819  0.00  0.00     0.026 A 
ATOM     17  C   UNL d   1     -47.835  12.776  21.829  0.00  0.00     0.002 A 
BRANCH  14  18
ATOM     18  O   UNL d   1     -49.297  14.332  23.085  0.00  0.00    -0.326 OA
ATOM     19  C   UNL d   1     -49.137  15.143  23.103  0.00  0.00     0.181 C 
ENDBRANCH  14  18
BRANCH  15  20
ATOM     20  O   UNL d   1     -49.965  13.099  22.235  0.00  0.00    -0.326 OA
ATOM     21  C   UNL d   1     -50.290  12.345  22.337  0.00  0.00     0.181 C 
ENDBRANCH  15  20
ENDBRANCH  11  12
ENDBRANCH  10  11
ENDBRANCH   8  10
ENDBRANCH   1   8
BRANCH   2  22
ATOM     22  O   UNL d   1     -43.851  12.905  21.907  0.00  0.00    -0.271 OA
BRANCH  22  23
ATOM     23  C   UNL d   1     -43.251  12.780  21.352  0.00  0.00     0.323 C 
ATOM     24  O   UNL d   1     -43.240  12.091  20.890  0.00  0.00    -0.257 OA
BRANCH  23  25
ATOM     25  C   UNL d   1     -42.656  13.343  21.253  0.00  0.00     0.163 A 
ATOM     26  O   UNL d   1     -42.773  14.143  21.092  0.00  0.00    -0.300 OA
ATOM     27  C   UNL d   1     -42.020  14.504  21.036  0.00  0.00     0.123 A 
ATOM     28  C   UNL d   1     -41.449  13.923  21.163  0.00  0.00     0.029 A 
ATOM     29  C   UNL d   1     -41.841  13.205  21.297  0.00  0.00     0.032 A 
ENDBRANCH  23  25
ENDBRANCH  22  23
ENDBRANCH   2  22
TORSDOF 9
ENDMDL
MODEL 8
REMARK VINA RESULT:      -1.9      3.532      7.744
REMARK  9 active torsions:
REMARK  status: ('A' for Active; 'I' for Inactive)
REMARK    1  A    between atoms: C_6  and  C_1 
REMARK    2  A    between atoms: C_2  and  O_5 
REMARK    3  A    between atoms: C_4  and  C_2 
REMARK    4  A    between atoms: O_5  and  C_3 
REMARK    5  A    between atoms: C_7  and  C_6 
REMARK    6  A    between atoms: C_10  and  C_7 
REMARK    7  A    between atoms: O_25  and  C_8 
REMARK    8  A    between atoms: C_20  and  C_10 
REMARK    9  A    between atoms: O_27  and  C_14 
ROOT
ATOM      1  C   UNL d   1     -47.679  13.979  22.747  0.00  0.00     0.062 A 
ATOM      2  C   UNL d   1     -48.483  14.010  22.969  0.00  0.00     0.106 A 
ATOM      3  C   UNL d   1     -47.343  14.618  22.349  0.00  0.00     0.012 A 
ATOM      4  C   UNL d   1     -48.928  14.676  22.788  0.00  0.00     0.025 A 
ATOM      5  C   UNL d   1     -47.795  15.281  22.172  0.00  0.00     0.035 A 
ATOM      6  C   UNL d   1     -48.592  15.312  22.392  0.00  0.00     0.009 A 
ATOM      7 BR   UNL d   1     -47.456  15.920  21.773  0.00  0.00    -0.049 Br
ENDROOT
BRANCH   1   8
ATOM      8  C   UNL d   1     -47.227  13.312  22.925  0.00  0.00     0.198 C 
ATOM      9  O   UNL d   1     -47.567  12.686  23.345  0.00  0.00    -0.286 OA
BRANCH   8  10
ATOM     10  C   UNL d   1     -46.441  13.270  22.687  0.00  0.00     0.042 C 
BRANCH  10  11
ATOM     11  C   UNL d   1     -46.133  12.562  22.396  0.00  0.00     0.003 C 
BRANCH  11  12
ATOM     12  C   UNL d   1     -45.323  12.500  22.218  0.00  0.00     0.002 A 
ATOM     13  C   UNL d   1     -44.871  11.942  22.649  0.00  0.00     0.026 A 
ATOM     14  C   UNL d   1     -44.051  11.894  22.453  0.00  0.00     0.116 A 
ATOM     15  C   UNL d   1     -43.717  12.374  21.868  0.00  0.00     0.116 A 
ATOM     16  C   UNL d   1     -44.201  12.922  21.456  0.00  0.00     0.026 A 
ATOM     17  C   UNL d   1     -45.004  12.980  21.637  0.00  0.00     0.002 A 
BRANCH  14  18
ATOM     18  O   UNL d   1     -43.572  11.362  22.850  0.00  0.00    -0.326 OA
ATOM     19  C   UNL d   1     -43.902  10.796  23.354  0.00  0.00     0.181 C 
ENDBRANCH  14  18
BRANCH  15  20
ATOM     20  O   UNL d   1     -42.915  12.315  21.688  0.00  0.00    -0.326 OA
ATOM     21  C   UNL d   1     -42.560  12.874  21.192  0.00  0.00     0.181 C 
ENDBRANCH  15  20
ENDBRANCH  11  12
ENDBRANCH  10  11
ENDBRANCH   8  10
ENDBRANCH   1   8
BRANCH   2  22
ATOM     22  O   UNL d   1     -48.819  13.374  23.365  0.00  0.00    -0.271 OA
BRANCH  22  23
ATOM     23  C   UNL d   1     -49.625  13.389  23.551  0.00  0.00     0.323 C 
ATOM     24  O   UNL d   1     -50.013  14.109  23.691  0.00  0.00    -0.257 OA
BRANCH  23  25
ATOM     25  C   UNL d   1     -50.051  12.684  23.598  0.00  0.00     0.163 A 
ATOM     26  O   UNL d   1     -49.727  11.929  23.670  0.00  0.00    -0.300 OA
ATOM     27  C   UNL d   1     -50.358  11.382  23.698  0.00  0.00     0.123 A 
ATOM     28  C   UNL d   1     -51.064  11.805  23.643  0.00  0.00     0.029 A 
ATOM     29  C   UNL d   1     -50.875  12.609  23.581  0.00  0.00     0.032 A 
ENDBRANCH  23  25
ENDBRANCH  22  23
ENDBRANCH   2  22
TORSDOF 9
ENDMDL
