MODEL 1
REMARK VINA RESULT:      34.8      0.000      0.000
REMARK  3 active torsions:
REMARK  status: ('A' for Active; 'I' for Inactive)
REMARK    1  A    between atoms: N_4  and  C_1 
REMARK       I    between atoms: C_7  and  N_4 
REMARK    2  A    between atoms: C_10  and  C_7 
REMARK    3  A    between atoms: O_16  and  C_15 
ROOT
ATOM      1  N   UNL d   1     -55.188-102.388 -41.711  0.00  0.00    -0.183 NA
ATOM      2  C   UNL d   1     -55.068-101.634 -42.031  0.00  0.00     0.281 C 
ATOM      3  O   UNL d   1     -55.059-100.967 -41.527  0.00  0.00    -0.265 OA
ENDROOT
BRANCH   1   4
ATOM      4  C   UNL d   1     -55.298-102.485 -40.893  0.00  0.00     0.197 A 
ATOM      5  N   UNL d   1     -56.029-102.611 -40.514  0.00  0.00    -0.221 NA
ATOM      6  C   UNL d   1     -55.886-102.679 -39.699  0.00  0.00     0.092 A 
ATOM      7  C   UNL d   1     -56.393-102.805 -39.062  0.00  0.00     0.039 A 
ATOM      8  C   UNL d   1     -55.067-102.594 -39.572  0.00  0.00     0.068 A 
ATOM      9  C   UNL d   1     -56.080-102.847 -38.288  0.00  0.00     0.082 A 
ATOM     10  N   UNL d   1     -55.271-102.763 -38.167  0.00  0.00    -0.301 N 
ATOM     11  C   UNL d   1     -54.768-102.637 -38.808  0.00  0.00     0.088 A 
ATOM     12  C   UNL d   1     -54.962-102.807 -37.392  0.00  0.00     0.100 C 
ATOM     13  S   UNL d   1     -54.711-102.475 -40.311  0.00  0.00    -0.045 SA
ENDBRANCH   1   4
BRANCH   2  14
ATOM     14  C   UNL d   1     -54.959-101.537 -42.844  0.00  0.00     0.060 A 
ATOM     15  C   UNL d   1     -54.892-100.783 -43.163  0.00  0.00     0.029 A 
ATOM     16  C   UNL d   1     -54.784-100.690 -43.969  0.00  0.00     0.094 A 
ATOM     17  C   UNL d   1     -54.741-101.350 -44.460  0.00  0.00     0.024 A 
ATOM     18  C   UNL d   1     -54.809-102.104 -44.132  0.00  0.00     0.002 A 
ATOM     19  C   UNL d   1     -54.917-102.197 -43.326  0.00  0.00     0.005 A 
BRANCH  16  20
ATOM     20  O   UNL d   1     -54.715 -99.919 -44.304  0.00  0.00    -0.328 OA
ATOM     21  C   UNL d   1     -55.378 -99.534 -44.610  0.00  0.00     0.181 C 
ENDBRANCH  16  20
ENDBRANCH   2  14
TORSDOF 3
ENDMDL
