MODEL 1
REMARK VINA RESULT:       3.4      0.000      0.000
REMARK  4 active torsions:
REMARK  status: ('A' for Active; 'I' for Inactive)
REMARK    1  A    between atoms: C_2  and  C_1 
REMARK    2  A    between atoms: C_3  and  C_4 
REMARK       I    between atoms: N_12  and  C_3 
REMARK    3  A    between atoms: C_4  and  C_5 
REMARK    4  A    between atoms: C_5  and  C_11 
ROOT
ATOM      1  C   UNL d   1      45.280 -12.584  43.490  0.00  0.00     0.071 A 
ATOM      2  C   UNL d   1      45.067 -13.309  43.822  0.00  0.00     0.004 A 
ATOM      3  C   UNL d   1      45.376 -13.533  44.553  0.00  0.00     0.000 A 
ATOM      4  C   UNL d   1      45.805 -12.081  43.892  0.00  0.00     0.004 A 
ATOM      5  C   UNL d   1      46.115 -12.305  44.623  0.00  0.00    -0.000 A 
ATOM      6  C   UNL d   1      45.902 -13.030  44.955  0.00  0.00    -0.000 A 
ENDROOT
BRANCH   3   7
ATOM      7  C   UNL d   1      45.157 -14.263  44.881  0.00  0.00     0.005 C 
BRANCH   7   8
ATOM      8  C   UNL d   1      45.725 -14.867  44.955  0.00  0.00     0.062 C 
BRANCH   8   9
ATOM      9  C   UNL d   1      45.508 -15.655  44.843  0.00  0.00     0.279 C 
ATOM     10  O   UNL d   1      44.709 -15.849  44.754  0.00  0.00    -0.265 OA
ATOM     11  N   UNL d   1      46.084 -16.247  44.821  0.00  0.00    -0.205 NA
ATOM     12  C   UNL d   1      45.860 -17.037  44.709  0.00  0.00     0.123 C 
ENDBRANCH   8   9
ENDBRANCH   7   8
ENDBRANCH   3   7
BRANCH   1  13
ATOM     13  C   UNL d   1      44.974 -12.358  42.761  0.00  0.00     0.419 C 
ATOM     14  F   UNL d   1      45.395 -12.225  42.006  0.00  0.00    -0.166 F 
ATOM     15  F   UNL d   1      44.162 -12.189  42.534  0.00  0.00    -0.166 F 
ATOM     16  F   UNL d   1      44.698 -12.150  42.090  0.00  0.00    -0.166 F 
ENDBRANCH   1  13
TORSDOF 4
ENDMDL
