MODEL 1
REMARK VINA RESULT:       8.6      0.000      0.000
REMARK  4 active torsions:
REMARK  status: ('A' for Active; 'I' for Inactive)
REMARK    1  A    between atoms: C_2  and  S_1 
REMARK    2  A    between atoms: N_3  and  S_1 
REMARK    3  A    between atoms: C_10  and  N_3 
REMARK    4  A    between atoms: C_5  and  C_10 
ROOT
ATOM      1  S   UNL d   1      46.222 -17.263  43.995  0.00  0.00     0.285 S 
ATOM      2  O   UNL d   1      46.186 -17.583  44.750  0.00  0.00    -0.198 OA
ATOM      3  O   UNL d   1      46.259 -16.937  43.216  0.00  0.00    -0.198 OA
ENDROOT
BRANCH   1   4
ATOM      4  C   UNL d   1      46.330 -18.046  43.669  0.00  0.00     0.105 A 
ATOM      5  C   UNL d   1      46.403 -18.700  44.171  0.00  0.00     0.013 A 
ATOM      6  C   UNL d   1      46.506 -19.450  43.850  0.00  0.00     0.001 A 
ATOM      7  C   UNL d   1      46.579 -20.109  44.370  0.00  0.00     0.000 C 
ATOM      8  C   UNL d   1      46.537 -19.551  43.035  0.00  0.00     0.000 A 
ATOM      9  C   UNL d   1      46.464 -18.899  42.543  0.00  0.00     0.001 A 
ATOM     10  C   UNL d   1      46.644 -20.330  42.709  0.00  0.00     0.000 C 
ATOM     11  C   UNL d   1      46.360 -18.142  42.855  0.00  0.00     0.013 A 
ENDBRANCH   1   4
BRANCH   1  12
ATOM     12  N   UNL d   1      46.116 -16.490  44.318  0.00  0.00    -0.155 NA
BRANCH  12  13
ATOM     13  C   UNL d   1      45.440 -16.055  44.441  0.00  0.00     0.137 C 
BRANCH  13  14
ATOM     14  C   UNL d   1      45.491 -15.236  44.550  0.00  0.00     0.120 A 
ATOM     15  O   UNL d   1      46.105 -14.711  44.274  0.00  0.00    -0.304 OA
ATOM     16  C   UNL d   1      45.895 -13.952  44.527  0.00  0.00     0.123 A 
ATOM     17  C   UNL d   1      45.159 -14.013  44.955  0.00  0.00     0.029 A 
ATOM     18  C   UNL d   1      44.949 -14.797  44.946  0.00  0.00     0.028 A 
ENDBRANCH  13  14
ENDBRANCH  12  13
ENDBRANCH   1  12
TORSDOF 4
ENDMDL
