MODEL 1
REMARK VINA RESULT:      58.9      0.000      0.000
REMARK  3 active torsions:
REMARK  status: ('A' for Active; 'I' for Inactive)
REMARK       I    between atoms: N_2  and  C_1 
REMARK    1  A    between atoms: C_4  and  C_1 
REMARK    2  A    between atoms: C_3  and  N_2 
REMARK    3  A    between atoms: C_5  and  C_6 
ROOT
ATOM      1  C   UNL d   1      57.394  49.296  50.980  0.00  0.00     0.058 A 
ATOM      2  C   UNL d   1      58.979  49.456  50.716  0.00  0.00    -0.023 A 
ATOM      3  C   UNL d   1      57.635  49.626  50.298  0.00  0.00     0.004 A 
ATOM      4  C   UNL d   1      57.907  49.027  51.569  0.00  0.00     0.004 A 
ATOM      5  C   UNL d   1      58.713  49.114  51.423  0.00  0.00    -0.004 A 
ATOM      6  C   UNL d   1      58.444  49.708  50.163  0.00  0.00    -0.004 A 
ENDROOT
BRANCH   1   7
ATOM      7  C   UNL d   1      56.569  49.218  51.105  0.00  0.00     0.279 C 
ATOM      8  N   UNL d   1      56.124  48.650  50.699  0.00  0.00    -0.207 NA
ATOM      9  O   UNL d   1      56.188  49.707  51.634  0.00  0.00    -0.265 OA
BRANCH   8  10
ATOM     10  C   UNL d   1      56.504  48.157  50.166  0.00  0.00     0.095 A 
ATOM     11  C   UNL d   1      56.470  48.301  49.382  0.00  0.00     0.075 A 
ATOM     12 CL   UNL d   1      56.046  48.959  49.080  0.00  0.00    -0.081 Cl
ATOM     13  C   UNL d   1      56.855  47.804  48.831  0.00  0.00     0.013 A 
ATOM     14  C   UNL d   1      57.279  47.146  49.133  0.00  0.00     0.001 A 
ATOM     15  C   UNL d   1      57.306  47.011  49.937  0.00  0.00     0.002 A 
ATOM     16  C   UNL d   1      56.933  47.495  50.451  0.00  0.00     0.020 A 
ENDBRANCH   8  10
ENDBRANCH   1   7
BRANCH   2  17
ATOM     17  C   UNL d   1      59.786  49.538  50.582  0.00  0.00     0.019 C 
ATOM     18  C   UNL d   1      59.934  49.383  51.379  0.00  0.00     0.004 C 
ATOM     19  C   UNL d   1      59.638  49.693  49.789  0.00  0.00     0.004 C 
ATOM     20  C   UNL d   1      60.596  49.620  50.448  0.00  0.00     0.004 C 
ENDBRANCH   2  17
TORSDOF 3
ENDMDL
MODEL 2
REMARK VINA RESULT:      61.6      2.787      4.039
REMARK  3 active torsions:
REMARK  status: ('A' for Active; 'I' for Inactive)
REMARK       I    between atoms: N_2  and  C_1 
REMARK    1  A    between atoms: C_4  and  C_1 
REMARK    2  A    between atoms: C_3  and  N_2 
REMARK    3  A    between atoms: C_5  and  C_6 
ROOT
ATOM      1  C   UNL d   1      61.270  48.366  51.362  0.00  0.00     0.058 A 
ATOM      2  C   UNL d   1      61.271  47.060  50.412  0.00  0.00    -0.023 A 
ATOM      3  C   UNL d   1      60.808  47.750  51.561  0.00  0.00     0.004 A 
ATOM      4  C   UNL d   1      61.754  48.382  50.694  0.00  0.00     0.004 A 
ATOM      5  C   UNL d   1      61.746  47.710  50.217  0.00  0.00    -0.004 A 
ATOM      6  C   UNL d   1      60.809  47.083  51.077  0.00  0.00    -0.004 A 
ENDROOT
BRANCH   1   7
ATOM      7  C   UNL d   1      61.260  49.038  51.863  0.00  0.00     0.279 C 
ATOM      8  N   UNL d   1      60.811  49.707  51.676  0.00  0.00    -0.207 NA
ATOM      9  O   UNL d   1      61.699  49.041  52.550  0.00  0.00    -0.265 OA
BRANCH   8  10
ATOM     10  C   UNL d   1      60.369  49.707  50.987  0.00  0.00     0.095 A 
ATOM     11  C   UNL d   1      59.571  49.705  51.014  0.00  0.00     0.075 A 
ATOM     12 CL   UNL d   1      59.162  49.704  51.746  0.00  0.00    -0.081 Cl
ATOM     13  C   UNL d   1      59.111  49.704  50.315  0.00  0.00     0.013 A 
ATOM     14  C   UNL d   1      59.520  49.705  49.583  0.00  0.00     0.001 A 
ATOM     15  C   UNL d   1      60.336  49.707  49.569  0.00  0.00     0.002 A 
ATOM     16  C   UNL d   1      60.760  49.708  50.246  0.00  0.00     0.020 A 
ENDBRANCH   8  10
ENDBRANCH   1   7
BRANCH   2  17
ATOM     17  C   UNL d   1      61.271  46.395  49.929  0.00  0.00     0.019 C 
ATOM     18  C   UNL d   1      60.757  46.016  50.450  0.00  0.00     0.004 C 
ATOM     19  C   UNL d   1      61.784  46.774  49.409  0.00  0.00     0.004 C 
ATOM     20  C   UNL d   1      61.272  45.728  49.443  0.00  0.00     0.004 C 
ENDBRANCH   2  17
TORSDOF 3
ENDMDL
