MODEL 1
REMARK VINA RESULT:      47.5      0.000      0.000
REMARK  6 active torsions:
REMARK  status: ('A' for Active; 'I' for Inactive)
REMARK    1  A    between atoms: C_7  and  N_1 
REMARK    2  A    between atoms: C_9  and  C_7 
REMARK    3  A    between atoms: C_10  and  C_9 
REMARK       I    between atoms: N_13  and  C_10 
REMARK    4  A    between atoms: C_15  and  N_13 
REMARK    5  A    between atoms: C_18  and  C_15 
REMARK    6  A    between atoms: C_17  and  C_18 
ROOT
ATOM      1  C   UNL d   1      14.017  13.001  -3.693  0.00  0.00     0.090 C 
ENDROOT
BRANCH   1   2
ATOM      2  N   UNL d   1      13.998  12.693  -2.921  0.00  0.00    -0.249 N 
ATOM      3  C   UNL d   1      13.474  12.094  -2.733  0.00  0.00     0.208 A 
ATOM      4  N   UNL d   1      13.447  11.782  -1.970  0.00  0.00    -0.218 NA
ATOM      5  S   UNL d   1      12.962  11.794  -3.308  0.00  0.00    -0.038 SA
ATOM      6  C   UNL d   1      13.961  12.086  -1.395  0.00  0.00     0.088 A 
ATOM      7  C   UNL d   1      14.489  12.688  -1.584  0.00  0.00     0.074 A 
ATOM      8  C   UNL d   1      13.942  11.780  -0.629  0.00  0.00     0.019 A 
ATOM      9  C   UNL d   1      14.508  12.994  -2.351  0.00  0.00     0.268 A 
ATOM     10  C   UNL d   1      14.999  12.987  -1.009  0.00  0.00     0.006 A 
ATOM     11  O   UNL d   1      15.036  13.597  -2.542  0.00  0.00    -0.267 OA
ATOM     12  C   UNL d   1      14.980  12.682  -0.243  0.00  0.00     0.000 A 
ATOM     13  C   UNL d   1      14.456  12.082  -0.050  0.00  0.00     0.002 A 
ENDBRANCH   1   2
BRANCH   1  14
ATOM     14  C   UNL d   1      13.422  13.509  -3.941  0.00  0.00     0.082 C 
BRANCH  14  15
ATOM     15  C   UNL d   1      13.524  13.966  -4.626  0.00  0.00     0.281 C 
ATOM     16  O   UNL d   1      13.411  13.617  -5.362  0.00  0.00    -0.265 OA
ATOM     17  N   UNL d   1      13.735  14.755  -4.559  0.00  0.00    -0.206 NA
BRANCH  17  18
ATOM     18  C   UNL d   1      13.837  15.216  -5.250  0.00  0.00     0.102 C 
BRANCH  18  19
ATOM     19  C   UNL d   1      14.414  15.795  -5.285  0.00  0.00     0.021 C 
BRANCH  19  20
ATOM     20  C   UNL d   1      14.235  16.540  -5.535  0.00  0.00     0.002 A 
ATOM     21  C   UNL d   1      13.671  16.667  -6.132  0.00  0.00     0.000 A 
ATOM     22  C   UNL d   1      13.487  17.431  -6.389  0.00  0.00     0.000 A 
ATOM     23  C   UNL d   1      13.854  18.092  -6.063  0.00  0.00     0.000 A 
ATOM     24  C   UNL d   1      14.419  17.963  -5.465  0.00  0.00     0.000 A 
ATOM     25  C   UNL d   1      14.611  17.201  -5.200  0.00  0.00     0.000 A 
ENDBRANCH  19  20
ENDBRANCH  18  19
ENDBRANCH  17  18
ENDBRANCH  14  15
ENDBRANCH   1  14
TORSDOF 6
ENDMDL
MODEL 2
REMARK VINA RESULT:      47.8      1.460      4.630
REMARK  6 active torsions:
REMARK  status: ('A' for Active; 'I' for Inactive)
REMARK    1  A    between atoms: C_7  and  N_1 
REMARK    2  A    between atoms: C_9  and  C_7 
REMARK    3  A    between atoms: C_10  and  C_9 
REMARK       I    between atoms: N_13  and  C_10 
REMARK    4  A    between atoms: C_15  and  N_13 
REMARK    5  A    between atoms: C_18  and  C_15 
REMARK    6  A    between atoms: C_17  and  C_18 
ROOT
ATOM      1  C   UNL d   1      13.202  12.092  -3.546  0.00  0.00     0.090 C 
ENDROOT
BRANCH   1   2
ATOM      2  N   UNL d   1      13.282  12.801  -3.975  0.00  0.00    -0.249 N 
ATOM      3  C   UNL d   1      13.216  12.794  -4.789  0.00  0.00     0.208 A 
ATOM      4  N   UNL d   1      13.294  13.492  -5.224  0.00  0.00    -0.218 NA
ATOM      5  S   UNL d   1      13.071  12.086  -5.190  0.00  0.00    -0.038 SA
ATOM      6  C   UNL d   1      13.440  14.200  -4.819  0.00  0.00     0.088 A 
ATOM      7  C   UNL d   1      13.506  14.206  -3.998  0.00  0.00     0.074 A 
ATOM      8  C   UNL d   1      13.519  14.903  -5.245  0.00  0.00     0.019 A 
ATOM      9  C   UNL d   1      13.426  13.504  -3.574  0.00  0.00     0.268 A 
ATOM     10  C   UNL d   1      13.651  14.915  -3.600  0.00  0.00     0.006 A 
ATOM     11  O   UNL d   1      13.492  13.508  -2.752  0.00  0.00    -0.267 OA
ATOM     12  C   UNL d   1      13.730  15.617  -4.025  0.00  0.00     0.000 A 
ATOM     13  C   UNL d   1      13.666  15.615  -4.842  0.00  0.00     0.002 A 
ENDBRANCH   1   2
BRANCH   1  14
ATOM     14  C   UNL d   1      13.843  11.798  -3.126  0.00  0.00     0.082 C 
BRANCH  14  15
ATOM     15  C   UNL d   1      13.839  11.813  -2.297  0.00  0.00     0.281 C 
ATOM     16  O   UNL d   1      13.121  11.805  -1.898  0.00  0.00    -0.265 OA
ATOM     17  N   UNL d   1      14.550  11.835  -1.890  0.00  0.00    -0.206 NA
BRANCH  17  18
ATOM     18  C   UNL d   1      14.547  11.850  -1.053  0.00  0.00     0.102 C 
BRANCH  18  19
ATOM     19  C   UNL d   1      14.169  12.452  -0.647  0.00  0.00     0.021 C 
BRANCH  19  20
ATOM     20  C   UNL d   1      14.565  13.124  -0.445  0.00  0.00     0.002 A 
ATOM     21  C   UNL d   1      14.185  13.863  -0.450  0.00  0.00     0.000 A 
ATOM     22  C   UNL d   1      14.591  14.553  -0.242  0.00  0.00     0.000 A 
ATOM     23  C   UNL d   1      15.384  14.532  -0.022  0.00  0.00     0.000 A 
ATOM     24  C   UNL d   1      15.764  13.791  -0.018  0.00  0.00     0.000 A 
ATOM     25  C   UNL d   1      15.366  13.093  -0.225  0.00  0.00     0.000 A 
ENDBRANCH  19  20
ENDBRANCH  18  19
ENDBRANCH  17  18
ENDBRANCH  14  15
ENDBRANCH   1  14
TORSDOF 6
ENDMDL
MODEL 3
REMARK VINA RESULT:      48.9      1.369      4.971
REMARK  6 active torsions:
REMARK  status: ('A' for Active; 'I' for Inactive)
REMARK    1  A    between atoms: C_7  and  N_1 
REMARK    2  A    between atoms: C_9  and  C_7 
REMARK    3  A    between atoms: C_10  and  C_9 
REMARK       I    between atoms: N_13  and  C_10 
REMARK    4  A    between atoms: C_15  and  N_13 
REMARK    5  A    between atoms: C_18  and  C_15 
REMARK    6  A    between atoms: C_17  and  C_18 
ROOT
ATOM      1  C   UNL d   1      13.221  13.828  -3.801  0.00  0.00     0.090 C 
ENDROOT
BRANCH   1   2
ATOM      2  N   UNL d   1      13.632  14.505  -4.058  0.00  0.00    -0.249 N 
ATOM      3  C   UNL d   1      13.712  14.655  -4.857  0.00  0.00     0.208 A 
ATOM      4  N   UNL d   1      14.118  15.323  -5.122  0.00  0.00    -0.218 NA
ATOM      5  S   UNL d   1      13.386  14.137  -5.412  0.00  0.00    -0.038 SA
ATOM      6  C   UNL d   1      14.444  15.840  -4.562  0.00  0.00     0.088 A 
ATOM      7  C   UNL d   1      14.363  15.689  -3.757  0.00  0.00     0.074 A 
ATOM      8  C   UNL d   1      14.851  16.511  -4.817  0.00  0.00     0.019 A 
ATOM      9  C   UNL d   1      13.956  15.018  -3.503  0.00  0.00     0.268 A 
ATOM     10  C   UNL d   1      14.690  16.207  -3.204  0.00  0.00     0.006 A 
ATOM     11  O   UNL d   1      13.875  14.865  -2.697  0.00  0.00    -0.267 OA
ATOM     12  C   UNL d   1      15.097  16.878  -3.458  0.00  0.00     0.000 A 
ATOM     13  C   UNL d   1      15.180  17.032  -4.259  0.00  0.00     0.002 A 
ENDBRANCH   1   2
BRANCH   1  14
ATOM     14  C   UNL d   1      13.554  13.086  -3.913  0.00  0.00     0.082 C 
BRANCH  14  15
ATOM     15  C   UNL d   1      13.355  12.461  -3.406  0.00  0.00     0.281 C 
ATOM     16  O   UNL d   1      12.810  11.899  -3.656  0.00  0.00    -0.265 OA
ATOM     17  N   UNL d   1      13.704  12.413  -2.666  0.00  0.00    -0.206 NA
BRANCH  17  18
ATOM     18  C   UNL d   1      13.503  11.782  -2.154  0.00  0.00     0.102 C 
BRANCH  18  19
ATOM     19  C   UNL d   1      13.487  11.890  -1.343  0.00  0.00     0.021 C 
BRANCH  19  20
ATOM     20  C   UNL d   1      14.138  12.155  -0.950  0.00  0.00     0.002 A 
ATOM     21  C   UNL d   1      14.093  12.809  -0.438  0.00  0.00     0.000 A 
ATOM     22  C   UNL d   1      14.761  13.081  -0.035  0.00  0.00     0.000 A 
ATOM     23  C   UNL d   1      15.493  12.716  -0.123  0.00  0.00     0.000 A 
ATOM     24  C   UNL d   1      15.537  12.061  -0.636  0.00  0.00     0.000 A 
ATOM     25  C   UNL d   1      14.873  11.779  -1.046  0.00  0.00     0.000 A 
ENDBRANCH  19  20
ENDBRANCH  18  19
ENDBRANCH  17  18
ENDBRANCH  14  15
ENDBRANCH   1  14
TORSDOF 6
ENDMDL
