MODEL 1
REMARK VINA RESULT:       0.9      0.000      0.000
REMARK  5 active torsions:
REMARK  status: ('A' for Active; 'I' for Inactive)
REMARK    1  A    between atoms: C_10  and  C_4 
REMARK    2  A    between atoms: C_19  and  N_5 
REMARK       I    between atoms: N_11  and  C_10 
REMARK    3  A    between atoms: C_22  and  C_19 
REMARK    4  A    between atoms: C_26  and  C_22 
REMARK    5  A    between atoms: O_23  and  C_26 
ROOT
ATOM      1  C   UNL d   1     -41.681-122.025 -52.774  0.00  0.00     0.154 A 
ATOM      2  C   UNL d   1     -41.499-122.796 -53.005  0.00  0.00     0.093 A 
ATOM      3  N   UNL d   1     -41.857-121.466 -53.330  0.00  0.00    -0.210 NA
ATOM      4  C   UNL d   1     -41.511-122.378 -51.460  0.00  0.00     0.122 A 
ATOM      5  N   UNL d   1     -41.686-121.820 -52.008  0.00  0.00    -0.286 N 
ATOM      6  C   UNL d   1     -41.492-123.010 -53.783  0.00  0.00     0.269 A 
ATOM      7  N   UNL d   1     -41.670-122.441 -54.331  0.00  0.00    -0.258 N 
ATOM      8  C   UNL d   1     -41.852-121.670 -54.101  0.00  0.00     0.152 A 
ATOM      9  C   UNL d   1     -41.332-123.137 -51.687  0.00  0.00     0.030 A 
ATOM     10  C   UNL d   1     -41.662-122.660 -55.106  0.00  0.00     0.084 A 
ATOM     11  O   UNL d   1     -41.310-123.781 -54.013  0.00  0.00    -0.266 OA
ATOM     12  C   UNL d   1     -42.026-121.118 -54.645  0.00  0.00     0.038 A 
ATOM     13  C   UNL d   1     -41.840-122.088 -55.644  0.00  0.00     0.019 A 
ATOM     14  C   UNL d   1     -42.022-121.317 -55.414  0.00  0.00     0.005 A 
ENDROOT
BRANCH   4  15
ATOM     15  C   UNL d   1     -41.517-122.166 -50.674  0.00  0.00     0.281 C 
ATOM     16  N   UNL d   1     -41.925-122.649 -50.128  0.00  0.00    -0.267 N 
ATOM     17  C   UNL d   1     -41.933-122.434 -49.320  0.00  0.00     0.110 A 
ATOM     18  C   UNL d   1     -42.320-123.339 -50.392  0.00  0.00     0.110 A 
ATOM     19  C   UNL d   1     -42.341-122.915 -48.768  0.00  0.00     0.142 A 
ATOM     20  O   UNL d   1     -42.739-123.607 -49.023  0.00  0.00    -0.300 OA
ATOM     21  C   UNL d   1     -42.727-123.817 -49.835  0.00  0.00     0.142 A 
ATOM     22  O   UNL d   1     -41.127-121.487 -50.429  0.00  0.00    -0.265 OA
ENDBRANCH   4  15
BRANCH   5  23
ATOM     23  C   UNL d   1     -41.871-121.039 -51.784  0.00  0.00     0.084 C 
BRANCH  23  24
ATOM     24  C   UNL d   1     -41.348-120.418 -51.962  0.00  0.00     0.045 C 
BRANCH  24  25
ATOM     25  C   UNL d   1     -41.124-119.884 -51.363  0.00  0.00     0.118 C 
BRANCH  25  26
ATOM     26  O   UNL d   1     -41.175-119.066 -51.502  0.00  0.00    -0.326 OA
ATOM     27  C   UNL d   1     -41.124-118.772 -52.285  0.00  0.00     0.181 C 
ENDBRANCH  25  26
ENDBRANCH  24  25
ENDBRANCH  23  24
ENDBRANCH   5  23
TORSDOF 5
ENDMDL
MODEL 2
REMARK VINA RESULT:       2.5      0.952      4.112
REMARK  5 active torsions:
REMARK  status: ('A' for Active; 'I' for Inactive)
REMARK    1  A    between atoms: C_10  and  C_4 
REMARK    2  A    between atoms: C_19  and  N_5 
REMARK       I    between atoms: N_11  and  C_10 
REMARK    3  A    between atoms: C_22  and  C_19 
REMARK    4  A    between atoms: C_26  and  C_22 
REMARK    5  A    between atoms: O_23  and  C_26 
ROOT
ATOM      1  C   UNL d   1     -42.047-122.394 -50.742  0.00  0.00     0.154 A 
ATOM      2  C   UNL d   1     -42.658-122.947 -50.775  0.00  0.00     0.093 A 
ATOM      3  N   UNL d   1     -41.751-122.156 -50.029  0.00  0.00    -0.210 NA
ATOM      4  C   UNL d   1     -42.036-122.325 -52.111  0.00  0.00     0.122 A 
ATOM      5  N   UNL d   1     -41.740-122.086 -51.406  0.00  0.00    -0.286 N 
ATOM      6  C   UNL d   1     -42.973-123.262 -50.102  0.00  0.00     0.269 A 
ATOM      7  N   UNL d   1     -42.669-123.016 -49.393  0.00  0.00    -0.258 N 
ATOM      8  C   UNL d   1     -42.058-122.463 -49.360  0.00  0.00     0.152 A 
ATOM      9  C   UNL d   1     -42.637-122.869 -52.143  0.00  0.00     0.030 A 
ATOM     10  C   UNL d   1     -42.987-123.334 -48.725  0.00  0.00     0.084 A 
ATOM     11  O   UNL d   1     -43.584-123.815 -50.135  0.00  0.00    -0.266 OA
ATOM     12  C   UNL d   1     -41.765-122.228 -48.660  0.00  0.00     0.038 A 
ATOM     13  C   UNL d   1     -42.679-123.085 -48.024  0.00  0.00     0.019 A 
ATOM     14  C   UNL d   1     -42.068-122.532 -47.992  0.00  0.00     0.005 A 
ENDROOT
BRANCH   4  15
ATOM     15  C   UNL d   1     -41.720-122.009 -52.792  0.00  0.00     0.281 C 
ATOM     16  N   UNL d   1     -41.607-122.506 -53.454  0.00  0.00    -0.267 N 
ATOM     17  C   UNL d   1     -41.283-122.184 -54.155  0.00  0.00     0.110 A 
ATOM     18  C   UNL d   1     -41.817-123.315 -53.412  0.00  0.00     0.110 A 
ATOM     19  C   UNL d   1     -41.167-122.678 -54.822  0.00  0.00     0.142 A 
ATOM     20  O   UNL d   1     -41.375-123.489 -54.788  0.00  0.00    -0.300 OA
ATOM     21  C   UNL d   1     -41.700-123.806 -54.083  0.00  0.00     0.142 A 
ATOM     22  O   UNL d   1     -41.518-121.214 -52.821  0.00  0.00    -0.265 OA
ENDBRANCH   4  15
BRANCH   5  23
ATOM     23  C   UNL d   1     -41.123-121.528 -51.364  0.00  0.00     0.084 C 
BRANCH  23  24
ATOM     24  C   UNL d   1     -41.257-120.781 -51.024  0.00  0.00     0.045 C 
BRANCH  24  25
ATOM     25  C   UNL d   1     -41.124-120.094 -51.476  0.00  0.00     0.118 C 
BRANCH  25  26
ATOM     26  O   UNL d   1     -41.188-119.348 -51.116  0.00  0.00    -0.326 OA
ATOM     27  C   UNL d   1     -41.123-118.653 -51.579  0.00  0.00     0.181 C 
ENDBRANCH  25  26
ENDBRANCH  24  25
ENDBRANCH  23  24
ENDBRANCH   5  23
TORSDOF 5
ENDMDL
