MODEL 1
REMARK VINA RESULT:      21.4      0.000      0.000
REMARK  0 active torsions:
REMARK  status: ('A' for Active; 'I' for Inactive)
ROOT
ATOM      1  C   UNL d   1     -51.626  25.265  33.313  0.00  0.00     0.138 A 
ATOM      2  C   UNL d   1     -52.226  25.830  33.310  0.00  0.00     0.102 A 
ATOM      3  N   UNL d   1     -50.834  25.503  33.315  0.00  0.00    -0.239 NA
ATOM      4  C   UNL d   1     -51.809  24.467  33.315  0.00  0.00     0.214 A 
ATOM      5  N   UNL d   1     -52.036  26.634  33.309  0.00  0.00    -0.242 NA
ATOM      6  C   UNL d   1     -53.201  24.793  33.309  0.00  0.00     0.022 A 
ATOM      7  C   UNL d   1     -52.601  24.228  33.312  0.00  0.00     0.042 A 
ATOM      8  C   UNL d   1     -50.640  26.312  33.314  0.00  0.00     0.099 A 
ATOM      9  C   UNL d   1     -51.241  26.877  33.311  0.00  0.00     0.099 A 
ATOM     10  O   UNL d   1     -51.208  23.901  33.318  0.00  0.00    -0.285 OA
ATOM     11  C   UNL d   1     -53.986  24.561  33.307  0.00  0.00     0.002 A 
ATOM     12  C   UNL d   1     -52.784  23.430  33.314  0.00  0.00     0.003 A 
ATOM     13  C   UNL d   1     -51.050  27.660  33.310  0.00  0.00     0.021 A 
ATOM     14  C   UNL d   1     -49.855  26.536  33.316  0.00  0.00     0.021 A 
ATOM     15  C   UNL d   1     -54.166  23.768  33.308  0.00  0.00     0.000 A 
ATOM     16  C   UNL d   1     -53.565  23.203  33.312  0.00  0.00     0.000 A 
ATOM     17  C   UNL d   1     -50.252  27.929  33.312  0.00  0.00     0.002 A 
ATOM     18  C   UNL d   1     -49.651  27.364  33.315  0.00  0.00     0.002 A 
ENDROOT
TORSDOF 0
ENDMDL
