MODEL 1
REMARK VINA RESULT:      62.6      0.000      0.000
REMARK  4 active torsions:
REMARK  status: ('A' for Active; 'I' for Inactive)
REMARK    1  A    between atoms: C_4  and  C_1 
REMARK    2  A    between atoms: N_8  and  C_4 
REMARK    3  A    between atoms: C_12  and  C_4 
REMARK    4  A    between atoms: C_5  and  N_8 
ROOT
ATOM      1  C   UNL d   1     -57.926 -99.187 -44.226  0.00  0.00     0.085 C 
ENDROOT
BRANCH   1   2
ATOM      2  C   UNL d   1     -57.287 -99.706 -44.159  0.00  0.00     0.037 A 
ATOM      3  C   UNL d   1     -57.328-100.509 -43.930  0.00  0.00     0.083 A 
ATOM      4  N   UNL d   1     -56.567-100.806 -43.939  0.00  0.00    -0.245 NA
ATOM      5  C   UNL d   1     -58.013-100.926 -43.733  0.00  0.00     0.021 C 
ATOM      6  C   UNL d   1     -56.062-100.193 -44.170  0.00  0.00     0.081 A 
ATOM      7  C   UNL d   1     -56.510 -99.527 -44.301  0.00  0.00     0.021 A 
ATOM      8  C   UNL d   1     -55.240-100.178 -44.273  0.00  0.00     0.019 A 
ATOM      9  C   UNL d   1     -56.144 -98.832 -44.539  0.00  0.00     0.002 A 
ATOM     10  C   UNL d   1     -55.326 -98.800 -44.646  0.00  0.00     0.000 A 
ATOM     11  C   UNL d   1     -54.879 -99.466 -44.514  0.00  0.00     0.002 A 
ENDBRANCH   1   2
BRANCH   1  12
ATOM     12  N   UNL d   1     -58.037 -98.762 -44.871  0.00  0.00    -0.221 NA
BRANCH  12  13
ATOM     13  C   UNL d   1     -58.650 -98.914 -45.316  0.00  0.00     0.194 A 
ATOM     14  N   UNL d   1     -58.641 -99.199 -46.054  0.00  0.00    -0.219 NA
ATOM     15  C   UNL d   1     -59.354 -99.266 -46.286  0.00  0.00     0.108 A 
ATOM     16  C   UNL d   1     -59.823 -99.031 -45.719  0.00  0.00     0.059 A 
ATOM     17  S   UNL d   1     -59.391 -98.810 -45.112  0.00  0.00    -0.046 SA
ENDBRANCH  12  13
ENDBRANCH   1  12
BRANCH   1  18
ATOM     18  C   UNL d   1     -58.470 -99.103 -43.610  0.00  0.00     0.021 A 
ATOM     19  C   UNL d   1     -59.264 -99.280 -43.755  0.00  0.00     0.022 A 
ATOM     20  C   UNL d   1     -59.820 -99.199 -43.146  0.00  0.00     0.099 A 
ATOM     21  N   UNL d   1     -59.579 -98.943 -42.403  0.00  0.00    -0.242 NA
ATOM     22  C   UNL d   1     -58.781 -98.766 -42.260  0.00  0.00     0.099 A 
ATOM     23  C   UNL d   1     -58.229 -98.847 -42.867  0.00  0.00     0.022 A 
ENDBRANCH   1  18
TORSDOF 4
ENDMDL
MODEL 2
REMARK VINA RESULT:      65.1      2.034      3.344
REMARK  4 active torsions:
REMARK  status: ('A' for Active; 'I' for Inactive)
REMARK    1  A    between atoms: C_4  and  C_1 
REMARK    2  A    between atoms: N_8  and  C_4 
REMARK    3  A    between atoms: C_12  and  C_4 
REMARK    4  A    between atoms: C_5  and  N_8 
ROOT
ATOM      1  C   UNL d   1     -55.354-100.249 -43.904  0.00  0.00     0.085 C 
ENDROOT
BRANCH   1   2
ATOM      2  C   UNL d   1     -55.207-101.022 -43.653  0.00  0.00     0.037 A 
ATOM      3  C   UNL d   1     -55.195-101.702 -44.139  0.00  0.00     0.083 A 
ATOM      4  N   UNL d   1     -55.029-102.342 -43.659  0.00  0.00    -0.245 NA
ATOM      5  C   UNL d   1     -55.327-101.722 -44.954  0.00  0.00     0.021 C 
ATOM      6  C   UNL d   1     -54.940-102.061 -42.887  0.00  0.00     0.081 A 
ATOM      7  C   UNL d   1     -55.050-101.256 -42.893  0.00  0.00     0.021 A 
ATOM      8  C   UNL d   1     -54.769-102.460 -42.181  0.00  0.00     0.019 A 
ATOM      9  C   UNL d   1     -54.992-100.832 -42.192  0.00  0.00     0.002 A 
ATOM     10  C   UNL d   1     -54.822-101.214 -41.481  0.00  0.00     0.000 A 
ATOM     11  C   UNL d   1     -54.712-102.020 -41.475  0.00  0.00     0.002 A 
ENDBRANCH   1   2
BRANCH   1  12
ATOM     12  N   UNL d   1     -54.772 -99.775 -44.118  0.00  0.00    -0.221 NA
BRANCH  12  13
ATOM     13  C   UNL d   1     -54.752 -99.516 -44.847  0.00  0.00     0.194 A 
ATOM     14  N   UNL d   1     -54.726 -99.954 -45.505  0.00  0.00    -0.219 NA
ATOM     15  C   UNL d   1     -54.713 -99.487 -46.095  0.00  0.00     0.108 A 
ATOM     16  C   UNL d   1     -54.728 -98.759 -45.836  0.00  0.00     0.059 A 
ATOM     17  S   UNL d   1     -54.753 -98.770 -45.059  0.00  0.00    -0.046 SA
ENDBRANCH  12  13
ENDBRANCH   1  12
BRANCH   1  18
ATOM     18  C   UNL d   1     -56.124 -99.952 -43.937  0.00  0.00     0.021 A 
ATOM     19  C   UNL d   1     -56.240 -99.139 -43.852  0.00  0.00     0.022 A 
ATOM     20  C   UNL d   1     -57.007 -98.828 -43.882  0.00  0.00     0.099 A 
ATOM     21  N   UNL d   1     -57.648 -99.331 -43.997  0.00  0.00    -0.242 NA
ATOM     22  C   UNL d   1     -57.529-100.148 -44.082  0.00  0.00     0.099 A 
ATOM     23  C   UNL d   1     -56.765-100.455 -44.051  0.00  0.00     0.022 A 
ENDBRANCH   1  18
TORSDOF 4
ENDMDL
