MODEL 1
REMARK VINA RESULT:      -3.0      0.000      0.000
REMARK  3 active torsions:
REMARK  status: ('A' for Active; 'I' for Inactive)
REMARK    1  A    between atoms: S_7  and  C_3 
REMARK       I    between atoms: N_4  and  C_5 
REMARK    2  A    between atoms: C_5  and  C_10 
REMARK    3  A    between atoms: C_10  and  S_7 
ROOT
ATOM      1  N   UNL d   1      31.472  17.674 -24.061  0.00  0.00    -0.236 NA
ATOM      2  N   UNL d   1      31.904  16.091 -23.850  0.00  0.00    -0.242 NA
ATOM      3  C   UNL d   1      32.254  17.488 -23.874  0.00  0.00     0.129 A 
ATOM      4  C   UNL d   1      32.472  16.689 -23.768  0.00  0.00     0.105 A 
ATOM      5  C   UNL d   1      30.910  17.086 -24.143  0.00  0.00     0.100 A 
ATOM      6  C   UNL d   1      31.128  16.287 -24.036  0.00  0.00     0.099 A 
ATOM      7  C   UNL d   1      33.241  16.491 -23.583  0.00  0.00     0.023 C 
ATOM      8  C   UNL d   1      30.564  15.690 -24.118  0.00  0.00     0.021 A 
ATOM      9  C   UNL d   1      30.132  17.273 -24.329  0.00  0.00     0.021 A 
ATOM     10  C   UNL d   1      29.776  15.895 -24.307  0.00  0.00     0.002 A 
ATOM     11  C   UNL d   1      29.562  16.682 -24.412  0.00  0.00     0.002 A 
ENDROOT
BRANCH   3  12
ATOM     12  S   UNL d   1      32.806  18.086 -23.795  0.00  0.00    -0.061 SA
BRANCH  12  13
ATOM     13  C   UNL d   1      32.700  18.675 -23.242  0.00  0.00     0.098 C 
BRANCH  13  14
ATOM     14  C   UNL d   1      32.970  19.448 -23.399  0.00  0.00     0.271 C 
ATOM     15  N   UNL d   1      32.970  20.006 -22.785  0.00  0.00    -0.272 N 
ATOM     16  C   UNL d   1      33.240  20.783 -22.941  0.00  0.00     0.083 A 
ATOM     17  C   UNL d   1      32.710  19.803 -22.040  0.00  0.00     0.083 A 
ATOM     18  C   UNL d   1      33.239  21.334 -22.329  0.00  0.00     0.019 A 
ATOM     19  C   UNL d   1      32.979  21.130 -21.584  0.00  0.00     0.003 A 
ATOM     20  C   UNL d   1      32.714  20.372 -21.432  0.00  0.00     0.019 A 
ATOM     21  C   UNL d   1      32.987  21.721 -20.963  0.00  0.00     0.000 C 
ATOM     22  O   UNL d   1      33.231  19.653 -24.148  0.00  0.00    -0.266 OA
ENDBRANCH  13  14
ENDBRANCH  12  13
ENDBRANCH   3  12
TORSDOF 3
ENDMDL
MODEL 2
REMARK VINA RESULT:      -2.7      2.178      5.529
REMARK  3 active torsions:
REMARK  status: ('A' for Active; 'I' for Inactive)
REMARK    1  A    between atoms: S_7  and  C_3 
REMARK       I    between atoms: N_4  and  C_5 
REMARK    2  A    between atoms: C_5  and  C_10 
REMARK    3  A    between atoms: C_10  and  S_7 
ROOT
ATOM      1  N   UNL d   1      33.121  21.924 -21.638  0.00  0.00    -0.236 NA
ATOM      2  N   UNL d   1      32.761  23.524 -21.867  0.00  0.00    -0.242 NA
ATOM      3  C   UNL d   1      33.087  22.227 -22.406  0.00  0.00     0.129 A 
ATOM      4  C   UNL d   1      32.906  23.034 -22.521  0.00  0.00     0.105 A 
ATOM      5  C   UNL d   1      32.979  22.405 -20.992  0.00  0.00     0.100 A 
ATOM      6  C   UNL d   1      32.797  23.212 -21.108  0.00  0.00     0.099 A 
ATOM      7  C   UNL d   1      32.869  23.347 -23.273  0.00  0.00     0.023 C 
ATOM      8  C   UNL d   1      32.653  23.701 -20.459  0.00  0.00     0.021 A 
ATOM      9  C   UNL d   1      33.013  22.102 -20.230  0.00  0.00     0.021 A 
ATOM     10  C   UNL d   1      32.691  23.379 -19.688  0.00  0.00     0.002 A 
ATOM     11  C   UNL d   1      32.870  22.584 -19.575  0.00  0.00     0.002 A 
ENDROOT
BRANCH   3  12
ATOM     12  S   UNL d   1      33.232  21.736 -23.043  0.00  0.00    -0.061 SA
BRANCH  12  13
ATOM     13  C   UNL d   1      33.240  20.927 -22.946  0.00  0.00     0.098 C 
BRANCH  13  14
ATOM     14  C   UNL d   1      33.219  20.426 -23.612  0.00  0.00     0.271 C 
ATOM     15  N   UNL d   1      33.178  19.606 -23.498  0.00  0.00    -0.272 N 
ATOM     16  C   UNL d   1      33.156  19.101 -24.165  0.00  0.00     0.083 A 
ATOM     17  C   UNL d   1      33.158  19.292 -22.745  0.00  0.00     0.083 A 
ATOM     18  C   UNL d   1      33.115  18.288 -24.048  0.00  0.00     0.019 A 
ATOM     19  C   UNL d   1      33.095  17.975 -23.296  0.00  0.00     0.003 A 
ATOM     20  C   UNL d   1      33.116  18.467 -22.643  0.00  0.00     0.019 A 
ATOM     21  C   UNL d   1      33.052  17.125 -23.198  0.00  0.00     0.000 C 
ATOM     22  O   UNL d   1      33.239  20.741 -24.368  0.00  0.00    -0.266 OA
ENDBRANCH  13  14
ENDBRANCH  12  13
ENDBRANCH   3  12
TORSDOF 3
ENDMDL
MODEL 3
REMARK VINA RESULT:      -2.3      1.844      2.633
REMARK  3 active torsions:
REMARK  status: ('A' for Active; 'I' for Inactive)
REMARK    1  A    between atoms: S_7  and  C_3 
REMARK       I    between atoms: N_4  and  C_5 
REMARK    2  A    between atoms: C_5  and  C_10 
REMARK    3  A    between atoms: C_10  and  S_7 
ROOT
ATOM      1  N   UNL d   1      33.238  19.130 -23.132  0.00  0.00    -0.236 NA
ATOM      2  N   UNL d   1      32.868  18.651 -24.672  0.00  0.00    -0.242 NA
ATOM      3  C   UNL d   1      33.147  19.699 -23.723  0.00  0.00     0.129 A 
ATOM      4  C   UNL d   1      32.960  19.457 -24.500  0.00  0.00     0.105 A 
ATOM      5  C   UNL d   1      33.148  18.334 -23.299  0.00  0.00     0.100 A 
ATOM      6  C   UNL d   1      32.961  18.093 -24.076  0.00  0.00     0.099 A 
ATOM      7  C   UNL d   1      32.867  20.008 -25.094  0.00  0.00     0.023 C 
ATOM      8  C   UNL d   1      32.869  17.291 -24.250  0.00  0.00     0.021 A 
ATOM      9  C   UNL d   1      33.239  17.770 -22.710  0.00  0.00     0.021 A 
ATOM     10  C   UNL d   1      32.965  16.728 -23.640  0.00  0.00     0.002 A 
ATOM     11  C   UNL d   1      33.149  16.966 -22.874  0.00  0.00     0.002 A 
ENDROOT
BRANCH   3  12
ATOM     12  S   UNL d   1      33.239  20.490 -23.542  0.00  0.00    -0.061 SA
BRANCH  12  13
ATOM     13  C   UNL d   1      33.103  20.759 -22.785  0.00  0.00     0.098 C 
BRANCH  13  14
ATOM     14  C   UNL d   1      33.121  21.577 -22.623  0.00  0.00     0.271 C 
ATOM     15  N   UNL d   1      33.016  21.834 -21.842  0.00  0.00    -0.272 N 
ATOM     16  C   UNL d   1      33.033  22.655 -21.677  0.00  0.00     0.083 A 
ATOM     17  C   UNL d   1      32.899  21.297 -21.240  0.00  0.00     0.083 A 
ATOM     18  C   UNL d   1      32.929  22.906 -20.901  0.00  0.00     0.019 A 
ATOM     19  C   UNL d   1      32.812  22.369 -20.299  0.00  0.00     0.003 A 
ATOM     20  C   UNL d   1      32.795  21.567 -20.459  0.00  0.00     0.019 A 
ATOM     21  C   UNL d   1      32.706  22.654 -19.498  0.00  0.00     0.000 C 
ATOM     22  O   UNL d   1      33.239  22.117 -23.227  0.00  0.00    -0.266 OA
ENDBRANCH  13  14
ENDBRANCH  12  13
ENDBRANCH   3  12
TORSDOF 3
ENDMDL
MODEL 4
REMARK VINA RESULT:      -0.5      2.633      6.163
REMARK  3 active torsions:
REMARK  status: ('A' for Active; 'I' for Inactive)
REMARK    1  A    between atoms: S_7  and  C_3 
REMARK       I    between atoms: N_4  and  C_5 
REMARK    2  A    between atoms: C_5  and  C_10 
REMARK    3  A    between atoms: C_10  and  S_7 
ROOT
ATOM      1  N   UNL d   1      33.239  21.782 -19.652  0.00  0.00    -0.236 NA
ATOM      2  N   UNL d   1      33.018  23.392 -19.342  0.00  0.00    -0.242 NA
ATOM      3  C   UNL d   1      33.184  22.313 -20.282  0.00  0.00     0.129 A 
ATOM      4  C   UNL d   1      33.072  23.125 -20.126  0.00  0.00     0.105 A 
ATOM      5  C   UNL d   1      33.186  22.043 -18.879  0.00  0.00     0.100 A 
ATOM      6  C   UNL d   1      33.074  22.855 -18.722  0.00  0.00     0.099 A 
ATOM      7  C   UNL d   1      33.016  23.661 -20.738  0.00  0.00     0.023 C 
ATOM      8  C   UNL d   1      33.020  23.124 -17.944  0.00  0.00     0.021 A 
ATOM      9  C   UNL d   1      33.241  21.513 -18.254  0.00  0.00     0.021 A 
ATOM     10  C   UNL d   1      33.078  22.573 -17.317  0.00  0.00     0.002 A 
ATOM     11  C   UNL d   1      33.188  21.772 -17.471  0.00  0.00     0.002 A 
ENDROOT
BRANCH   3  12
ATOM     12  S   UNL d   1      33.238  22.038 -21.050  0.00  0.00    -0.061 SA
BRANCH  12  13
ATOM     13  C   UNL d   1      33.232  21.238 -21.203  0.00  0.00     0.098 C 
BRANCH  13  14
ATOM     14  C   UNL d   1      33.189  20.964 -21.990  0.00  0.00     0.271 C 
ATOM     15  N   UNL d   1      33.192  20.147 -22.132  0.00  0.00    -0.272 N 
ATOM     16  C   UNL d   1      33.148  19.870 -22.920  0.00  0.00     0.083 A 
ATOM     17  C   UNL d   1      33.237  19.619 -21.513  0.00  0.00     0.083 A 
ATOM     18  C   UNL d   1      33.152  19.059 -23.057  0.00  0.00     0.019 A 
ATOM     19  C   UNL d   1      33.197  18.531 -22.438  0.00  0.00     0.003 A 
ATOM     20  C   UNL d   1      33.239  18.800 -21.667  0.00  0.00     0.019 A 
ATOM     21  C   UNL d   1      33.199  17.690 -22.605  0.00  0.00     0.000 C 
ATOM     22  O   UNL d   1      33.144  21.495 -22.612  0.00  0.00    -0.266 OA
ENDBRANCH  13  14
ENDBRANCH  12  13
ENDBRANCH   3  12
TORSDOF 3
ENDMDL
