MODEL 1
REMARK VINA RESULT:      -6.0      0.000      0.000
REMARK  3 active torsions:
REMARK  status: ('A' for Active; 'I' for Inactive)
REMARK    1  A    between atoms: N_4  and  C_1 
REMARK    2  A    between atoms: C_9  and  C_3 
REMARK    3  A    between atoms: C_7  and  N_4 
ROOT
ATOM      1  C   UNL d   1      58.209  -0.217  29.906  0.00  0.00     0.196 A 
ATOM      2  N   UNL d   1      57.567  -0.524  30.367  0.00  0.00    -0.221 NA
ATOM      3  C   UNL d   1      57.515  -0.054  31.009  0.00  0.00     0.090 A 
ATOM      4  S   UNL d   1      58.532   0.422  30.267  0.00  0.00    -0.046 SA
ATOM      5  C   UNL d   1      58.100   0.539  30.973  0.00  0.00     0.058 A 
ENDROOT
BRANCH   1   6
ATOM      6  N   UNL d   1      58.511  -0.513  29.150  0.00  0.00    -0.202 NA
BRANCH   6   7
ATOM      7  C   UNL d   1      58.959  -1.218  29.132  0.00  0.00     0.165 A 
ATOM      8  N   UNL d   1      59.774  -1.038  29.113  0.00  0.00    -0.225 NA
ATOM      9  C   UNL d   1      60.412  -1.592  29.091  0.00  0.00     0.101 A 
ATOM     10  C   UNL d   1      60.395  -2.400  29.084  0.00  0.00     0.021 A 
ATOM     11  C   UNL d   1      59.723  -2.899  29.096  0.00  0.00     0.002 A 
ATOM     12  C   UNL d   1      58.930  -2.708  29.118  0.00  0.00     0.003 A 
ATOM     13  C   UNL d   1      58.583  -1.940  29.135  0.00  0.00     0.039 A 
ENDBRANCH   6   7
ENDBRANCH   1   6
BRANCH   3  14
ATOM     14  C   UNL d   1      56.984  -0.113  31.631  0.00  0.00     0.018 A 
ATOM     15  C   UNL d   1      56.777  -0.852  31.916  0.00  0.00     0.002 A 
ATOM     16  C   UNL d   1      56.248  -0.919  32.535  0.00  0.00     0.007 A 
ATOM     17  C   UNL d   1      55.910  -0.233  32.887  0.00  0.00     0.035 A 
ATOM     18  C   UNL d   1      56.121   0.516  32.595  0.00  0.00     0.007 A 
ATOM     19 BR   UNL d   1      55.372  -0.251  33.513  0.00  0.00    -0.049 Br
ATOM     20  C   UNL d   1      56.653   0.574  31.973  0.00  0.00     0.002 A 
ENDBRANCH   3  14
TORSDOF 3
ENDMDL
MODEL 2
REMARK VINA RESULT:      -4.7      1.903      4.418
REMARK  3 active torsions:
REMARK  status: ('A' for Active; 'I' for Inactive)
REMARK    1  A    between atoms: N_4  and  C_1 
REMARK    2  A    between atoms: C_9  and  C_3 
REMARK    3  A    between atoms: C_7  and  N_4 
ROOT
ATOM      1  C   UNL d   1      57.992  -0.069  30.013  0.00  0.00     0.196 A 
ATOM      2  N   UNL d   1      58.122  -0.903  29.929  0.00  0.00    -0.221 NA
ATOM      3  C   UNL d   1      58.787  -0.977  29.496  0.00  0.00     0.090 A 
ATOM      4  S   UNL d   1      58.568   0.344  29.638  0.00  0.00    -0.046 SA
ATOM      5  C   UNL d   1      59.085  -0.222  29.303  0.00  0.00     0.058 A 
ENDROOT
BRANCH   1   6
ATOM      6  N   UNL d   1      57.347   0.330  30.431  0.00  0.00    -0.202 NA
BRANCH   6   7
ATOM      7  C   UNL d   1      57.279   0.247  31.260  0.00  0.00     0.165 A 
ATOM      8  N   UNL d   1      56.685  -0.311  31.444  0.00  0.00    -0.225 NA
ATOM      9  C   UNL d   1      56.444  -0.554  32.215  0.00  0.00     0.101 A 
ATOM     10  C   UNL d   1      56.715  -0.319  32.940  0.00  0.00     0.021 A 
ATOM     11  C   UNL d   1      57.317   0.238  33.107  0.00  0.00     0.002 A 
ATOM     12  C   UNL d   1      57.777   0.678  32.597  0.00  0.00     0.003 A 
ATOM     13  C   UNL d   1      57.758   0.681  31.754  0.00  0.00     0.039 A 
ENDBRANCH   6   7
ENDBRANCH   1   6
BRANCH   3  14
ATOM     14  C   UNL d   1      59.155  -1.670  29.258  0.00  0.00     0.018 A 
ATOM     15  C   UNL d   1      59.972  -1.714  29.259  0.00  0.00     0.002 A 
ATOM     16  C   UNL d   1      60.345  -2.402  29.023  0.00  0.00     0.007 A 
ATOM     17  C   UNL d   1      59.898  -3.071  28.777  0.00  0.00     0.035 A 
ATOM     18  C   UNL d   1      59.069  -3.023  28.777  0.00  0.00     0.007 A 
ATOM     19 BR   UNL d   1      60.230  -3.785  28.530  0.00  0.00    -0.049 Br
ATOM     20  C   UNL d   1      58.701  -2.330  29.015  0.00  0.00     0.002 A 
ENDBRANCH   3  14
TORSDOF 3
ENDMDL
MODEL 3
REMARK VINA RESULT:      -3.5      1.230      1.792
REMARK  3 active torsions:
REMARK  status: ('A' for Active; 'I' for Inactive)
REMARK    1  A    between atoms: N_4  and  C_1 
REMARK    2  A    between atoms: C_9  and  C_3 
REMARK    3  A    between atoms: C_7  and  N_4 
ROOT
ATOM      1  C   UNL d   1      57.400   0.126  30.944  0.00  0.00     0.196 A 
ATOM      2  N   UNL d   1      57.057   0.578  31.575  0.00  0.00    -0.221 NA
ATOM      3  C   UNL d   1      56.810   0.045  32.115  0.00  0.00     0.090 A 
ATOM      4  S   UNL d   1      57.358  -0.658  31.106  0.00  0.00    -0.046 SA
ATOM      5  C   UNL d   1      56.983  -0.727  31.851  0.00  0.00     0.058 A 
ENDROOT
BRANCH   1   6
ATOM      6  N   UNL d   1      57.757   0.420  30.212  0.00  0.00    -0.202 NA
BRANCH   6   7
ATOM      7  C   UNL d   1      58.505   0.133  29.973  0.00  0.00     0.165 A 
ATOM      8  N   UNL d   1      59.101   0.679  30.183  0.00  0.00    -0.225 NA
ATOM      9  C   UNL d   1      59.929   0.599  30.041  0.00  0.00     0.101 A 
ATOM     10  C   UNL d   1      60.338   0.001  29.682  0.00  0.00     0.021 A 
ATOM     11  C   UNL d   1      60.030  -0.705  29.354  0.00  0.00     0.002 A 
ATOM     12  C   UNL d   1      59.259  -0.969  29.311  0.00  0.00     0.003 A 
ATOM     13  C   UNL d   1      58.564  -0.585  29.595  0.00  0.00     0.039 A 
ENDBRANCH   6   7
ENDBRANCH   1   6
BRANCH   3  14
ATOM     14  C   UNL d   1      56.440   0.194  32.831  0.00  0.00     0.018 A 
ATOM     15  C   UNL d   1      55.648   0.008  32.921  0.00  0.00     0.002 A 
ATOM     16  C   UNL d   1      55.271   0.153  33.632  0.00  0.00     0.007 A 
ATOM     17  C   UNL d   1      55.689   0.494  34.278  0.00  0.00     0.035 A 
ATOM     18  C   UNL d   1      56.493   0.682  34.183  0.00  0.00     0.007 A 
ATOM     19 BR   UNL d   1      55.352   0.658  35.013  0.00  0.00    -0.049 Br
ATOM     20  C   UNL d   1      56.863   0.533  33.467  0.00  0.00     0.002 A 
ENDBRANCH   3  14
TORSDOF 3
ENDMDL
MODEL 4
REMARK VINA RESULT:      -3.4      2.115      4.528
REMARK  3 active torsions:
REMARK  status: ('A' for Active; 'I' for Inactive)
REMARK    1  A    between atoms: N_4  and  C_1 
REMARK    2  A    between atoms: C_9  and  C_3 
REMARK    3  A    between atoms: C_7  and  N_4 
ROOT
ATOM      1  C   UNL d   1      57.348   0.445  31.396  0.00  0.00     0.196 A 
ATOM      2  N   UNL d   1      57.662   0.166  30.659  0.00  0.00    -0.221 NA
ATOM      3  C   UNL d   1      58.453   0.242  30.716  0.00  0.00     0.090 A 
ATOM      4  S   UNL d   1      57.942   0.682  31.881  0.00  0.00    -0.046 SA
ATOM      5  C   UNL d   1      58.654   0.559  31.461  0.00  0.00     0.058 A 
ENDROOT
BRANCH   1   6
ATOM      6  N   UNL d   1      56.519   0.489  31.640  0.00  0.00    -0.202 NA
BRANCH   6   7
ATOM      7  C   UNL d   1      56.249   0.017  32.275  0.00  0.00     0.165 A 
ATOM      8  N   UNL d   1      56.003   0.503  32.908  0.00  0.00    -0.225 NA
ATOM      9  C   UNL d   1      55.695   0.245  33.650  0.00  0.00     0.101 A 
ATOM     10  C   UNL d   1      55.565  -0.504  33.925  0.00  0.00     0.021 A 
ATOM     11  C   UNL d   1      55.710  -1.228  33.529  0.00  0.00     0.002 A 
ATOM     12  C   UNL d   1      56.010  -1.363  32.782  0.00  0.00     0.003 A 
ATOM     13  C   UNL d   1      56.256  -0.794  32.211  0.00  0.00     0.039 A 
ENDBRANCH   6   7
ENDBRANCH   1   6
BRANCH   3  14
ATOM     14  C   UNL d   1      59.017   0.050  30.152  0.00  0.00     0.018 A 
ATOM     15  C   UNL d   1      58.904  -0.607  29.678  0.00  0.00     0.002 A 
ATOM     16  C   UNL d   1      59.460  -0.805  29.113  0.00  0.00     0.007 A 
ATOM     17  C   UNL d   1      60.153  -0.339  29.011  0.00  0.00     0.035 A 
ATOM     18  C   UNL d   1      60.265   0.328  29.493  0.00  0.00     0.007 A 
ATOM     19 BR   UNL d   1      60.742  -0.499  28.455  0.00  0.00    -0.049 Br
ATOM     20  C   UNL d   1      59.702   0.520  30.058  0.00  0.00     0.002 A 
ENDBRANCH   3  14
TORSDOF 3
ENDMDL
