MODEL 1
REMARK VINA RESULT:      85.7      0.000      0.000
REMARK  6 active torsions:
REMARK  status: ('A' for Active; 'I' for Inactive)
REMARK    1  A    between atoms: C_8  and  C_1 
REMARK    2  A    between atoms: C_13  and  N_2 
REMARK    3  A    between atoms: C_7  and  C_4 
REMARK    4  A    between atoms: C_6  and  C_8 
REMARK    5  A    between atoms: C_21  and  C_13 
REMARK    6  A    between atoms: N_22  and  C_21 
ROOT
ATOM      1  C   UNL d   1     -48.749  29.418  34.737  0.00  0.00     0.103 A 
ATOM      2  N   UNL d   1     -48.276  30.624  34.421  0.00  0.00    -0.267 N 
ATOM      3  C   UNL d   1     -49.232  29.735  34.145  0.00  0.00     0.256 A 
ATOM      4  C   UNL d   1     -48.162  29.967  34.904  0.00  0.00     0.096 A 
ATOM      5  C   UNL d   1     -48.939  30.482  33.950  0.00  0.00     0.304 A 
ATOM      6  O   UNL d   1     -49.260  30.990  33.380  0.00  0.00    -0.263 OA
ATOM      7  O   UNL d   1     -49.895  29.370  33.805  0.00  0.00    -0.281 OA
ENDROOT
BRANCH   1   8
ATOM      8  C   UNL d   1     -48.843  28.683  35.092  0.00  0.00     0.223 C 
ATOM      9  O   UNL d   1     -48.617  28.571  35.880  0.00  0.00    -0.284 OA
BRANCH   8  10
ATOM     10  C   UNL d   1     -49.163  28.046  34.671  0.00  0.00     0.139 A 
ATOM     11  O   UNL d   1     -48.760  27.369  34.423  0.00  0.00    -0.304 OA
ATOM     12  C   UNL d   1     -49.298  26.887  34.025  0.00  0.00     0.100 A 
ATOM     13  C   UNL d   1     -49.213  26.157  33.664  0.00  0.00     0.025 A 
ATOM     14  C   UNL d   1     -50.027  27.260  34.027  0.00  0.00     0.025 A 
ATOM     15  C   UNL d   1     -49.854  25.801  33.306  0.00  0.00     0.002 A 
ATOM     16  C   UNL d   1     -50.584  26.173  33.306  0.00  0.00     0.000 A 
ATOM     17  C   UNL d   1     -50.675  26.904  33.666  0.00  0.00     0.002 A 
ATOM     18  C   UNL d   1     -49.941  27.979  34.428  0.00  0.00     0.030 A 
ENDBRANCH   8  10
ENDBRANCH   1   8
BRANCH   4  19
ATOM     19  C   UNL d   1     -47.554  29.872  35.469  0.00  0.00     0.116 A 
ATOM     20  O   UNL d   1     -47.511  30.095  36.261  0.00  0.00    -0.306 OA
ATOM     21  C   UNL d   1     -46.783  29.864  36.551  0.00  0.00     0.100 A 
ATOM     22  C   UNL d   1     -46.504  29.976  37.320  0.00  0.00     0.027 C 
ATOM     23  C   UNL d   1     -46.364  29.494  35.944  0.00  0.00     0.027 A 
ATOM     24  C   UNL d   1     -46.846  29.499  35.268  0.00  0.00     0.028 A 
ENDBRANCH   4  19
BRANCH   2  25
ATOM     25  C   UNL d   1     -47.814  31.309  34.403  0.00  0.00     0.102 C 
BRANCH  25  26
ATOM     26  C   UNL d   1     -48.122  32.007  34.082  0.00  0.00     0.100 C 
BRANCH  26  27
ATOM     27  N   UNL d   1     -47.656  32.691  34.043  0.00  0.00    -0.299 N 
ATOM     28  C   UNL d   1     -47.033  32.792  34.575  0.00  0.00     0.100 C 
ATOM     29  C   UNL d   1     -47.819  33.261  33.474  0.00  0.00     0.100 C 
ENDBRANCH  26  27
ENDBRANCH  25  26
ENDBRANCH   2  25
TORSDOF 6
ENDMDL
MODEL 2
REMARK VINA RESULT:      88.4      2.337      5.723
REMARK  6 active torsions:
REMARK  status: ('A' for Active; 'I' for Inactive)
REMARK    1  A    between atoms: C_8  and  C_1 
REMARK    2  A    between atoms: C_13  and  N_2 
REMARK    3  A    between atoms: C_7  and  C_4 
REMARK    4  A    between atoms: C_6  and  C_8 
REMARK    5  A    between atoms: C_21  and  C_13 
REMARK    6  A    between atoms: N_22  and  C_21 
ROOT
ATOM      1  C   UNL d   1     -50.093  27.010  33.570  0.00  0.00     0.103 A 
ATOM      2  N   UNL d   1     -50.543  25.766  33.404  0.00  0.00    -0.267 N 
ATOM      3  C   UNL d   1     -49.440  26.504  33.538  0.00  0.00     0.256 A 
ATOM      4  C   UNL d   1     -50.770  26.554  33.487  0.00  0.00     0.096 A 
ATOM      5  C   UNL d   1     -49.719  25.734  33.435  0.00  0.00     0.304 A 
ATOM      6  O   UNL d   1     -49.248  25.056  33.375  0.00  0.00    -0.263 OA
ATOM      7  O   UNL d   1     -48.643  26.727  33.599  0.00  0.00    -0.281 OA
ENDROOT
BRANCH   1   8
ATOM      8  C   UNL d   1     -50.065  27.825  33.668  0.00  0.00     0.223 C 
ATOM      9  O   UNL d   1     -50.649  28.304  33.328  0.00  0.00    -0.284 OA
BRANCH   8  10
ATOM     10  C   UNL d   1     -49.459  28.180  34.105  0.00  0.00     0.139 A 
ATOM     11  O   UNL d   1     -49.050  27.846  34.740  0.00  0.00    -0.304 OA
ATOM     12  C   UNL d   1     -48.497  28.398  35.003  0.00  0.00     0.100 A 
ATOM     13  C   UNL d   1     -47.945  28.372  35.607  0.00  0.00     0.025 A 
ATOM     14  C   UNL d   1     -48.561  29.068  34.536  0.00  0.00     0.025 A 
ATOM     15  C   UNL d   1     -47.459  29.014  35.745  0.00  0.00     0.002 A 
ATOM     16  C   UNL d   1     -47.522  29.685  35.278  0.00  0.00     0.000 A 
ATOM     17  C   UNL d   1     -48.072  29.716  34.672  0.00  0.00     0.002 A 
ATOM     18  C   UNL d   1     -49.158  28.930  33.979  0.00  0.00     0.030 A 
ENDBRANCH   8  10
ENDBRANCH   1   8
BRANCH   4  19
ATOM     19  C   UNL d   1     -51.555  26.842  33.488  0.00  0.00     0.116 A 
ATOM     20  O   UNL d   1     -52.269  26.465  33.330  0.00  0.00    -0.306 OA
ATOM     21  C   UNL d   1     -52.869  27.014  33.412  0.00  0.00     0.100 A 
ATOM     22  C   UNL d   1     -53.677  26.877  33.306  0.00  0.00     0.027 C 
ATOM     23  C   UNL d   1     -52.536  27.739  33.622  0.00  0.00     0.027 A 
ATOM     24  C   UNL d   1     -51.713  27.631  33.670  0.00  0.00     0.028 A 
ENDBRANCH   4  19
BRANCH   2  25
ATOM     25  C   UNL d   1     -51.045  25.117  33.305  0.00  0.00     0.102 C 
BRANCH  25  26
ATOM     26  C   UNL d   1     -51.078  24.528  33.886  0.00  0.00     0.100 C 
BRANCH  26  27
ATOM     27  N   UNL d   1     -51.387  23.781  33.708  0.00  0.00    -0.299 N 
ATOM     28  C   UNL d   1     -52.178  23.614  33.875  0.00  0.00     0.100 C 
ATOM     29  C   UNL d   1     -50.902  23.213  33.365  0.00  0.00     0.100 C 
ENDBRANCH  26  27
ENDBRANCH  25  26
ENDBRANCH   2  25
TORSDOF 6
ENDMDL
