MODEL 1
REMARK VINA RESULT:      -9.6      0.000      0.000
REMARK  3 active torsions:
REMARK  status: ('A' for Active; 'I' for Inactive)
REMARK    1  A    between atoms: C_9  and  C_1 
REMARK       I    between atoms: C_4  and  N_8 
REMARK    2  A    between atoms: C_5  and  C_4 
REMARK    3  A    between atoms: N_8  and  C_17 
ROOT
ATOM      1  C   UNL d   1      51.728  33.856  53.136  0.00  0.00     0.036 A 
ATOM      2  C   UNL d   1      51.037  33.578  53.466  0.00  0.00     0.005 A 
ATOM      3  C   UNL d   1      51.718  34.334  52.480  0.00  0.00     0.005 A 
ATOM      4  C   UNL d   1      50.300  34.270  52.465  0.00  0.00     0.085 A 
ATOM      5  C   UNL d   1      50.310  33.792  53.120  0.00  0.00     0.019 A 
ATOM      6  C   UNL d   1      51.021  34.556  52.125  0.00  0.00     0.019 A 
ENDROOT
BRANCH   1   7
ATOM      7  C   UNL d   1      52.454  33.643  53.482  0.00  0.00     0.162 A 
ATOM      8  N   UNL d   1      52.983  33.024  53.290  0.00  0.00    -0.225 NA
ATOM      9  C   UNL d   1      53.601  33.079  53.810  0.00  0.00     0.101 A 
ATOM     10  C   UNL d   1      54.298  32.630  53.907  0.00  0.00     0.021 A 
ATOM     11  C   UNL d   1      53.453  33.721  54.312  0.00  0.00     0.101 A 
ATOM     12  C   UNL d   1      54.837  32.824  54.500  0.00  0.00     0.002 A 
ATOM     13  C   UNL d   1      54.689  33.466  55.002  0.00  0.00     0.002 A 
ATOM     14  C   UNL d   1      54.002  33.914  54.911  0.00  0.00     0.021 A 
ATOM     15  N   UNL d   1      52.746  34.054  54.095  0.00  0.00    -0.225 NA
ENDBRANCH   1   7
BRANCH   4  16
ATOM     16  N   UNL d   1      49.574  34.484  52.119  0.00  0.00    -0.206 NA
ATOM     17  C   UNL d   1      49.099  35.079  52.451  0.00  0.00     0.302 C 
ATOM     18  O   UNL d   1      49.352  35.454  53.124  0.00  0.00    -0.263 OA
BRANCH  17  19
ATOM     19  C   UNL d   1      48.387  35.299  52.124  0.00  0.00     0.158 A 
ATOM     20  O   UNL d   1      48.076  35.059  51.410  0.00  0.00    -0.300 OA
ATOM     21  C   UNL d   1      47.331  35.434  51.314  0.00  0.00     0.123 A 
ATOM     22  C   UNL d   1      47.191  35.884  51.944  0.00  0.00     0.029 A 
ATOM     23  C   UNL d   1      47.816  35.824  52.456  0.00  0.00     0.032 A 
ENDBRANCH  17  19
ENDBRANCH   4  16
TORSDOF 3
ENDMDL
MODEL 2
REMARK VINA RESULT:      -8.9      1.431      5.451
REMARK  3 active torsions:
REMARK  status: ('A' for Active; 'I' for Inactive)
REMARK    1  A    between atoms: C_9  and  C_1 
REMARK       I    between atoms: C_4  and  N_8 
REMARK    2  A    between atoms: C_5  and  C_4 
REMARK    3  A    between atoms: N_8  and  C_17 
ROOT
ATOM      1  C   UNL d   1      50.338  34.325  52.561  0.00  0.00     0.036 A 
ATOM      2  C   UNL d   1      50.358  33.850  53.221  0.00  0.00     0.005 A 
ATOM      3  C   UNL d   1      51.013  34.497  52.145  0.00  0.00     0.005 A 
ATOM      4  C   UNL d   1      51.764  33.708  53.055  0.00  0.00     0.085 A 
ATOM      5  C   UNL d   1      51.089  33.537  53.471  0.00  0.00     0.019 A 
ATOM      6  C   UNL d   1      51.738  34.203  52.369  0.00  0.00     0.019 A 
ENDROOT
BRANCH   1   7
ATOM      7  C   UNL d   1      49.608  34.639  52.312  0.00  0.00     0.162 A 
ATOM      8  N   UNL d   1      49.172  34.504  51.611  0.00  0.00    -0.225 NA
ATOM      9  C   UNL d   1      48.503  34.956  51.664  0.00  0.00     0.101 A 
ATOM     10  C   UNL d   1      47.853  35.064  51.151  0.00  0.00     0.021 A 
ATOM     11  C   UNL d   1      48.528  35.361  52.386  0.00  0.00     0.101 A 
ATOM     12  C   UNL d   1      47.240  35.573  51.361  0.00  0.00     0.002 A 
ATOM     13  C   UNL d   1      47.265  35.978  52.083  0.00  0.00     0.002 A 
ATOM     14  C   UNL d   1      47.904  35.876  52.595  0.00  0.00     0.021 A 
ATOM     15  N   UNL d   1      49.213  35.154  52.769  0.00  0.00    -0.225 NA
ENDBRANCH   1   7
BRANCH   4  16
ATOM     16  N   UNL d   1      52.494  33.395  53.304  0.00  0.00    -0.206 NA
ATOM     17  C   UNL d   1      52.956  33.784  53.874  0.00  0.00     0.302 C 
ATOM     18  O   UNL d   1      52.687  34.480  54.191  0.00  0.00    -0.263 OA
BRANCH  17  19
ATOM     19  C   UNL d   1      53.672  33.490  54.127  0.00  0.00     0.158 A 
ATOM     20  O   UNL d   1      54.227  33.091  53.683  0.00  0.00    -0.300 OA
ATOM     21  C   UNL d   1      54.871  32.901  54.186  0.00  0.00     0.123 A 
ATOM     22  C   UNL d   1      54.718  33.173  54.908  0.00  0.00     0.029 A 
ATOM     23  C   UNL d   1      53.994  33.537  54.905  0.00  0.00     0.032 A 
ENDBRANCH  17  19
ENDBRANCH   4  16
TORSDOF 3
ENDMDL
MODEL 3
REMARK VINA RESULT:      -6.6     10.053     11.058
REMARK  3 active torsions:
REMARK  status: ('A' for Active; 'I' for Inactive)
REMARK    1  A    between atoms: C_9  and  C_1 
REMARK       I    between atoms: C_4  and  N_8 
REMARK    2  A    between atoms: C_5  and  C_4 
REMARK    3  A    between atoms: N_8  and  C_17 
ROOT
ATOM      1  C   UNL d   1      45.021  28.002  57.737  0.00  0.00     0.036 A 
ATOM      2  C   UNL d   1      45.600  27.441  57.849  0.00  0.00     0.005 A 
ATOM      3  C   UNL d   1      44.490  27.943  57.126  0.00  0.00     0.005 A 
ATOM      4  C   UNL d   1      45.112  26.736  56.713  0.00  0.00     0.085 A 
ATOM      5  C   UNL d   1      45.643  26.795  57.324  0.00  0.00     0.019 A 
ATOM      6  C   UNL d   1      44.512  27.322  56.601  0.00  0.00     0.019 A 
ENDROOT
BRANCH   1   7
ATOM      7  C   UNL d   1      44.978  28.647  58.261  0.00  0.00     0.162 A 
ATOM      8  N   UNL d   1      45.157  29.455  58.141  0.00  0.00    -0.225 NA
ATOM      9  C   UNL d   1      45.013  29.831  58.843  0.00  0.00     0.101 A 
ATOM     10  C   UNL d   1      45.083  30.629  59.080  0.00  0.00     0.021 A 
ATOM     11  C   UNL d   1      44.750  29.263  59.385  0.00  0.00     0.101 A 
ATOM     12  C   UNL d   1      44.891  30.849  59.851  0.00  0.00     0.002 A 
ATOM     13  C   UNL d   1      44.628  30.281  60.393  0.00  0.00     0.002 A 
ATOM     14  C   UNL d   1      44.557  29.491  60.165  0.00  0.00     0.021 A 
ATOM     15  N   UNL d   1      44.735  28.543  59.010  0.00  0.00    -0.225 NA
ENDBRANCH   1   7
BRANCH   4  16
ATOM     16  N   UNL d   1      45.154  26.091  56.188  0.00  0.00    -0.206 NA
ATOM     17  C   UNL d   1      44.765  25.376  56.354  0.00  0.00     0.302 C 
ATOM     18  O   UNL d   1      44.337  25.311  57.041  0.00  0.00    -0.263 OA
BRANCH  17  19
ATOM     19  C   UNL d   1      44.797  24.737  55.851  0.00  0.00     0.158 A 
ATOM     20  O   UNL d   1      44.876  24.751  55.040  0.00  0.00    -0.300 OA
ATOM     21  C   UNL d   1      44.882  23.957  54.768  0.00  0.00     0.123 A 
ATOM     22  C   UNL d   1      44.809  23.477  55.387  0.00  0.00     0.029 A 
ATOM     23  C   UNL d   1      44.755  23.922  56.062  0.00  0.00     0.032 A 
ENDBRANCH  17  19
ENDBRANCH   4  16
TORSDOF 3
ENDMDL
