MODEL 1
REMARK VINA RESULT:       8.4      0.000      0.000
REMARK  3 active torsions:
REMARK  status: ('A' for Active; 'I' for Inactive)
REMARK    1  A    between atoms: C_9  and  S_1 
REMARK       I    between atoms: C_4  and  N_8 
REMARK    2  A    between atoms: C_5  and  C_4 
REMARK    3  A    between atoms: N_8  and  C_18 
ROOT
ATOM      1  C   UNL d   1     -41.444-123.497 -50.591  0.00  0.00     0.302 C 
ATOM      2  N   UNL d   1     -41.124-123.718 -51.315  0.00  0.00    -0.206 NA
ATOM      3  O   UNL d   1     -41.146-123.816 -49.894  0.00  0.00    -0.263 OA
ENDROOT
BRANCH   1   4
ATOM      4  C   UNL d   1     -42.062-122.958 -50.557  0.00  0.00     0.161 A 
ATOM      5  O   UNL d   1     -41.907-122.148 -50.681  0.00  0.00    -0.268 OA
ATOM      6  C   UNL d   1     -42.531-121.599 -50.646  0.00  0.00     0.300 A 
ATOM      7  O   UNL d   1     -42.379-120.800 -50.768  0.00  0.00    -0.259 OA
ATOM      8  C   UNL d   1     -43.304-121.851 -50.490  0.00  0.00     0.064 A 
ATOM      9  C   UNL d   1     -43.451-122.663 -50.368  0.00  0.00     0.007 A 
ATOM     10  C   UNL d   1     -43.918-121.309 -50.457  0.00  0.00     0.005 A 
ATOM     11  C   UNL d   1     -42.836-123.214 -50.400  0.00  0.00     0.030 A 
ATOM     12  C   UNL d   1     -44.225-122.915 -50.212  0.00  0.00     0.000 A 
ATOM     13  C   UNL d   1     -44.836-122.361 -50.180  0.00  0.00     0.000 A 
ATOM     14  C   UNL d   1     -44.683-121.563 -50.302  0.00  0.00     0.000 A 
ENDBRANCH   1   4
BRANCH   2  15
ATOM     15  C   UNL d   1     -41.426-123.395 -52.013  0.00  0.00     0.085 A 
ATOM     16  C   UNL d   1     -42.017-123.791 -52.418  0.00  0.00     0.020 A 
ATOM     17  C   UNL d   1     -42.320-123.473 -53.113  0.00  0.00     0.015 A 
ATOM     18  C   UNL d   1     -42.025-122.754 -53.399  0.00  0.00     0.107 A 
ATOM     19  C   UNL d   1     -41.430-122.362 -52.984  0.00  0.00     0.015 A 
ATOM     20  C   UNL d   1     -41.130-122.677 -52.296  0.00  0.00     0.020 A 
BRANCH  18  21
ATOM     21  S   UNL d   1     -42.328-122.436 -54.095  0.00  0.00     0.302 S 
ATOM     22  O   UNL d   1     -42.290-121.662 -53.847  0.00  0.00    -0.197 OA
ATOM     23  O   UNL d   1     -42.364-123.226 -54.338  0.00  0.00    -0.197 OA
ATOM     24  N   UNL d   1     -42.636-122.202 -54.817  0.00  0.00    -0.043 N 
ENDBRANCH  18  21
ENDBRANCH   2  15
TORSDOF 3
ENDMDL
MODEL 2
REMARK VINA RESULT:      10.1      1.241      1.597
REMARK  3 active torsions:
REMARK  status: ('A' for Active; 'I' for Inactive)
REMARK    1  A    between atoms: C_9  and  S_1 
REMARK       I    between atoms: C_4  and  N_8 
REMARK    2  A    between atoms: C_5  and  C_4 
REMARK    3  A    between atoms: N_8  and  C_18 
ROOT
ATOM      1  C   UNL d   1     -41.783-122.892 -49.028  0.00  0.00     0.302 C 
ATOM      2  N   UNL d   1     -41.123-123.024 -49.498  0.00  0.00    -0.206 NA
ATOM      3  O   UNL d   1     -41.713-122.894 -48.209  0.00  0.00    -0.263 OA
ENDROOT
BRANCH   1   4
ATOM      4  C   UNL d   1     -42.517-122.756 -49.371  0.00  0.00     0.161 A 
ATOM      5  O   UNL d   1     -42.677-122.015 -49.718  0.00  0.00    -0.268 OA
ATOM      6  C   UNL d   1     -43.420-121.875 -50.066  0.00  0.00     0.300 A 
ATOM      7  O   UNL d   1     -43.577-121.145 -50.409  0.00  0.00    -0.259 OA
ATOM      8  C   UNL d   1     -44.000-122.466 -50.070  0.00  0.00     0.064 A 
ATOM      9  C   UNL d   1     -43.832-123.204 -49.720  0.00  0.00     0.007 A 
ATOM     10  C   UNL d   1     -44.731-122.326 -50.413  0.00  0.00     0.005 A 
ATOM     11  C   UNL d   1     -43.097-123.351 -49.372  0.00  0.00     0.030 A 
ATOM     12  C   UNL d   1     -44.413-123.795 -49.723  0.00  0.00     0.000 A 
ATOM     13  C   UNL d   1     -45.146-123.644 -50.071  0.00  0.00     0.000 A 
ATOM     14  C   UNL d   1     -45.303-122.914 -50.414  0.00  0.00     0.000 A 
ENDBRANCH   1   4
BRANCH   2  15
ATOM     15  C   UNL d   1     -41.197-123.020 -50.321  0.00  0.00     0.085 A 
ATOM     16  C   UNL d   1     -41.275-123.730 -50.722  0.00  0.00     0.020 A 
ATOM     17  C   UNL d   1     -41.349-123.731 -51.541  0.00  0.00     0.015 A 
ATOM     18  C   UNL d   1     -41.343-123.013 -51.955  0.00  0.00     0.107 A 
ATOM     19  C   UNL d   1     -41.264-122.304 -51.542  0.00  0.00     0.015 A 
ATOM     20  C   UNL d   1     -41.191-122.303 -50.732  0.00  0.00     0.020 A 
BRANCH  18  21
ATOM     21  S   UNL d   1     -41.417-123.014 -52.775  0.00  0.00     0.302 S 
ATOM     22  O   UNL d   1     -41.536-123.816 -52.839  0.00  0.00    -0.197 OA
ATOM     23  O   UNL d   1     -41.296-122.199 -52.699  0.00  0.00    -0.197 OA
ATOM     24  N   UNL d   1     -41.478-122.928 -53.587  0.00  0.00    -0.043 N 
ENDBRANCH  18  21
ENDBRANCH   2  15
TORSDOF 3
ENDMDL
MODEL 3
REMARK VINA RESULT:      10.7      1.343      1.922
REMARK  3 active torsions:
REMARK  status: ('A' for Active; 'I' for Inactive)
REMARK    1  A    between atoms: C_9  and  S_1 
REMARK       I    between atoms: C_4  and  N_8 
REMARK    2  A    between atoms: C_5  and  C_4 
REMARK    3  A    between atoms: N_8  and  C_18 
ROOT
ATOM      1  C   UNL d   1     -41.380-123.420 -51.713  0.00  0.00     0.302 C 
ATOM      2  N   UNL d   1     -41.298-123.766 -52.452  0.00  0.00    -0.206 NA
ATOM      3  O   UNL d   1     -41.124-123.817 -51.040  0.00  0.00    -0.263 OA
ENDROOT
BRANCH   1   4
ATOM      4  C   UNL d   1     -41.718-122.675 -51.638  0.00  0.00     0.161 A 
ATOM      5  O   UNL d   1     -42.544-122.607 -51.545  0.00  0.00    -0.268 OA
ATOM      6  C   UNL d   1     -42.889-121.853 -51.469  0.00  0.00     0.300 A 
ATOM      7  O   UNL d   1     -43.703-121.786 -51.378  0.00  0.00    -0.259 OA
ATOM      8  C   UNL d   1     -42.419-121.173 -51.484  0.00  0.00     0.064 A 
ATOM      9  C   UNL d   1     -41.593-121.249 -51.577  0.00  0.00     0.007 A 
ATOM     10  C   UNL d   1     -42.761-120.432 -51.409  0.00  0.00     0.005 A 
ATOM     11  C   UNL d   1     -41.244-121.994 -51.653  0.00  0.00     0.030 A 
ATOM     12  C   UNL d   1     -41.123-120.567 -51.592  0.00  0.00     0.000 A 
ATOM     13  C   UNL d   1     -41.477-119.826 -51.516  0.00  0.00     0.000 A 
ATOM     14  C   UNL d   1     -42.291-119.759 -51.425  0.00  0.00     0.000 A 
ENDBRANCH   1   4
BRANCH   2  15
ATOM     15  C   UNL d   1     -41.557-123.364 -53.126  0.00  0.00     0.085 A 
ATOM     16  C   UNL d   1     -42.242-123.605 -53.503  0.00  0.00     0.020 A 
ATOM     17  C   UNL d   1     -42.503-123.207 -54.174  0.00  0.00     0.015 A 
ATOM     18  C   UNL d   1     -42.070-122.564 -54.464  0.00  0.00     0.107 A 
ATOM     19  C   UNL d   1     -41.381-122.327 -54.077  0.00  0.00     0.015 A 
ATOM     20  C   UNL d   1     -41.123-122.721 -53.413  0.00  0.00     0.020 A 
BRANCH  18  21
ATOM     21  S   UNL d   1     -42.331-122.165 -55.135  0.00  0.00     0.302 S 
ATOM     22  O   UNL d   1     -42.990-121.847 -54.781  0.00  0.00    -0.197 OA
ATOM     23  O   UNL d   1     -41.657-122.494 -55.485  0.00  0.00    -0.197 OA
ATOM     24  N   UNL d   1     -42.519-121.802 -55.844  0.00  0.00    -0.043 N 
ENDBRANCH  18  21
ENDBRANCH   2  15
TORSDOF 3
ENDMDL
