MODEL 1
REMARK VINA RESULT:      68.6      0.000      0.000
REMARK  7 active torsions:
REMARK  status: ('A' for Active; 'I' for Inactive)
REMARK    1  A    between atoms: C_6  and  C_1 
REMARK    2  A    between atoms: C_14  and  C_5 
REMARK    3  A    between atoms: O_19  and  C_7 
REMARK    4  A    between atoms: O_20  and  C_8 
REMARK    5  A    between atoms: O_21  and  C_9 
REMARK    6  A    between atoms: O_17  and  C_14 
REMARK    7  A    between atoms: C_18  and  O_17 
ROOT
ATOM      1  C   UNL d   1      60.975  47.462  51.026  0.00  0.00     0.205 A 
ATOM      2  N   UNL d   1      61.074  47.642  51.828  0.00  0.00    -0.121 NA
ATOM      3  O   UNL d   1      60.693  48.136  50.638  0.00  0.00    -0.267 OA
ATOM      4  N   UNL d   1      60.852  48.433  51.942  0.00  0.00    -0.119 NA
ATOM      5  C   UNL d   1      60.617  48.737  51.205  0.00  0.00     0.230 A 
ENDROOT
BRANCH   1   6
ATOM      6  C   UNL d   1      61.135  46.725  50.679  0.00  0.00     0.047 A 
ATOM      7  C   UNL d   1      61.572  46.675  49.981  0.00  0.00     0.030 A 
ATOM      8  C   UNL d   1      61.724  45.947  49.646  0.00  0.00     0.118 A 
ATOM      9  C   UNL d   1      61.445  45.252  50.001  0.00  0.00     0.138 A 
ATOM     10  C   UNL d   1      61.010  45.305  50.697  0.00  0.00     0.118 A 
ATOM     11  C   UNL d   1      60.850  46.043  51.044  0.00  0.00     0.030 A 
BRANCH   8  12
ATOM     12  O   UNL d   1      62.164  45.906  48.945  0.00  0.00    -0.326 OA
ATOM     13  C   UNL d   1      62.982  46.031  48.953  0.00  0.00     0.181 C 
ENDBRANCH   8  12
BRANCH   9  14
ATOM     14  O   UNL d   1      61.607  44.521  49.653  0.00  0.00    -0.324 OA
ATOM     15  C   UNL d   1      61.686  44.456  48.830  0.00  0.00     0.182 C 
ENDBRANCH   9  14
BRANCH  10  16
ATOM     16  O   UNL d   1      60.730  44.610  51.053  0.00  0.00    -0.326 OA
ATOM     17  C   UNL d   1      60.919  44.444  51.834  0.00  0.00     0.181 C 
ENDBRANCH  10  16
ENDBRANCH   1   6
BRANCH   5  18
ATOM     18  C   UNL d   1      60.352  49.508  51.054  0.00  0.00     0.169 C 
BRANCH  18  19
ATOM     19  O   UNL d   1      60.057  49.708  50.311  0.00  0.00    -0.301 OA
BRANCH  19  20
ATOM     20  C   UNL d   1      59.241  49.707  50.181  0.00  0.00     0.100 A 
ATOM     21  C   UNL d   1      58.721  49.708  50.822  0.00  0.00     0.025 A 
ATOM     22  C   UNL d   1      57.912  49.707  50.693  0.00  0.00     0.002 A 
ATOM     23  C   UNL d   1      57.383  49.707  51.333  0.00  0.00     0.000 A 
ATOM     24  C   UNL d   1      57.614  49.707  49.927  0.00  0.00     0.000 A 
ATOM     25  C   UNL d   1      56.569  49.707  51.197  0.00  0.00     0.000 A 
ATOM     26  C   UNL d   1      56.278  49.707  50.425  0.00  0.00     0.000 A 
ATOM     27  C   UNL d   1      56.803  49.706  49.785  0.00  0.00     0.000 A 
ATOM     28  C   UNL d   1      58.131  49.706  49.284  0.00  0.00     0.002 A 
ATOM     29  C   UNL d   1      58.956  49.707  49.413  0.00  0.00     0.025 A 
ENDBRANCH  19  20
ENDBRANCH  18  19
ENDBRANCH   5  18
TORSDOF 7
ENDMDL
