MODEL 1
REMARK VINA RESULT:      -5.4      0.000      0.000
REMARK  0 active torsions:
REMARK  status: ('A' for Active; 'I' for Inactive)
ROOT
ATOM      1  N   UNL d   1     -41.340-123.118 -53.405  0.00  0.00    -0.300 N 
ATOM      2  C   UNL d   1     -41.740-121.800 -53.766  0.00  0.00     0.295 A 
ATOM      3  N   UNL d   1     -41.735-121.592 -52.959  0.00  0.00    -0.205 NA
ATOM      4  C   UNL d   1     -41.541-122.568 -53.992  0.00  0.00     0.123 A 
ATOM      5  C   UNL d   1     -41.335-122.915 -52.621  0.00  0.00     0.082 A 
ATOM      6  C   UNL d   1     -41.531-122.155 -52.392  0.00  0.00     0.101 A 
ATOM      7  O   UNL d   1     -41.937-121.266 -54.340  0.00  0.00    -0.264 OA
ATOM      8  C   UNL d   1     -41.172-123.817 -53.779  0.00  0.00     0.080 A 
ATOM      9  C   UNL d   1     -41.494-122.946 -54.728  0.00  0.00     0.024 A 
ATOM     10  C   UNL d   1     -41.128-123.487 -52.051  0.00  0.00     0.019 A 
ATOM     11  C   UNL d   1     -41.525-121.947 -51.585  0.00  0.00     0.021 A 
ATOM     12  C   UNL d   1     -41.258-123.739 -54.585  0.00  0.00     0.021 A 
ATOM     13  C   UNL d   1     -41.123-123.279 -51.245  0.00  0.00     0.002 A 
ATOM     14  C   UNL d   1     -41.320-122.518 -51.029  0.00  0.00     0.002 A 
ENDROOT
TORSDOF 0
ENDMDL
MODEL 2
REMARK VINA RESULT:      -5.3      1.036      2.494
REMARK  0 active torsions:
REMARK  status: ('A' for Active; 'I' for Inactive)
ROOT
ATOM      1  N   UNL d   1     -41.188-123.157 -51.985  0.00  0.00    -0.300 N 
ATOM      2  C   UNL d   1     -41.140-121.738 -51.887  0.00  0.00     0.295 A 
ATOM      3  N   UNL d   1     -41.126-121.695 -52.719  0.00  0.00    -0.205 NA
ATOM      4  C   UNL d   1     -41.171-122.474 -51.517  0.00  0.00     0.123 A 
ATOM      5  C   UNL d   1     -41.175-123.115 -52.794  0.00  0.00     0.082 A 
ATOM      6  C   UNL d   1     -41.144-122.388 -53.166  0.00  0.00     0.101 A 
ATOM      7  O   UNL d   1     -41.123-121.073 -51.429  0.00  0.00    -0.264 OA
ATOM      8  C   UNL d   1     -41.218-123.792 -51.482  0.00  0.00     0.080 A 
ATOM      9  C   UNL d   1     -41.190-122.705 -50.721  0.00  0.00     0.024 A 
ATOM     10  C   UNL d   1     -41.194-123.817 -53.242  0.00  0.00     0.019 A 
ATOM     11  C   UNL d   1     -41.131-122.345 -53.998  0.00  0.00     0.021 A 
ATOM     12  C   UNL d   1     -41.220-123.544 -50.707  0.00  0.00     0.021 A 
ATOM     13  C   UNL d   1     -41.181-123.774 -54.073  0.00  0.00     0.002 A 
ATOM     14  C   UNL d   1     -41.150-123.043 -54.432  0.00  0.00     0.002 A 
ENDROOT
TORSDOF 0
ENDMDL
MODEL 3
REMARK VINA RESULT:      -4.8      0.905      2.433
REMARK  0 active torsions:
REMARK  status: ('A' for Active; 'I' for Inactive)
ROOT
ATOM      1  N   UNL d   1     -41.481-123.005 -53.170  0.00  0.00    -0.300 N 
ATOM      2  C   UNL d   1     -41.445-121.712 -52.576  0.00  0.00     0.295 A 
ATOM      3  N   UNL d   1     -41.675-121.385 -53.307  0.00  0.00    -0.205 NA
ATOM      4  C   UNL d   1     -41.348-122.527 -52.506  0.00  0.00     0.123 A 
ATOM      5  C   UNL d   1     -41.704-122.687 -53.881  0.00  0.00     0.082 A 
ATOM      6  C   UNL d   1     -41.802-121.879 -53.956  0.00  0.00     0.101 A 
ATOM      7  O   UNL d   1     -41.315-121.247 -51.927  0.00  0.00    -0.264 OA
ATOM      8  C   UNL d   1     -41.346-123.771 -52.945  0.00  0.00     0.080 A 
ATOM      9  C   UNL d   1     -41.129-123.017 -51.874  0.00  0.00     0.024 A 
ATOM     10  C   UNL d   1     -41.831-123.189 -54.533  0.00  0.00     0.019 A 
ATOM     11  C   UNL d   1     -42.031-121.552 -54.687  0.00  0.00     0.021 A 
ATOM     12  C   UNL d   1     -41.131-123.807 -52.161  0.00  0.00     0.021 A 
ATOM     13  C   UNL d   1     -42.060-122.862 -55.264  0.00  0.00     0.002 A 
ATOM     14  C   UNL d   1     -42.155-122.055 -55.326  0.00  0.00     0.002 A 
ENDROOT
TORSDOF 0
ENDMDL
MODEL 4
REMARK VINA RESULT:      -3.7      2.741      3.671
REMARK  0 active torsions:
REMARK  status: ('A' for Active; 'I' for Inactive)
ROOT
ATOM      1  N   UNL d   1     -41.726-123.261 -49.922  0.00  0.00    -0.300 N 
ATOM      2  C   UNL d   1     -42.867-122.438 -50.138  0.00  0.00     0.295 A 
ATOM      3  N   UNL d   1     -43.043-122.494 -49.325  0.00  0.00    -0.205 NA
ATOM      4  C   UNL d   1     -42.203-122.824 -50.439  0.00  0.00     0.123 A 
ATOM      5  C   UNL d   1     -41.898-123.315 -49.132  0.00  0.00     0.082 A 
ATOM      6  C   UNL d   1     -42.554-122.934 -48.828  0.00  0.00     0.101 A 
ATOM      7  O   UNL d   1     -43.332-122.012 -50.643  0.00  0.00    -0.264 OA
ATOM      8  C   UNL d   1     -41.123-123.577 -50.362  0.00  0.00     0.080 A 
ATOM      9  C   UNL d   1     -41.880-122.880 -51.200  0.00  0.00     0.024 A 
ATOM     10  C   UNL d   1     -41.401-123.761 -48.634  0.00  0.00     0.019 A 
ATOM     11  C   UNL d   1     -42.730-122.990 -48.016  0.00  0.00     0.021 A 
ATOM     12  C   UNL d   1     -41.193-123.360 -51.143  0.00  0.00     0.021 A 
ATOM     13  C   UNL d   1     -41.577-123.817 -47.822  0.00  0.00     0.002 A 
ATOM     14  C   UNL d   1     -42.234-123.433 -47.531  0.00  0.00     0.002 A 
ENDROOT
TORSDOF 0
ENDMDL
MODEL 5
REMARK VINA RESULT:      -3.0      3.059      4.393
REMARK  0 active torsions:
REMARK  status: ('A' for Active; 'I' for Inactive)
ROOT
ATOM      1  N   UNL d   1     -41.772-123.105 -49.085  0.00  0.00    -0.300 N 
ATOM      2  C   UNL d   1     -43.150-123.454 -49.142  0.00  0.00     0.295 A 
ATOM      3  N   UNL d   1     -43.198-123.090 -49.890  0.00  0.00    -0.205 NA
ATOM      4  C   UNL d   1     -42.433-123.462 -48.736  0.00  0.00     0.123 A 
ATOM      5  C   UNL d   1     -41.818-122.751 -49.812  0.00  0.00     0.082 A 
ATOM      6  C   UNL d   1     -42.527-122.740 -50.219  0.00  0.00     0.101 A 
ATOM      7  O   UNL d   1     -43.794-123.804 -48.800  0.00  0.00    -0.264 OA
ATOM      8  C   UNL d   1     -41.152-123.194 -48.571  0.00  0.00     0.080 A 
ATOM      9  C   UNL d   1     -42.203-123.770 -48.001  0.00  0.00     0.024 A 
ATOM     10  C   UNL d   1     -41.138-122.398 -50.140  0.00  0.00     0.019 A 
ATOM     11  C   UNL d   1     -42.574-122.376 -50.966  0.00  0.00     0.021 A 
ATOM     12  C   UNL d   1     -41.388-123.595 -47.903  0.00  0.00     0.021 A 
ATOM     13  C   UNL d   1     -41.186-122.034 -50.888  0.00  0.00     0.002 A 
ATOM     14  C   UNL d   1     -41.898-122.030 -51.283  0.00  0.00     0.002 A 
ENDROOT
TORSDOF 0
ENDMDL
