MODEL 1
REMARK VINA RESULT:      35.2      0.000      0.000
REMARK  8 active torsions:
REMARK  status: ('A' for Active; 'I' for Inactive)
REMARK    1  A    between atoms: C_8  and  C_5 
REMARK    2  A    between atoms: S_22  and  C_6 
REMARK    3  A    between atoms: C_9  and  C_7 
REMARK    4  A    between atoms: C_12  and  C_9 
REMARK    5  A    between atoms: C_25  and  S_22 
REMARK    6  A    between atoms: O_24  and  C_26 
REMARK    7  A    between atoms: C_27  and  O_24 
REMARK    8  A    between atoms: C_26  and  C_25 
ROOT
ATOM      1  C   UNL d   1      46.130 -17.173  43.365  0.00  0.00     0.082 A 
ATOM      2  N   UNL d   1      46.249 -17.282  42.538  0.00  0.00    -0.238 NA
ATOM      3  C   UNL d   1      46.282 -18.720  42.751  0.00  0.00     0.092 A 
ATOM      4  C   UNL d   1      46.090 -17.832  43.859  0.00  0.00     0.019 A 
ATOM      5  C   UNL d   1      46.165 -18.598  43.558  0.00  0.00     0.019 A 
ATOM      6  C   UNL d   1      46.324 -18.045  42.235  0.00  0.00     0.120 A 
ATOM      7  C   UNL d   1      46.037 -16.492  43.821  0.00  0.00     0.018 A 
ATOM      8  C   UNL d   1      46.357 -19.508  42.451  0.00  0.00     0.103 C 
ATOM      9  N   UNL d   1      46.432 -20.289  42.154  0.00  0.00    -0.191 NA
ATOM     10  C   UNL d   1      45.972 -17.553  44.627  0.00  0.00     0.002 A 
ATOM     11  C   UNL d   1      45.938 -16.721  44.609  0.00  0.00     0.002 A 
ENDROOT
BRANCH   5  12
ATOM     12  C   UNL d   1      46.122 -19.254  44.074  0.00  0.00     0.030 A 
ATOM     13  S   UNL d   1      45.439 -19.383  44.494  0.00  0.00    -0.086 SA
ATOM     14  C   UNL d   1      45.539 -20.054  44.954  0.00  0.00     0.035 A 
ATOM     15  C   UNL d   1      46.295 -20.330  44.805  0.00  0.00     0.007 A 
ATOM     16  C   UNL d   1      46.646 -19.830  44.260  0.00  0.00     0.007 A 
ENDBRANCH   5  12
BRANCH   6  17
ATOM     17  S   UNL d   1      46.440 -18.152  41.426  0.00  0.00    -0.065 SA
BRANCH  17  18
ATOM     18  C   UNL d   1      45.855 -17.920  40.883  0.00  0.00     0.064 C 
BRANCH  18  19
ATOM     19  C   UNL d   1      46.036 -17.857  40.059  0.00  0.00     0.130 C 
BRANCH  19  20
ATOM     20  O   UNL d   1      45.427 -17.681  39.524  0.00  0.00    -0.303 OA
BRANCH  20  21
ATOM     21  C   UNL d   1      45.573 -17.126  38.902  0.00  0.00     0.123 C 
ATOM     22  C   UNL d   1      45.013 -17.012  38.330  0.00  0.00     0.029 C 
ENDBRANCH  20  21
ENDBRANCH  19  20
ENDBRANCH  18  19
ENDBRANCH  17  18
ENDBRANCH   6  17
BRANCH   7  23
ATOM     23  C   UNL d   1      46.040 -15.689  43.552  0.00  0.00     0.008 C 
BRANCH  23  24
ATOM     24  C   UNL d   1      45.731 -15.091  44.045  0.00  0.00     0.029 A 
ATOM     25  S   UNL d   1      45.245 -15.127  44.698  0.00  0.00    -0.086 SA
ATOM     26  C   UNL d   1      45.128 -14.348  44.955  0.00  0.00     0.035 A 
ATOM     27  C   UNL d   1      45.540 -13.866  44.456  0.00  0.00     0.007 A 
ATOM     28  C   UNL d   1      45.913 -14.303  43.897  0.00  0.00     0.007 A 
ENDBRANCH  23  24
ENDBRANCH   7  23
TORSDOF 8
ENDMDL
