MODEL 1
REMARK VINA RESULT:      -6.3      0.000      0.000
REMARK  5 active torsions:
REMARK  status: ('A' for Active; 'I' for Inactive)
REMARK    1  A    between atoms: C_6  and  N_1 
REMARK    2  A    between atoms: O_9  and  C_6 
REMARK    3  A    between atoms: C_8  and  O_9 
REMARK    4  A    between atoms: C_12  and  C_8 
REMARK    5  A    between atoms: C_14  and  C_12 
ROOT
ATOM      1  N   UNL d   1     -48.241  12.869  23.147  0.00  0.00    -0.150 N 
ATOM      2  N   UNL d   1     -48.219  12.055  23.284  0.00  0.00    -0.055 NA
ATOM      3  C   UNL d   1     -48.959  13.283  23.166  0.00  0.00     0.285 A 
ATOM      4  N   UNL d   1     -48.914  11.649  23.441  0.00  0.00    -0.130 NA
ATOM      5  C   UNL d   1     -49.650  12.860  23.324  0.00  0.00     0.077 A 
ATOM      6  C   UNL d   1     -49.628  12.046  23.462  0.00  0.00     0.109 A 
ATOM      7  O   UNL d   1     -48.982  14.088  23.030  0.00  0.00    -0.265 OA
ATOM      8  C   UNL d   1     -50.369  13.262  23.345  0.00  0.00     0.006 A 
ATOM      9  C   UNL d   1     -50.324  11.640  23.618  0.00  0.00     0.021 A 
ATOM     10  C   UNL d   1     -51.064  12.854  23.502  0.00  0.00     0.000 A 
ATOM     11  C   UNL d   1     -51.042  12.037  23.639  0.00  0.00     0.002 A 
ENDROOT
BRANCH   1  12
ATOM     12  C   UNL d   1     -47.541  13.280  22.989  0.00  0.00     0.233 C 
BRANCH  12  13
ATOM     13  O   UNL d   1     -46.838  12.867  22.874  0.00  0.00    -0.251 OA
BRANCH  13  14
ATOM     14  C   UNL d   1     -46.134  13.280  22.762  0.00  0.00     0.302 C 
ATOM     15  O   UNL d   1     -45.833  13.756  23.365  0.00  0.00    -0.259 OA
BRANCH  14  16
ATOM     16  C   UNL d   1     -45.732  13.217  22.046  0.00  0.00     0.069 C 
BRANCH  16  17
ATOM     17  C   UNL d   1     -45.030  12.908  22.032  0.00  0.00     0.005 A 
ATOM     18  C   UNL d   1     -44.853  12.235  22.476  0.00  0.00     0.000 A 
ATOM     19  C   UNL d   1     -44.093  11.900  22.461  0.00  0.00     0.000 A 
ATOM     20  C   UNL d   1     -43.500  12.247  21.991  0.00  0.00     0.000 A 
ATOM     21  C   UNL d   1     -43.670  12.923  21.542  0.00  0.00     0.000 A 
ATOM     22  C   UNL d   1     -44.435  13.262  21.556  0.00  0.00     0.000 A 
ENDBRANCH  16  17
ENDBRANCH  14  16
ENDBRANCH  13  14
ENDBRANCH  12  13
ENDBRANCH   1  12
TORSDOF 5
ENDMDL
MODEL 2
REMARK VINA RESULT:      -6.0      1.520      2.059
REMARK  5 active torsions:
REMARK  status: ('A' for Active; 'I' for Inactive)
REMARK    1  A    between atoms: C_6  and  N_1 
REMARK    2  A    between atoms: O_9  and  C_6 
REMARK    3  A    between atoms: C_8  and  O_9 
REMARK    4  A    between atoms: C_12  and  C_8 
REMARK    5  A    between atoms: C_14  and  C_12 
ROOT
ATOM      1  N   UNL d   1     -48.386  13.938  22.980  0.00  0.00    -0.150 N 
ATOM      2  N   UNL d   1     -48.900  13.309  23.125  0.00  0.00    -0.055 NA
ATOM      3  C   UNL d   1     -48.663  14.719  22.968  0.00  0.00     0.285 A 
ATOM      4  N   UNL d   1     -49.696  13.456  23.260  0.00  0.00    -0.130 NA
ATOM      5  C   UNL d   1     -49.466  14.851  23.105  0.00  0.00     0.077 A 
ATOM      6  C   UNL d   1     -49.980  14.222  23.251  0.00  0.00     0.109 A 
ATOM      7  O   UNL d   1     -48.153  15.342  22.823  0.00  0.00    -0.265 OA
ATOM      8  C   UNL d   1     -49.751  15.624  23.095  0.00  0.00     0.006 A 
ATOM      9  C   UNL d   1     -50.777  14.370  23.386  0.00  0.00     0.021 A 
ATOM     10  C   UNL d   1     -50.548  15.770  23.230  0.00  0.00     0.000 A 
ATOM     11  C   UNL d   1     -51.064  15.138  23.377  0.00  0.00     0.002 A 
ENDROOT
BRANCH   1  12
ATOM     12  C   UNL d   1     -47.583  13.791  22.843  0.00  0.00     0.233 C 
BRANCH  12  13
ATOM     13  O   UNL d   1     -47.210  13.159  23.217  0.00  0.00    -0.251 OA
BRANCH  13  14
ATOM     14  C   UNL d   1     -46.405  13.032  23.103  0.00  0.00     0.302 C 
ATOM     15  O   UNL d   1     -45.853  13.531  23.460  0.00  0.00    -0.259 OA
BRANCH  14  16
ATOM     16  C   UNL d   1     -46.152  12.406  22.631  0.00  0.00     0.069 C 
BRANCH  16  17
ATOM     17  C   UNL d   1     -45.792  11.810  22.953  0.00  0.00     0.005 A 
ATOM     18  C   UNL d   1     -44.971  11.741  22.920  0.00  0.00     0.000 A 
ATOM     19  C   UNL d   1     -44.581  11.096  23.269  0.00  0.00     0.000 A 
ATOM     20  C   UNL d   1     -45.026  10.509  23.659  0.00  0.00     0.000 A 
ATOM     21  C   UNL d   1     -45.851  10.572  23.698  0.00  0.00     0.000 A 
ATOM     22  C   UNL d   1     -46.245  11.221  23.346  0.00  0.00     0.000 A 
ENDBRANCH  16  17
ENDBRANCH  14  16
ENDBRANCH  13  14
ENDBRANCH  12  13
ENDBRANCH   1  12
TORSDOF 5
ENDMDL
MODEL 3
REMARK VINA RESULT:      -5.7      1.312      5.183
REMARK  5 active torsions:
REMARK  status: ('A' for Active; 'I' for Inactive)
REMARK    1  A    between atoms: C_6  and  N_1 
REMARK    2  A    between atoms: O_9  and  C_6 
REMARK    3  A    between atoms: C_8  and  O_9 
REMARK    4  A    between atoms: C_12  and  C_8 
REMARK    5  A    between atoms: C_14  and  C_12 
ROOT
ATOM      1  N   UNL d   1     -46.072  12.609  22.850  0.00  0.00    -0.150 N 
ATOM      2  N   UNL d   1     -46.055  13.245  22.325  0.00  0.00    -0.055 NA
ATOM      3  C   UNL d   1     -45.409  12.121  22.947  0.00  0.00     0.285 A 
ATOM      4  N   UNL d   1     -45.376  13.399  21.892  0.00  0.00    -0.130 NA
ATOM      5  C   UNL d   1     -44.732  12.289  22.504  0.00  0.00     0.077 A 
ATOM      6  C   UNL d   1     -44.716  12.925  21.979  0.00  0.00     0.109 A 
ATOM      7  O   UNL d   1     -45.425  11.491  23.467  0.00  0.00    -0.265 OA
ATOM      8  C   UNL d   1     -44.068  11.809  22.593  0.00  0.00     0.006 A 
ATOM      9  C   UNL d   1     -44.035  13.078  21.545  0.00  0.00     0.021 A 
ATOM     10  C   UNL d   1     -43.389  11.964  22.159  0.00  0.00     0.000 A 
ATOM     11  C   UNL d   1     -43.372  12.603  21.631  0.00  0.00     0.002 A 
ENDROOT
BRANCH   1  12
ATOM     12  C   UNL d   1     -46.756  12.453  23.288  0.00  0.00     0.233 C 
BRANCH  12  13
ATOM     13  O   UNL d   1     -47.495  12.648  22.981  0.00  0.00    -0.251 OA
BRANCH  13  14
ATOM     14  C   UNL d   1     -48.177  12.434  23.389  0.00  0.00     0.302 C 
ATOM     15  O   UNL d   1     -48.254  11.673  23.698  0.00  0.00    -0.259 OA
BRANCH  14  16
ATOM     16  C   UNL d   1     -48.784  12.983  23.488  0.00  0.00     0.069 C 
BRANCH  16  17
ATOM     17  C   UNL d   1     -49.477  12.839  23.191  0.00  0.00     0.005 A 
ATOM     18  C   UNL d   1     -49.627  12.949  22.388  0.00  0.00     0.000 A 
ATOM     19  C   UNL d   1     -50.376  12.793  22.066  0.00  0.00     0.000 A 
ATOM     20  C   UNL d   1     -50.987  12.521  22.562  0.00  0.00     0.000 A 
ATOM     21  C   UNL d   1     -50.845  12.408  23.371  0.00  0.00     0.000 A 
ATOM     22  C   UNL d   1     -50.090  12.565  23.696  0.00  0.00     0.000 A 
ENDBRANCH  16  17
ENDBRANCH  14  16
ENDBRANCH  13  14
ENDBRANCH  12  13
ENDBRANCH   1  12
TORSDOF 5
ENDMDL
MODEL 4
REMARK VINA RESULT:      -5.5      8.228     10.111
REMARK  5 active torsions:
REMARK  status: ('A' for Active; 'I' for Inactive)
REMARK    1  A    between atoms: C_6  and  N_1 
REMARK    2  A    between atoms: O_9  and  C_6 
REMARK    3  A    between atoms: C_8  and  O_9 
REMARK    4  A    between atoms: C_12  and  C_8 
REMARK    5  A    between atoms: C_14  and  C_12 
ROOT
ATOM      1  N   UNL d   1     -39.746  14.636  17.863  0.00  0.00    -0.150 N 
ATOM      2  N   UNL d   1     -39.666  15.424  17.632  0.00  0.00    -0.055 NA
ATOM      3  C   UNL d   1     -39.359  14.030  17.450  0.00  0.00     0.285 A 
ATOM      4  N   UNL d   1     -39.198  15.613  16.985  0.00  0.00    -0.130 NA
ATOM      5  C   UNL d   1     -38.892  14.237  16.801  0.00  0.00     0.077 A 
ATOM      6  C   UNL d   1     -38.812  15.025  16.570  0.00  0.00     0.109 A 
ATOM      7  O   UNL d   1     -39.439  13.250  17.679  0.00  0.00    -0.265 OA
ATOM      8  C   UNL d   1     -38.504  13.642  16.383  0.00  0.00     0.006 A 
ATOM      9  C   UNL d   1     -38.343  15.214  15.922  0.00  0.00     0.021 A 
ATOM     10  C   UNL d   1     -38.036  13.833  15.736  0.00  0.00     0.000 A 
ATOM     11  C   UNL d   1     -37.955  14.625  15.504  0.00  0.00     0.002 A 
ENDROOT
BRANCH   1  12
ATOM     12  C   UNL d   1     -40.217  14.443  18.515  0.00  0.00     0.233 C 
BRANCH  12  13
ATOM     13  O   UNL d   1     -40.160  14.883  19.210  0.00  0.00    -0.251 OA
BRANCH  13  14
ATOM     14  C   UNL d   1     -40.611  14.674  19.865  0.00  0.00     0.302 C 
ATOM     15  O   UNL d   1     -40.975  13.934  19.898  0.00  0.00    -0.259 OA
BRANCH  14  16
ATOM     16  C   UNL d   1     -40.698  15.205  20.489  0.00  0.00     0.069 C 
BRANCH  16  17
ATOM     17  C   UNL d   1     -40.191  15.199  21.065  0.00  0.00     0.005 A 
ATOM     18  C   UNL d   1     -39.995  14.497  21.451  0.00  0.00     0.000 A 
ATOM     19  C   UNL d   1     -39.446  14.490  22.074  0.00  0.00     0.000 A 
ATOM     20  C   UNL d   1     -39.087  15.202  22.314  0.00  0.00     0.000 A 
ATOM     21  C   UNL d   1     -39.279  15.912  21.931  0.00  0.00     0.000 A 
ATOM     22  C   UNL d   1     -39.832  15.921  21.303  0.00  0.00     0.000 A 
ENDBRANCH  16  17
ENDBRANCH  14  16
ENDBRANCH  13  14
ENDBRANCH  12  13
ENDBRANCH   1  12
TORSDOF 5
ENDMDL
MODEL 5
REMARK VINA RESULT:      -5.4      8.959      9.664
REMARK  5 active torsions:
REMARK  status: ('A' for Active; 'I' for Inactive)
REMARK    1  A    between atoms: C_6  and  N_1 
REMARK    2  A    between atoms: O_9  and  C_6 
REMARK    3  A    between atoms: C_8  and  O_9 
REMARK    4  A    between atoms: C_12  and  C_8 
REMARK    5  A    between atoms: C_14  and  C_12 
ROOT
ATOM      1  N   UNL d   1     -38.699  14.062  20.745  0.00  0.00    -0.150 N 
ATOM      2  N   UNL d   1     -39.103  14.711  21.055  0.00  0.00    -0.055 NA
ATOM      3  C   UNL d   1     -38.343  13.504  21.245  0.00  0.00     0.285 A 
ATOM      4  N   UNL d   1     -39.155  14.808  21.868  0.00  0.00    -0.130 NA
ATOM      5  C   UNL d   1     -38.405  13.616  22.061  0.00  0.00     0.077 A 
ATOM      6  C   UNL d   1     -38.809  14.265  22.371  0.00  0.00     0.109 A 
ATOM      7  O   UNL d   1     -37.943  12.861  20.938  0.00  0.00    -0.265 OA
ATOM      8  C   UNL d   1     -38.055  13.067  22.566  0.00  0.00     0.006 A 
ATOM      9  C   UNL d   1     -38.861  14.362  23.185  0.00  0.00     0.021 A 
ATOM     10  C   UNL d   1     -38.108  13.165  23.380  0.00  0.00     0.000 A 
ATOM     11  C   UNL d   1     -38.514  13.818  23.691  0.00  0.00     0.002 A 
ENDROOT
BRANCH   1  12
ATOM     12  C   UNL d   1     -38.645  13.962  19.925  0.00  0.00     0.233 C 
BRANCH  12  13
ATOM     13  O   UNL d   1     -39.215  14.295  19.432  0.00  0.00    -0.251 OA
BRANCH  13  14
ATOM     14  C   UNL d   1     -39.138  14.228  18.615  0.00  0.00     0.302 C 
ATOM     15  O   UNL d   1     -38.405  14.350  18.257  0.00  0.00    -0.259 OA
BRANCH  14  16
ATOM     16  C   UNL d   1     -39.795  14.038  18.156  0.00  0.00     0.069 C 
BRANCH  16  17
ATOM     17  C   UNL d   1     -40.108  14.573  17.704  0.00  0.00     0.005 A 
ATOM     18  C   UNL d   1     -39.805  14.724  16.952  0.00  0.00     0.000 A 
ATOM     19  C   UNL d   1     -40.144  15.303  16.461  0.00  0.00     0.000 A 
ATOM     20  C   UNL d   1     -40.799  15.739  16.733  0.00  0.00     0.000 A 
ATOM     21  C   UNL d   1     -41.110  15.594  17.488  0.00  0.00     0.000 A 
ATOM     22  C   UNL d   1     -40.769  15.011  17.983  0.00  0.00     0.000 A 
ENDBRANCH  16  17
ENDBRANCH  14  16
ENDBRANCH  13  14
ENDBRANCH  12  13
ENDBRANCH   1  12
TORSDOF 5
ENDMDL
MODEL 6
REMARK VINA RESULT:      -5.3      8.360      9.164
REMARK  5 active torsions:
REMARK  status: ('A' for Active; 'I' for Inactive)
REMARK    1  A    between atoms: C_6  and  N_1 
REMARK    2  A    between atoms: O_9  and  C_6 
REMARK    3  A    between atoms: C_8  and  O_9 
REMARK    4  A    between atoms: C_12  and  C_8 
REMARK    5  A    between atoms: C_14  and  C_12 
ROOT
ATOM      1  N   UNL d   1     -40.128  14.776  19.126  0.00  0.00    -0.150 N 
ATOM      2  N   UNL d   1     -39.515  14.373  18.747  0.00  0.00    -0.055 NA
ATOM      3  C   UNL d   1     -40.642  15.266  18.699  0.00  0.00     0.285 A 
ATOM      4  N   UNL d   1     -39.411  14.456  17.938  0.00  0.00    -0.130 NA
ATOM      5  C   UNL d   1     -40.525  15.339  17.885  0.00  0.00     0.077 A 
ATOM      6  C   UNL d   1     -39.912  14.936  17.506  0.00  0.00     0.109 A 
ATOM      7  O   UNL d   1     -41.249  15.665  19.074  0.00  0.00    -0.265 OA
ATOM      8  C   UNL d   1     -41.030  15.824  17.451  0.00  0.00     0.006 A 
ATOM      9  C   UNL d   1     -39.809  15.020  16.695  0.00  0.00     0.021 A 
ATOM     10  C   UNL d   1     -40.926  15.906  16.641  0.00  0.00     0.000 A 
ATOM     11  C   UNL d   1     -40.311  15.502  16.260  0.00  0.00     0.002 A 
ENDROOT
BRANCH   1  12
ATOM     12  C   UNL d   1     -40.234  14.693  19.943  0.00  0.00     0.233 C 
BRANCH  12  13
ATOM     13  O   UNL d   1     -39.626  14.386  20.408  0.00  0.00    -0.251 OA
BRANCH  13  14
ATOM     14  C   UNL d   1     -39.751  14.260  21.211  0.00  0.00     0.302 C 
ATOM     15  O   UNL d   1     -40.415  13.844  21.467  0.00  0.00    -0.259 OA
BRANCH  14  16
ATOM     16  C   UNL d   1     -39.209  14.551  21.760  0.00  0.00     0.069 C 
BRANCH  16  17
ATOM     17  C   UNL d   1     -38.847  14.063  22.229  0.00  0.00     0.005 A 
ATOM     18  C   UNL d   1     -38.332  13.491  21.932  0.00  0.00     0.000 A 
ATOM     19  C   UNL d   1     -37.940  12.962  22.438  0.00  0.00     0.000 A 
ATOM     20  C   UNL d   1     -38.067  13.011  23.260  0.00  0.00     0.000 A 
ATOM     21  C   UNL d   1     -38.582  13.583  23.567  0.00  0.00     0.000 A 
ATOM     22  C   UNL d   1     -38.978  14.116  23.057  0.00  0.00     0.000 A 
ENDBRANCH  16  17
ENDBRANCH  14  16
ENDBRANCH  13  14
ENDBRANCH  12  13
ENDBRANCH   1  12
TORSDOF 5
ENDMDL
MODEL 7
REMARK VINA RESULT:      -5.3      2.678      4.231
REMARK  5 active torsions:
REMARK  status: ('A' for Active; 'I' for Inactive)
REMARK    1  A    between atoms: C_6  and  N_1 
REMARK    2  A    between atoms: O_9  and  C_6 
REMARK    3  A    between atoms: C_8  and  O_9 
REMARK    4  A    between atoms: C_12  and  C_8 
REMARK    5  A    between atoms: C_14  and  C_12 
ROOT
ATOM      1  N   UNL d   1     -44.464  12.838  22.062  0.00  0.00    -0.150 N 
ATOM      2  N   UNL d   1     -44.870  13.549  21.959  0.00  0.00    -0.055 NA
ATOM      3  C   UNL d   1     -44.790  12.225  22.515  0.00  0.00     0.285 A 
ATOM      4  N   UNL d   1     -45.605  13.654  22.307  0.00  0.00    -0.130 NA
ATOM      5  C   UNL d   1     -45.531  12.345  22.859  0.00  0.00     0.077 A 
ATOM      6  C   UNL d   1     -45.937  13.056  22.756  0.00  0.00     0.109 A 
ATOM      7  O   UNL d   1     -44.389  11.520  22.617  0.00  0.00    -0.265 OA
ATOM      8  C   UNL d   1     -45.864  11.742  23.311  0.00  0.00     0.006 A 
ATOM      9  C   UNL d   1     -46.673  13.160  23.105  0.00  0.00     0.021 A 
ATOM     10  C   UNL d   1     -46.600  11.847  23.659  0.00  0.00     0.000 A 
ATOM     11  C   UNL d   1     -47.007  12.562  23.555  0.00  0.00     0.002 A 
ENDROOT
BRANCH   1  12
ATOM     12  C   UNL d   1     -43.722  12.731  21.711  0.00  0.00     0.233 C 
BRANCH  12  13
ATOM     13  O   UNL d   1     -43.266  13.385  21.505  0.00  0.00    -0.251 OA
BRANCH  13  14
ATOM     14  C   UNL d   1     -42.570  13.281  21.079  0.00  0.00     0.302 C 
ATOM     15  O   UNL d   1     -42.581  12.879  20.359  0.00  0.00    -0.259 OA
BRANCH  14  16
ATOM     16  C   UNL d   1     -41.860  13.578  21.374  0.00  0.00     0.069 C 
BRANCH  16  17
ATOM     17  C   UNL d   1     -41.491  14.128  20.987  0.00  0.00     0.005 A 
ATOM     18  C   UNL d   1     -41.658  14.926  21.117  0.00  0.00     0.000 A 
ATOM     19  C   UNL d   1     -41.258  15.521  20.698  0.00  0.00     0.000 A 
ATOM     20  C   UNL d   1     -40.679  15.311  20.138  0.00  0.00     0.000 A 
ATOM     21  C   UNL d   1     -40.505  14.512  20.001  0.00  0.00     0.000 A 
ATOM     22  C   UNL d   1     -40.907  13.911  20.422  0.00  0.00     0.000 A 
ENDBRANCH  16  17
ENDBRANCH  14  16
ENDBRANCH  13  14
ENDBRANCH  12  13
ENDBRANCH   1  12
TORSDOF 5
ENDMDL
MODEL 8
REMARK VINA RESULT:      -5.1      8.473      9.445
REMARK  5 active torsions:
REMARK  status: ('A' for Active; 'I' for Inactive)
REMARK    1  A    between atoms: C_6  and  N_1 
REMARK    2  A    between atoms: O_9  and  C_6 
REMARK    3  A    between atoms: C_8  and  O_9 
REMARK    4  A    between atoms: C_12  and  C_8 
REMARK    5  A    between atoms: C_14  and  C_12 
ROOT
ATOM      1  N   UNL d   1     -39.736  14.640  20.408  0.00  0.00    -0.150 N 
ATOM      2  N   UNL d   1     -39.127  14.100  20.544  0.00  0.00    -0.055 NA
ATOM      3  C   UNL d   1     -39.903  15.238  20.957  0.00  0.00     0.285 A 
ATOM      4  N   UNL d   1     -38.680  14.153  21.230  0.00  0.00    -0.130 NA
ATOM      5  C   UNL d   1     -39.444  15.279  21.643  0.00  0.00     0.077 A 
ATOM      6  C   UNL d   1     -38.836  14.739  21.778  0.00  0.00     0.109 A 
ATOM      7  O   UNL d   1     -40.506  15.773  20.823  0.00  0.00    -0.265 OA
ATOM      8  C   UNL d   1     -39.603  15.869  22.194  0.00  0.00     0.006 A 
ATOM      9  C   UNL d   1     -38.388  14.792  22.465  0.00  0.00     0.021 A 
ATOM     10  C   UNL d   1     -39.155  15.922  22.881  0.00  0.00     0.000 A 
ATOM     11  C   UNL d   1     -38.543  15.379  23.017  0.00  0.00     0.002 A 
ENDROOT
BRANCH   1  12
ATOM     12  C   UNL d   1     -40.188  14.588  19.717  0.00  0.00     0.233 C 
BRANCH  12  13
ATOM     13  O   UNL d   1     -39.817  14.468  18.991  0.00  0.00    -0.251 OA
BRANCH  13  14
ATOM     14  C   UNL d   1     -40.270  14.328  18.318  0.00  0.00     0.302 C 
ATOM     15  O   UNL d   1     -40.828  13.721  18.313  0.00  0.00    -0.259 OA
BRANCH  14  16
ATOM     16  C   UNL d   1     -40.166  14.798  17.649  0.00  0.00     0.069 C 
BRANCH  16  17
ATOM     17  C   UNL d   1     -39.596  14.639  17.161  0.00  0.00     0.005 A 
ATOM     18  C   UNL d   1     -39.108  15.236  16.868  0.00  0.00     0.000 A 
ATOM     19  C   UNL d   1     -38.491  15.065  16.339  0.00  0.00     0.000 A 
ATOM     20  C   UNL d   1     -38.361  14.278  16.100  0.00  0.00     0.000 A 
ATOM     21  C   UNL d   1     -38.847  13.671  16.390  0.00  0.00     0.000 A 
ATOM     22  C   UNL d   1     -39.469  13.843  16.923  0.00  0.00     0.000 A 
ENDBRANCH  16  17
ENDBRANCH  14  16
ENDBRANCH  13  14
ENDBRANCH  12  13
ENDBRANCH   1  12
TORSDOF 5
ENDMDL
