MODEL 1
REMARK VINA RESULT:      56.3      0.000      0.000
REMARK  4 active torsions:
REMARK  status: ('A' for Active; 'I' for Inactive)
REMARK    1  A    between atoms: C_9  and  C_3 
REMARK    2  A    between atoms: C_11  and  C_8 
REMARK    3  A    between atoms: N_10  and  C_11 
REMARK    4  A    between atoms: C_18  and  N_10 
ROOT
ATOM      1  N   UNL d   1      60.537  48.588  50.886  0.00  0.00    -0.267 N 
ATOM      2  C   UNL d   1      60.692  49.228  51.383  0.00  0.00     0.201 A 
ATOM      3  C   UNL d   1      61.213  48.110  50.870  0.00  0.00     0.171 A 
ATOM      4  N   UNL d   1      61.775  48.457  51.356  0.00  0.00    -0.128 NA
ATOM      5  N   UNL d   1      61.453  49.146  51.672  0.00  0.00    -0.121 NA
ATOM      6  S   UNL d   1      60.016  49.706  51.399  0.00  0.00    -0.045 SA
ATOM      7  C   UNL d   1      59.769  48.668  50.593  0.00  0.00     0.091 A 
ATOM      8  C   UNL d   1      59.447  49.357  50.909  0.00  0.00     0.069 A 
ENDROOT
BRANCH   3   9
ATOM      9  C   UNL d   1      61.297  47.407  50.437  0.00  0.00     0.036 A 
ATOM     10  C   UNL d   1      60.964  46.711  50.726  0.00  0.00     0.004 A 
ATOM     11  C   UNL d   1      61.043  46.007  50.301  0.00  0.00     0.007 A 
ATOM     12  C   UNL d   1      61.457  46.007  49.588  0.00  0.00     0.035 A 
ATOM     13  C   UNL d   1      61.791  46.696  49.297  0.00  0.00     0.007 A 
ATOM     14 BR   UNL d   1      61.542  45.313  49.158  0.00  0.00    -0.049 Br
ATOM     15  C   UNL d   1      61.706  47.398  49.729  0.00  0.00     0.004 A 
ENDBRANCH   3   9
BRANCH   8  16
ATOM     16  C   UNL d   1      58.694  49.653  50.768  0.00  0.00     0.107 C 
BRANCH  16  17
ATOM     17  N   UNL d   1      58.345  49.546  50.024  0.00  0.00    -0.243 NA
BRANCH  17  18
ATOM     18  C   UNL d   1      57.521  49.581  49.943  0.00  0.00     0.081 A 
ATOM     19  C   UNL d   1      57.274  49.570  49.157  0.00  0.00     0.019 A 
ATOM     20  C   UNL d   1      56.444  49.607  49.164  0.00  0.00     0.002 A 
ATOM     21  C   UNL d   1      56.193  49.640  49.953  0.00  0.00     0.002 A 
ATOM     22  C   UNL d   1      56.858  49.624  50.434  0.00  0.00     0.019 A 
ENDBRANCH  17  18
ENDBRANCH  16  17
ENDBRANCH   8  16
TORSDOF 4
ENDMDL
MODEL 2
REMARK VINA RESULT:      57.9      1.731      4.465
REMARK  4 active torsions:
REMARK  status: ('A' for Active; 'I' for Inactive)
REMARK    1  A    between atoms: C_9  and  C_3 
REMARK    2  A    between atoms: C_11  and  C_8 
REMARK    3  A    between atoms: N_10  and  C_11 
REMARK    4  A    between atoms: C_18  and  N_10 
ROOT
ATOM      1  N   UNL d   1      60.144  48.871  50.815  0.00  0.00    -0.267 N 
ATOM      2  C   UNL d   1      60.814  48.943  51.291  0.00  0.00     0.201 A 
ATOM      3  C   UNL d   1      59.550  49.348  51.139  0.00  0.00     0.171 A 
ATOM      4  N   UNL d   1      59.857  49.708  51.808  0.00  0.00    -0.128 NA
ATOM      5  N   UNL d   1      60.637  49.458  51.902  0.00  0.00    -0.121 NA
ATOM      6  S   UNL d   1      61.409  48.466  50.967  0.00  0.00    -0.045 SA
ATOM      7  C   UNL d   1      60.321  48.351  50.197  0.00  0.00     0.091 A 
ATOM      8  C   UNL d   1      61.101  48.102  50.292  0.00  0.00     0.069 A 
ENDROOT
BRANCH   3   9
ATOM      9  C   UNL d   1      58.784  49.438  50.833  0.00  0.00     0.036 A 
ATOM     10  C   UNL d   1      58.137  49.389  51.341  0.00  0.00     0.004 A 
ATOM     11  C   UNL d   1      57.370  49.478  51.045  0.00  0.00     0.007 A 
ATOM     12  C   UNL d   1      57.260  49.617  50.239  0.00  0.00     0.035 A 
ATOM     13  C   UNL d   1      57.900  49.667  49.730  0.00  0.00     0.007 A 
ATOM     14 BR   UNL d   1      56.503  49.707  49.934  0.00  0.00    -0.049 Br
ATOM     15  C   UNL d   1      58.665  49.576  50.036  0.00  0.00     0.004 A 
ENDBRANCH   3   9
BRANCH   8  16
ATOM     16  C   UNL d   1      61.508  47.581  49.803  0.00  0.00     0.107 C 
BRANCH  16  17
ATOM     17  N   UNL d   1      61.867  46.909  50.128  0.00  0.00    -0.243 NA
BRANCH  17  18
ATOM     18  C   UNL d   1      62.049  46.260  49.645  0.00  0.00     0.081 A 
ATOM     19  C   UNL d   1      61.407  45.757  49.529  0.00  0.00     0.019 A 
ATOM     20  C   UNL d   1      61.670  45.139  49.040  0.00  0.00     0.002 A 
ATOM     21  C   UNL d   1      62.469  45.272  48.863  0.00  0.00     0.002 A 
ATOM     22  C   UNL d   1      62.703  45.965  49.237  0.00  0.00     0.019 A 
ENDBRANCH  17  18
ENDBRANCH  16  17
ENDBRANCH   8  16
TORSDOF 4
ENDMDL
