MODEL 1
REMARK VINA RESULT:      -3.5      0.000      0.000
REMARK  5 active torsions:
REMARK  status: ('A' for Active; 'I' for Inactive)
REMARK    1  A    between atoms: N_5  and  C_1 
REMARK    2  A    between atoms: C_8  and  C_3 
REMARK       I    between atoms: C_7  and  N_5 
REMARK    3  A    between atoms: C_11  and  C_7 
REMARK    4  A    between atoms: C_21  and  C_20 
REMARK    5  A    between atoms: C_24  and  C_21 
ROOT
ATOM      1  N   UNL d   1      33.237  21.182 -21.475  0.00  0.00    -0.165 NA
ATOM      2  C   UNL d   1      32.684  21.764 -21.331  0.00  0.00     0.282 C 
ATOM      3  O   UNL d   1      32.043  21.871 -21.842  0.00  0.00    -0.265 OA
ENDROOT
BRANCH   1   4
ATOM      4  C   UNL d   1      33.162  20.693 -22.133  0.00  0.00     0.297 A 
ATOM      5  O   UNL d   1      33.052  19.877 -22.110  0.00  0.00    -0.253 OA
ATOM      6  C   UNL d   1      33.005  19.605 -22.891  0.00  0.00     0.206 A 
ATOM      7  N   UNL d   1      33.088  20.254 -23.385  0.00  0.00    -0.119 NA
ATOM      8  N   UNL d   1      33.184  20.925 -22.917  0.00  0.00    -0.101 NA
BRANCH   6   9
ATOM      9  C   UNL d   1      32.896  18.819 -23.122  0.00  0.00     0.045 A 
ATOM     10  C   UNL d   1      32.505  18.643 -23.836  0.00  0.00     0.030 A 
ATOM     11  C   UNL d   1      32.403  17.876 -24.053  0.00  0.00     0.123 A 
ATOM     12  O   UNL d   1      32.013  17.711 -24.767  0.00  0.00    -0.301 OA
ATOM     13  C   UNL d   1      32.676  17.263 -23.582  0.00  0.00     0.123 A 
ATOM     14  C   UNL d   1      31.900  16.937 -25.003  0.00  0.00     0.149 A 
ATOM     15  C   UNL d   1      32.175  16.319 -24.530  0.00  0.00     0.149 A 
ATOM     16  O   UNL d   1      32.563  16.472 -23.820  0.00  0.00    -0.301 OA
ATOM     17  C   UNL d   1      33.057  17.417 -22.886  0.00  0.00     0.027 A 
ATOM     18  C   UNL d   1      33.174  18.204 -22.642  0.00  0.00     0.006 A 
ENDBRANCH   6   9
ENDBRANCH   1   4
BRANCH   2  19
ATOM     19  C   UNL d   1      32.758  22.254 -20.672  0.00  0.00     0.058 A 
ATOM     20  C   UNL d   1      33.166  21.971 -20.015  0.00  0.00     0.005 A 
ATOM     21  C   UNL d   1      33.241  22.462 -19.353  0.00  0.00     0.000 A 
ATOM     22  C   UNL d   1      32.914  23.220 -19.351  0.00  0.00     0.000 A 
ATOM     23  C   UNL d   1      32.509  23.488 -20.018  0.00  0.00     0.000 A 
ATOM     24  C   UNL d   1      32.433  23.002 -20.677  0.00  0.00     0.005 A 
BRANCH  22  25
ATOM     25  C   UNL d   1      32.992  23.702 -18.692  0.00  0.00     0.000 C 
BRANCH  25  26
ATOM     26  C   UNL d   1      32.660  23.478 -17.971  0.00  0.00     0.000 A 
ATOM     27  C   UNL d   1      33.147  23.221 -17.351  0.00  0.00     0.000 A 
ATOM     28  C   UNL d   1      32.812  22.997 -16.632  0.00  0.00     0.000 A 
ATOM     29  C   UNL d   1      31.983  23.029 -16.527  0.00  0.00     0.000 A 
ATOM     30  C   UNL d   1      31.501  23.285 -17.147  0.00  0.00     0.000 A 
ATOM     31  C   UNL d   1      31.836  23.511 -17.872  0.00  0.00     0.000 A 
ENDBRANCH  25  26
ENDBRANCH  22  25
ENDBRANCH   2  19
TORSDOF 5
ENDMDL
MODEL 2
REMARK VINA RESULT:      -3.1      1.603      2.902
REMARK  5 active torsions:
REMARK  status: ('A' for Active; 'I' for Inactive)
REMARK    1  A    between atoms: N_5  and  C_1 
REMARK    2  A    between atoms: C_8  and  C_3 
REMARK       I    between atoms: C_7  and  N_5 
REMARK    3  A    between atoms: C_11  and  C_7 
REMARK    4  A    between atoms: C_21  and  C_20 
REMARK    5  A    between atoms: C_24  and  C_21 
ROOT
ATOM      1  N   UNL d   1      32.759  19.217 -22.406  0.00  0.00    -0.165 NA
ATOM      2  C   UNL d   1      32.946  19.856 -22.876  0.00  0.00     0.282 C 
ATOM      3  O   UNL d   1      33.064  19.760 -23.689  0.00  0.00    -0.265 OA
ENDROOT
BRANCH   1   4
ATOM      4  C   UNL d   1      32.685  18.467 -22.736  0.00  0.00     0.297 A 
ATOM      5  O   UNL d   1      32.029  18.191 -23.151  0.00  0.00    -0.253 OA
ATOM      6  C   UNL d   1      32.185  17.413 -23.385  0.00  0.00     0.206 A 
ATOM      7  N   UNL d   1      32.933  17.217 -23.113  0.00  0.00    -0.119 NA
ATOM      8  N   UNL d   1      33.241  17.867 -22.713  0.00  0.00    -0.101 NA
BRANCH   6   9
ATOM      9  C   UNL d   1      31.672  16.927 -23.816  0.00  0.00     0.045 A 
ATOM     10  C   UNL d   1      30.857  16.921 -23.642  0.00  0.00     0.030 A 
ATOM     11  C   UNL d   1      30.366  16.446 -24.065  0.00  0.00     0.123 A 
ATOM     12  O   UNL d   1      29.556  16.446 -23.885  0.00  0.00    -0.301 OA
ATOM     13  C   UNL d   1      30.654  15.967 -24.666  0.00  0.00     0.123 A 
ATOM     14  C   UNL d   1      29.043  15.970 -24.306  0.00  0.00     0.149 A 
ATOM     15  C   UNL d   1      29.330  15.488 -24.910  0.00  0.00     0.149 A 
ATOM     16  O   UNL d   1      30.132  15.480 -25.097  0.00  0.00    -0.301 OA
ATOM     17  C   UNL d   1      31.442  15.962 -24.847  0.00  0.00     0.027 A 
ATOM     18  C   UNL d   1      31.969  16.446 -24.421  0.00  0.00     0.006 A 
ENDBRANCH   6   9
ENDBRANCH   1   4
BRANCH   2  19
ATOM     19  C   UNL d   1      33.021  20.608 -22.545  0.00  0.00     0.058 A 
ATOM     20  C   UNL d   1      32.969  21.263 -23.042  0.00  0.00     0.005 A 
ATOM     21  C   UNL d   1      33.043  22.018 -22.711  0.00  0.00     0.000 A 
ATOM     22  C   UNL d   1      33.167  22.112 -21.901  0.00  0.00     0.000 A 
ATOM     23  C   UNL d   1      33.216  21.446 -21.418  0.00  0.00     0.000 A 
ATOM     24  C   UNL d   1      33.143  20.694 -21.744  0.00  0.00     0.005 A 
BRANCH  22  25
ATOM     25  C   UNL d   1      33.240  22.864 -21.579  0.00  0.00     0.000 C 
BRANCH  25  26
ATOM     26  C   UNL d   1      32.685  23.138 -21.033  0.00  0.00     0.000 A 
ATOM     27  C   UNL d   1      31.939  23.390 -21.291  0.00  0.00     0.000 A 
ATOM     28  C   UNL d   1      31.387  23.664 -20.744  0.00  0.00     0.000 A 
ATOM     29  C   UNL d   1      31.579  23.687 -19.930  0.00  0.00     0.000 A 
ATOM     30  C   UNL d   1      32.324  23.436 -19.677  0.00  0.00     0.000 A 
ATOM     31  C   UNL d   1      32.881  23.160 -20.226  0.00  0.00     0.000 A 
ENDBRANCH  25  26
ENDBRANCH  22  25
ENDBRANCH   2  19
TORSDOF 5
ENDMDL
MODEL 3
REMARK VINA RESULT:      -3.1      1.344      6.904
REMARK  5 active torsions:
REMARK  status: ('A' for Active; 'I' for Inactive)
REMARK    1  A    between atoms: N_5  and  C_1 
REMARK    2  A    between atoms: C_8  and  C_3 
REMARK       I    between atoms: C_7  and  N_5 
REMARK    3  A    between atoms: C_11  and  C_7 
REMARK    4  A    between atoms: C_21  and  C_20 
REMARK    5  A    between atoms: C_24  and  C_21 
ROOT
ATOM      1  N   UNL d   1      32.893  20.159 -21.993  0.00  0.00    -0.165 NA
ATOM      2  C   UNL d   1      32.987  20.021 -22.790  0.00  0.00     0.282 C 
ATOM      3  O   UNL d   1      33.116  20.647 -23.314  0.00  0.00    -0.265 OA
ENDROOT
BRANCH   1   4
ATOM      4  C   UNL d   1      32.925  20.928 -21.699  0.00  0.00     0.297 A 
ATOM      5  O   UNL d   1      32.989  21.132 -20.904  0.00  0.00    -0.253 OA
ATOM      6  C   UNL d   1      33.003  21.958 -20.854  0.00  0.00     0.206 A 
ATOM      7  N   UNL d   1      32.948  22.254 -21.616  0.00  0.00    -0.119 NA
ATOM      8  N   UNL d   1      32.900  21.619 -22.137  0.00  0.00    -0.101 NA
BRANCH   6   9
ATOM      9  C   UNL d   1      33.063  22.398 -20.155  0.00  0.00     0.045 A 
ATOM     10  C   UNL d   1      33.032  22.015 -19.416  0.00  0.00     0.030 A 
ATOM     11  C   UNL d   1      33.091  22.450 -18.743  0.00  0.00     0.123 A 
ATOM     12  O   UNL d   1      33.059  22.060 -18.011  0.00  0.00    -0.301 OA
ATOM     13  C   UNL d   1      33.180  23.265 -18.771  0.00  0.00     0.123 A 
ATOM     14  C   UNL d   1      33.117  22.486 -17.317  0.00  0.00     0.149 A 
ATOM     15  C   UNL d   1      33.207  23.306 -17.343  0.00  0.00     0.149 A 
ATOM     16  O   UNL d   1      33.239  23.702 -18.064  0.00  0.00    -0.301 OA
ATOM     17  C   UNL d   1      33.211  23.651 -19.481  0.00  0.00     0.027 A 
ATOM     18  C   UNL d   1      33.153  23.220 -20.191  0.00  0.00     0.006 A 
ENDBRANCH   6   9
ENDBRANCH   1   4
BRANCH   2  19
ATOM     19  C   UNL d   1      32.955  19.251 -23.085  0.00  0.00     0.058 A 
ATOM     20  C   UNL d   1      32.868  19.144 -23.897  0.00  0.00     0.005 A 
ATOM     21  C   UNL d   1      32.836  18.372 -24.193  0.00  0.00     0.000 A 
ATOM     22  C   UNL d   1      32.889  17.723 -23.686  0.00  0.00     0.000 A 
ATOM     23  C   UNL d   1      32.975  17.848 -22.875  0.00  0.00     0.000 A 
ATOM     24  C   UNL d   1      33.008  18.614 -22.578  0.00  0.00     0.005 A 
BRANCH  22  25
ATOM     25  C   UNL d   1      32.856  16.960 -23.987  0.00  0.00     0.000 C 
BRANCH  25  26
ATOM     26  C   UNL d   1      32.133  16.568 -24.049  0.00  0.00     0.000 A 
ATOM     27  C   UNL d   1      31.842  16.128 -23.409  0.00  0.00     0.000 A 
ATOM     28  C   UNL d   1      31.119  15.738 -23.475  0.00  0.00     0.000 A 
ATOM     29  C   UNL d   1      30.679  15.786 -24.184  0.00  0.00     0.000 A 
ATOM     30  C   UNL d   1      30.972  16.225 -24.819  0.00  0.00     0.000 A 
ATOM     31  C   UNL d   1      31.700  16.619 -24.756  0.00  0.00     0.000 A 
ENDBRANCH  25  26
ENDBRANCH  22  25
ENDBRANCH   2  19
TORSDOF 5
ENDMDL
