MODEL 1
REMARK VINA RESULT:      -6.8      0.000      0.000
REMARK  2 active torsions:
REMARK  status: ('A' for Active; 'I' for Inactive)
REMARK    1  A    between atoms: C_5  and  N_2 
REMARK    2  A    between atoms: C_4  and  C_5 
ROOT
ATOM      1  C   UNL d   1      52.765  31.769  53.012  0.00  0.00     0.206 A 
ATOM      2  N   UNL d   1      53.260  32.316  53.390  0.00  0.00    -0.279 N 
ATOM      3  N   UNL d   1      52.130  32.192  52.674  0.00  0.00    -0.215 NA
ATOM      4  C   UNL d   1      52.242  32.989  52.847  0.00  0.00     0.120 A 
ATOM      5  C   UNL d   1      52.936  33.068  53.287  0.00  0.00     0.103 A 
ATOM      6  S   UNL d   1      52.879  30.951  52.977  0.00  0.00    -0.038 SA
ENDROOT
BRANCH   2   7
ATOM      7  C   UNL d   1      53.960  32.139  53.801  0.00  0.00     0.089 C 
BRANCH   7   8
ATOM      8  C   UNL d   1      54.259  32.670  54.349  0.00  0.00     0.047 A 
ATOM      9  S   UNL d   1      54.830  33.242  54.204  0.00  0.00    -0.085 SA
ATOM     10  C   UNL d   1      54.969  33.655  54.905  0.00  0.00     0.035 A 
ATOM     11  C   UNL d   1      54.475  33.329  55.487  0.00  0.00     0.007 A 
ATOM     12  C   UNL d   1      54.039  32.723  55.142  0.00  0.00     0.009 A 
ENDBRANCH   7   8
ENDBRANCH   2   7
TORSDOF 2
ENDMDL
MODEL 2
REMARK VINA RESULT:      -6.3      1.373      2.917
REMARK  2 active torsions:
REMARK  status: ('A' for Active; 'I' for Inactive)
REMARK    1  A    between atoms: C_5  and  N_2 
REMARK    2  A    between atoms: C_4  and  C_5 
ROOT
ATOM      1  C   UNL d   1      53.815  32.812  54.276  0.00  0.00     0.206 A 
ATOM      2  N   UNL d   1      53.116  32.975  53.860  0.00  0.00    -0.279 N 
ATOM      3  N   UNL d   1      54.138  32.108  53.965  0.00  0.00    -0.215 NA
ATOM      4  C   UNL d   1      53.637  31.849  53.365  0.00  0.00     0.120 A 
ATOM      5  C   UNL d   1      53.007  32.381  53.299  0.00  0.00     0.103 A 
ATOM      6  S   UNL d   1      54.134  33.265  54.890  0.00  0.00    -0.038 SA
ENDROOT
BRANCH   2   7
ATOM      7  C   UNL d   1      52.613  33.625  53.987  0.00  0.00     0.089 C 
BRANCH   7   8
ATOM      8  C   UNL d   1      52.053  33.824  53.423  0.00  0.00     0.047 A 
ATOM      9  S   UNL d   1      51.268  33.581  53.416  0.00  0.00    -0.085 SA
ATOM     10  C   UNL d   1      50.900  33.907  52.752  0.00  0.00     0.035 A 
ATOM     11  C   UNL d   1      51.469  34.356  52.350  0.00  0.00     0.007 A 
ATOM     12  C   UNL d   1      52.178  34.304  52.764  0.00  0.00     0.009 A 
ENDBRANCH   7   8
ENDBRANCH   2   7
TORSDOF 2
ENDMDL
MODEL 3
REMARK VINA RESULT:      -6.0      1.232      2.778
REMARK  2 active torsions:
REMARK  status: ('A' for Active; 'I' for Inactive)
REMARK    1  A    between atoms: C_5  and  N_2 
REMARK    2  A    between atoms: C_4  and  C_5 
ROOT
ATOM      1  C   UNL d   1      53.407  33.710  54.205  0.00  0.00     0.206 A 
ATOM      2  N   UNL d   1      53.595  32.935  53.979  0.00  0.00    -0.279 N 
ATOM      3  N   UNL d   1      53.720  33.836  54.968  0.00  0.00    -0.215 NA
ATOM      4  C   UNL d   1      54.095  33.141  55.201  0.00  0.00     0.120 A 
ATOM      5  C   UNL d   1      54.020  32.585  54.593  0.00  0.00     0.103 A 
ATOM      6  S   UNL d   1      52.984  34.260  53.755  0.00  0.00    -0.038 SA
ENDROOT
BRANCH   2   7
ATOM      7  C   UNL d   1      53.392  32.573  53.258  0.00  0.00     0.089 C 
BRANCH   7   8
ATOM      8  C   UNL d   1      53.245  31.768  53.232  0.00  0.00     0.047 A 
ATOM      9  S   UNL d   1      52.516  31.415  53.096  0.00  0.00    -0.085 SA
ATOM     10  C   UNL d   1      52.615  30.595  53.116  0.00  0.00     0.035 A 
ATOM     11  C   UNL d   1      53.416  30.446  53.268  0.00  0.00     0.007 A 
ATOM     12  C   UNL d   1      53.802  31.170  53.339  0.00  0.00     0.009 A 
ENDBRANCH   7   8
ENDBRANCH   2   7
TORSDOF 2
ENDMDL
