MODEL 1
REMARK VINA RESULT:      19.4      0.000      0.000
REMARK  4 active torsions:
REMARK  status: ('A' for Active; 'I' for Inactive)
REMARK    1  A    between atoms: S_3  and  C_1 
REMARK    2  A    between atoms: C_7  and  S_3 
REMARK    3  A    between atoms: S_11  and  C_4 
REMARK    4  A    between atoms: C_10  and  C_5 
ROOT
ATOM      1  C   UNL d   1      45.978 -17.420  43.744  0.00  0.00     0.199 A 
ATOM      2  N   UNL d   1      45.872 -16.617  43.591  0.00  0.00    -0.208 NA
ATOM      3  C   UNL d   1      45.920 -17.532  44.560  0.00  0.00     0.156 A 
ATOM      4  C   UNL d   1      45.749 -16.231  44.312  0.00  0.00     0.184 A 
ATOM      5  O   UNL d   1      45.780 -16.802  44.905  0.00  0.00    -0.281 OA
ENDROOT
BRANCH   1   6
ATOM      6  S   UNL d   1      46.116 -18.000  43.177  0.00  0.00     0.229 S 
ATOM      7  O   UNL d   1      46.643 -18.335  43.709  0.00  0.00    -0.215 OA
ATOM      8  O   UNL d   1      45.591 -17.670  42.640  0.00  0.00    -0.215 OA
BRANCH   6   9
ATOM      9  C   UNL d   1      46.248 -18.577  42.603  0.00  0.00     0.089 A 
ATOM     10  C   UNL d   1      46.402 -18.351  41.825  0.00  0.00     0.011 A 
ATOM     11  C   UNL d   1      46.534 -18.927  41.254  0.00  0.00     0.001 A 
ATOM     12  C   UNL d   1      46.514 -19.726  41.449  0.00  0.00     0.000 A 
ATOM     13  C   UNL d   1      46.359 -19.952  42.231  0.00  0.00     0.001 A 
ATOM     14  C   UNL d   1      46.646 -20.303  40.874  0.00  0.00     0.000 C 
ATOM     15  C   UNL d   1      46.228 -19.381  42.799  0.00  0.00     0.011 A 
ENDBRANCH   6   9
ENDBRANCH   1   6
BRANCH   3  16
ATOM     16  S   UNL d   1      45.991 -18.250  44.954  0.00  0.00    -0.086 SA
ATOM     17  C   UNL d   1      45.367 -18.788  44.937  0.00  0.00     0.076 C 
ENDBRANCH   3  16
BRANCH   4  18
ATOM     18  C   UNL d   1      45.618 -15.421  44.415  0.00  0.00     0.041 A 
ATOM     19  C   UNL d   1      46.223 -14.878  44.242  0.00  0.00     0.004 A 
ATOM     20  C   UNL d   1      46.089 -14.072  44.346  0.00  0.00     0.000 A 
ATOM     21  C   UNL d   1      45.366 -13.807  44.616  0.00  0.00     0.000 A 
ATOM     22  C   UNL d   1      44.759 -14.343  44.790  0.00  0.00     0.000 A 
ATOM     23  C   UNL d   1      44.883 -15.142  44.690  0.00  0.00     0.004 A 
ENDBRANCH   4  18
TORSDOF 4
ENDMDL
MODEL 2
REMARK VINA RESULT:      20.4      0.798      4.435
REMARK  4 active torsions:
REMARK  status: ('A' for Active; 'I' for Inactive)
REMARK    1  A    between atoms: S_3  and  C_1 
REMARK    2  A    between atoms: C_7  and  S_3 
REMARK    3  A    between atoms: S_11  and  C_4 
REMARK    4  A    between atoms: C_10  and  C_5 
ROOT
ATOM      1  C   UNL d   1      46.169 -17.679  43.373  0.00  0.00     0.199 A 
ATOM      2  N   UNL d   1      46.202 -17.859  42.570  0.00  0.00    -0.208 NA
ATOM      3  C   UNL d   1      46.331 -18.371  43.794  0.00  0.00     0.156 A 
ATOM      4  C   UNL d   1      46.385 -18.662  42.492  0.00  0.00     0.184 A 
ATOM      5  O   UNL d   1      46.463 -18.971  43.252  0.00  0.00    -0.281 OA
ENDROOT
BRANCH   1   6
ATOM      6  S   UNL d   1      46.003 -16.938  43.691  0.00  0.00     0.229 S 
ATOM      7  O   UNL d   1      45.720 -17.332  44.352  0.00  0.00    -0.215 OA
ATOM      8  O   UNL d   1      46.285 -16.539  43.031  0.00  0.00    -0.215 OA
BRANCH   6   9
ATOM      9  C   UNL d   1      45.840 -16.192  44.001  0.00  0.00     0.089 A 
ATOM     10  C   UNL d   1      45.219 -16.098  44.536  0.00  0.00     0.011 A 
ATOM     11  C   UNL d   1      45.058 -15.354  44.844  0.00  0.00     0.001 A 
ATOM     12  C   UNL d   1      45.508 -14.701  44.625  0.00  0.00     0.000 A 
ATOM     13  C   UNL d   1      46.131 -14.796  44.087  0.00  0.00     0.001 A 
ATOM     14  C   UNL d   1      45.345 -13.954  44.935  0.00  0.00     0.000 C 
ATOM     15  C   UNL d   1      46.292 -15.535  43.780  0.00  0.00     0.011 A 
ENDBRANCH   6   9
ENDBRANCH   1   6
BRANCH   3  16
ATOM     16  S   UNL d   1      46.355 -18.442  44.613  0.00  0.00    -0.086 SA
ATOM     17  C   UNL d   1      46.618 -19.144  44.954  0.00  0.00     0.076 C 
ENDBRANCH   3  16
BRANCH   4  18
ATOM     18  C   UNL d   1      46.472 -19.075  41.781  0.00  0.00     0.041 A 
ATOM     19  C   UNL d   1      46.535 -19.903  41.787  0.00  0.00     0.004 A 
ATOM     20  C   UNL d   1      46.622 -20.311  41.076  0.00  0.00     0.000 A 
ATOM     21  C   UNL d   1      46.646 -19.903  40.369  0.00  0.00     0.000 A 
ATOM     22  C   UNL d   1      46.584 -19.077  40.357  0.00  0.00     0.000 A 
ATOM     23  C   UNL d   1      46.497 -18.667  41.055  0.00  0.00     0.004 A 
ENDBRANCH   4  18
TORSDOF 4
ENDMDL
MODEL 3
REMARK VINA RESULT:      21.3      1.299      2.147
REMARK  4 active torsions:
REMARK  status: ('A' for Active; 'I' for Inactive)
REMARK    1  A    between atoms: S_3  and  C_1 
REMARK    2  A    between atoms: C_7  and  S_3 
REMARK    3  A    between atoms: S_11  and  C_4 
REMARK    4  A    between atoms: C_10  and  C_5 
ROOT
ATOM      1  C   UNL d   1      45.499 -15.782  44.345  0.00  0.00     0.199 A 
ATOM      2  N   UNL d   1      45.933 -15.092  44.223  0.00  0.00    -0.208 NA
ATOM      3  C   UNL d   1      44.797 -15.575  44.728  0.00  0.00     0.156 A 
ATOM      4  C   UNL d   1      45.500 -14.457  44.530  0.00  0.00     0.184 A 
ATOM      5  O   UNL d   1      44.800 -14.763  44.840  0.00  0.00    -0.281 OA
ENDROOT
BRANCH   1   6
ATOM      6  S   UNL d   1      45.732 -16.539  44.122  0.00  0.00     0.229 S 
ATOM      7  O   UNL d   1      46.104 -16.593  44.850  0.00  0.00    -0.215 OA
ATOM      8  O   UNL d   1      45.361 -16.489  43.391  0.00  0.00    -0.215 OA
BRANCH   6   9
ATOM      9  C   UNL d   1      45.960 -17.295  43.889  0.00  0.00     0.089 A 
ATOM     10  C   UNL d   1      45.879 -17.522  43.100  0.00  0.00     0.011 A 
ATOM     11  C   UNL d   1      46.107 -18.277  42.869  0.00  0.00     0.001 A 
ATOM     12  C   UNL d   1      46.416 -18.809  43.415  0.00  0.00     0.000 A 
ATOM     13  C   UNL d   1      46.498 -18.580  44.207  0.00  0.00     0.001 A 
ATOM     14  C   UNL d   1      46.645 -19.567  43.182  0.00  0.00     0.000 C 
ATOM     15  C   UNL d   1      46.271 -17.831  44.438  0.00  0.00     0.011 A 
ENDBRANCH   6   9
ENDBRANCH   1   6
BRANCH   3  16
ATOM     16  S   UNL d   1      44.201 -16.094  44.955  0.00  0.00    -0.086 SA
ATOM     17  C   UNL d   1      43.415 -15.914  44.785  0.00  0.00     0.076 C 
ENDBRANCH   3  16
BRANCH   4  18
ATOM     18  C   UNL d   1      45.730 -13.663  44.526  0.00  0.00     0.041 A 
ATOM     19  C   UNL d   1      45.285 -13.104  44.103  0.00  0.00     0.004 A 
ATOM     20  C   UNL d   1      45.518 -12.313  44.101  0.00  0.00     0.000 A 
ATOM     21  C   UNL d   1      46.184 -12.081  44.512  0.00  0.00     0.000 A 
ATOM     22  C   UNL d   1      46.632 -12.634  44.935  0.00  0.00     0.000 A 
ATOM     23  C   UNL d   1      46.408 -13.417  44.942  0.00  0.00     0.004 A 
ENDBRANCH   4  18
TORSDOF 4
ENDMDL
