MODEL 1
REMARK VINA RESULT:     -10.6      0.000      0.000
REMARK  4 active torsions:
REMARK  status: ('A' for Active; 'I' for Inactive)
REMARK    1  A    between atoms: N_3  and  S_1 
REMARK    2  A    between atoms: C_4  and  S_1 
REMARK    3  A    between atoms: C_2  and  C_5 
REMARK    4  A    between atoms: C_8  and  N_3 
ROOT
ATOM      1  N   UNL d   1      53.073  32.816  52.613  0.00  0.00    -0.158 NA
ENDROOT
BRANCH   1   2
ATOM      2  S   UNL d   1      53.109  32.060  52.938  0.00  0.00     0.285 S 
ATOM      3  O   UNL d   1      53.815  32.251  53.337  0.00  0.00    -0.198 OA
ATOM      4  O   UNL d   1      52.410  31.870  52.545  0.00  0.00    -0.198 OA
BRANCH   2   5
ATOM      5  C   UNL d   1      53.152  31.305  53.268  0.00  0.00     0.105 A 
ATOM      6  C   UNL d   1      53.608  31.170  53.937  0.00  0.00     0.013 A 
ATOM      7  C   UNL d   1      53.646  30.420  54.257  0.00  0.00     0.001 A 
ATOM      8  C   UNL d   1      53.229  29.791  53.914  0.00  0.00     0.000 A 
ATOM      9  C   UNL d   1      52.774  29.930  53.243  0.00  0.00     0.001 A 
ATOM     10  C   UNL d   1      53.267  29.033  54.238  0.00  0.00     0.000 C 
ATOM     11  C   UNL d   1      52.730  30.684  52.915  0.00  0.00     0.013 A 
ENDBRANCH   2   5
ENDBRANCH   1   2
BRANCH   1  12
ATOM     12  C   UNL d   1      52.655  33.464  52.923  0.00  0.00     0.094 A 
ATOM     13  C   UNL d   1      53.033  33.981  53.452  0.00  0.00     0.024 A 
ATOM     14  C   UNL d   1      52.614  34.626  53.759  0.00  0.00     0.073 A 
ATOM     15  C   UNL d   1      51.824  34.760  53.543  0.00  0.00     0.004 A 
ATOM     16  C   UNL d   1      51.454  34.240  53.014  0.00  0.00     0.002 A 
ATOM     17  C   UNL d   1      51.872  33.594  52.707  0.00  0.00     0.020 A 
BRANCH  14  18
ATOM     18  C   UNL d   1      52.983  35.143  54.286  0.00  0.00     0.419 C 
ATOM     19  F   UNL d   1      53.302  35.854  54.011  0.00  0.00    -0.166 F 
ATOM     20  F   UNL d   1      53.037  34.955  55.083  0.00  0.00    -0.166 F 
ATOM     21  F   UNL d   1      53.038  35.515  53.551  0.00  0.00    -0.166 F 
ENDBRANCH  14  18
ENDBRANCH   1  12
TORSDOF 4
ENDMDL
MODEL 2
REMARK VINA RESULT:     -10.5      2.528      4.385
REMARK  4 active torsions:
REMARK  status: ('A' for Active; 'I' for Inactive)
REMARK    1  A    between atoms: N_3  and  S_1 
REMARK    2  A    between atoms: C_4  and  S_1 
REMARK    3  A    between atoms: C_2  and  C_5 
REMARK    4  A    between atoms: C_8  and  N_3 
ROOT
ATOM      1  N   UNL d   1      54.049  31.627  53.478  0.00  0.00    -0.158 NA
ENDROOT
BRANCH   1   2
ATOM      2  S   UNL d   1      53.807  32.387  53.683  0.00  0.00     0.285 S 
ATOM      3  O   UNL d   1      54.034  32.260  54.475  0.00  0.00    -0.198 OA
ATOM      4  O   UNL d   1      53.583  32.514  52.900  0.00  0.00    -0.198 OA
BRANCH   2   5
ATOM      5  C   UNL d   1      53.567  33.147  53.896  0.00  0.00     0.105 A 
ATOM      6  C   UNL d   1      53.081  33.583  53.399  0.00  0.00     0.013 A 
ATOM      7  C   UNL d   1      52.847  34.334  53.616  0.00  0.00     0.001 A 
ATOM      8  C   UNL d   1      53.096  34.664  54.335  0.00  0.00     0.000 A 
ATOM      9  C   UNL d   1      53.583  34.225  54.830  0.00  0.00     0.001 A 
ATOM     10  C   UNL d   1      52.859  35.424  54.554  0.00  0.00     0.000 C 
ATOM     11  C   UNL d   1      53.823  33.466  54.618  0.00  0.00     0.013 A 
ENDBRANCH   2   5
ENDBRANCH   1   2
BRANCH   1  12
ATOM     12  C   UNL d   1      53.582  30.940  53.500  0.00  0.00     0.094 A 
ATOM     13  C   UNL d   1      53.701  30.382  54.103  0.00  0.00     0.024 A 
ATOM     14  C   UNL d   1      53.234  29.698  54.122  0.00  0.00     0.073 A 
ATOM     15  C   UNL d   1      52.650  29.568  53.546  0.00  0.00     0.004 A 
ATOM     16  C   UNL d   1      52.538  30.130  52.947  0.00  0.00     0.002 A 
ATOM     17  C   UNL d   1      53.005  30.814  52.927  0.00  0.00     0.020 A 
BRANCH  14  18
ATOM     18  C   UNL d   1      53.347  29.140  54.718  0.00  0.00     0.419 C 
ATOM     19  F   UNL d   1      53.730  28.428  54.550  0.00  0.00    -0.166 F 
ATOM     20  F   UNL d   1      53.080  29.287  55.481  0.00  0.00    -0.166 F 
ATOM     21  F   UNL d   1      53.682  28.800  54.045  0.00  0.00    -0.166 F 
ENDBRANCH  14  18
ENDBRANCH   1  12
TORSDOF 4
ENDMDL
MODEL 3
REMARK VINA RESULT:     -10.0      1.807      3.622
REMARK  4 active torsions:
REMARK  status: ('A' for Active; 'I' for Inactive)
REMARK    1  A    between atoms: N_3  and  S_1 
REMARK    2  A    between atoms: C_4  and  S_1 
REMARK    3  A    between atoms: C_2  and  C_5 
REMARK    4  A    between atoms: C_8  and  N_3 
ROOT
ATOM      1  N   UNL d   1      53.149  33.550  52.782  0.00  0.00    -0.158 NA
ENDROOT
BRANCH   1   2
ATOM      2  S   UNL d   1      52.363  33.788  52.721  0.00  0.00     0.285 S 
ATOM      3  O   UNL d   1      52.543  34.517  53.081  0.00  0.00    -0.198 OA
ATOM      4  O   UNL d   1      52.184  33.067  52.364  0.00  0.00    -0.198 OA
BRANCH   2   5
ATOM      5  C   UNL d   1      51.578  34.034  52.663  0.00  0.00     0.105 A 
ATOM      6  C   UNL d   1      51.147  34.211  53.340  0.00  0.00     0.013 A 
ATOM      7  C   UNL d   1      50.371  34.453  53.275  0.00  0.00     0.001 A 
ATOM      8  C   UNL d   1      50.010  34.524  52.532  0.00  0.00     0.000 A 
ATOM      9  C   UNL d   1      50.443  34.346  51.857  0.00  0.00     0.001 A 
ATOM     10  C   UNL d   1      49.225  34.769  52.467  0.00  0.00     0.000 C 
ATOM     11  C   UNL d   1      51.228  34.101  51.914  0.00  0.00     0.013 A 
ENDBRANCH   2   5
ENDBRANCH   1   2
BRANCH   1  12
ATOM     12  C   UNL d   1      53.462  33.028  53.348  0.00  0.00     0.094 A 
ATOM     13  C   UNL d   1      53.871  33.330  54.004  0.00  0.00     0.024 A 
ATOM     14  C   UNL d   1      54.182  32.807  54.566  0.00  0.00     0.073 A 
ATOM     15  C   UNL d   1      54.086  31.987  54.479  0.00  0.00     0.004 A 
ATOM     16  C   UNL d   1      53.676  31.693  53.822  0.00  0.00     0.002 A 
ATOM     17  C   UNL d   1      53.366  32.215  53.259  0.00  0.00     0.020 A 
BRANCH  14  18
ATOM     18  C   UNL d   1      54.589  33.101  55.220  0.00  0.00     0.419 C 
ATOM     19  F   UNL d   1      54.347  32.899  55.983  0.00  0.00    -0.166 F 
ATOM     20  F   UNL d   1      55.237  33.595  55.117  0.00  0.00    -0.166 F 
ATOM     21  F   UNL d   1      53.986  32.635  55.539  0.00  0.00    -0.166 F 
ENDBRANCH  14  18
ENDBRANCH   1  12
TORSDOF 4
ENDMDL
MODEL 4
REMARK VINA RESULT:      -9.7      1.466      1.912
REMARK  4 active torsions:
REMARK  status: ('A' for Active; 'I' for Inactive)
REMARK    1  A    between atoms: N_3  and  S_1 
REMARK    2  A    between atoms: C_4  and  S_1 
REMARK    3  A    between atoms: C_2  and  C_5 
REMARK    4  A    between atoms: C_8  and  N_3 
ROOT
ATOM      1  N   UNL d   1      53.631  32.773  53.178  0.00  0.00    -0.158 NA
ENDROOT
BRANCH   1   2
ATOM      2  S   UNL d   1      53.447  31.973  53.252  0.00  0.00     0.285 S 
ATOM      3  O   UNL d   1      52.634  32.151  53.289  0.00  0.00    -0.198 OA
ATOM      4  O   UNL d   1      54.251  31.797  53.216  0.00  0.00    -0.198 OA
BRANCH   2   5
ATOM      5  C   UNL d   1      53.255  31.175  53.327  0.00  0.00     0.105 A 
ATOM      6  C   UNL d   1      53.710  30.681  53.799  0.00  0.00     0.013 A 
ATOM      7  C   UNL d   1      53.514  29.892  53.868  0.00  0.00     0.001 A 
ATOM      8  C   UNL d   1      52.859  29.581  53.466  0.00  0.00     0.000 A 
ATOM      9  C   UNL d   1      52.405  30.078  52.994  0.00  0.00     0.001 A 
ATOM     10  C   UNL d   1      52.661  28.783  53.536  0.00  0.00     0.000 C 
ATOM     11  C   UNL d   1      52.597  30.876  52.919  0.00  0.00     0.013 A 
ENDBRANCH   2   5
ENDBRANCH   1   2
BRANCH   1  12
ATOM     12  C   UNL d   1      53.732  33.314  53.801  0.00  0.00     0.094 A 
ATOM     13  C   UNL d   1      54.440  33.313  54.235  0.00  0.00     0.024 A 
ATOM     14  C   UNL d   1      54.537  33.853  54.855  0.00  0.00     0.073 A 
ATOM     15  C   UNL d   1      53.936  34.392  55.045  0.00  0.00     0.004 A 
ATOM     16  C   UNL d   1      53.232  34.387  54.607  0.00  0.00     0.002 A 
ATOM     17  C   UNL d   1      53.134  33.847  53.986  0.00  0.00     0.020 A 
BRANCH  14  18
ATOM     18  C   UNL d   1      55.238  33.857  55.291  0.00  0.00     0.419 C 
ATOM     19  F   UNL d   1      55.262  33.506  56.038  0.00  0.00    -0.166 F 
ATOM     20  F   UNL d   1      55.914  34.208  54.985  0.00  0.00    -0.166 F 
ATOM     21  F   UNL d   1      54.693  33.463  55.770  0.00  0.00    -0.166 F 
ENDBRANCH  14  18
ENDBRANCH   1  12
TORSDOF 4
ENDMDL
