MODEL 1
REMARK VINA RESULT:      29.0      0.000      0.000
REMARK  1 active torsions:
REMARK  status: ('A' for Active; 'I' for Inactive)
REMARK    1  A    between atoms: C_9  and  C_2 
ROOT
ATOM      1  N   UNL d   1      14.082  13.105  -2.415  0.00  0.00    -0.204 NA
ATOM      2  C   UNL d   1      14.352  13.271  -1.652  0.00  0.00     0.107 A 
ATOM      3  C   UNL d   1      13.763  12.355  -2.589  0.00  0.00     0.304 A 
ATOM      4  C   UNL d   1      14.939  14.179  -0.713  0.00  0.00     0.020 A 
ATOM      5  O   UNL d   1      13.987  11.945  -1.230  0.00  0.00    -0.299 OA
ATOM      6  C   UNL d   1      14.666  14.006  -1.481  0.00  0.00     0.023 A 
ATOM      7  C   UNL d   1      14.307  12.695  -1.056  0.00  0.00     0.118 A 
ATOM      8  O   UNL d   1      13.493  12.187  -3.348  0.00  0.00    -0.263 OA
ATOM      9  C   UNL d   1      14.893  13.604  -0.125  0.00  0.00     0.004 A 
ATOM     10  C   UNL d   1      13.717  11.779  -1.997  0.00  0.00     0.185 A 
ATOM     11  C   UNL d   1      14.578  12.866  -0.296  0.00  0.00     0.026 A 
ENDROOT
BRANCH   4  12
ATOM     12  C   UNL d   1      15.254  14.923  -0.549  0.00  0.00     0.090 A 
ATOM     13  N   UNL d   1      14.996  15.630  -0.885  0.00  0.00    -0.219 NA
ATOM     14  C   UNL d   1      15.461  16.238  -0.568  0.00  0.00     0.215 A 
ATOM     15  S   UNL d   1      15.999  15.903  -0.042  0.00  0.00    -0.045 SA
ATOM     16  N   UNL d   1      15.394  17.045  -0.750  0.00  0.00    -0.120 N 
ATOM     17  C   UNL d   1      15.870  15.086  -0.031  0.00  0.00     0.058 A 
ENDBRANCH   4  12
TORSDOF 1
ENDMDL
