MODEL 1
REMARK VINA RESULT:      97.0      0.000      0.000
REMARK  4 active torsions:
REMARK  status: ('A' for Active; 'I' for Inactive)
REMARK    1  A    between atoms: C_21  and  N_5 
REMARK    2  A    between atoms: C_11  and  C_6 
REMARK       I    between atoms: N_15  and  C_11 
REMARK    3  A    between atoms: C_23  and  N_15 
REMARK    4  A    between atoms: C_22  and  C_23 
ROOT
ATOM      1  C   UNL d   1      58.946  49.683  50.477  0.00  0.00     0.155 A 
ATOM      2  C   UNL d   1      58.978  49.688  51.307  0.00  0.00     0.091 A 
ATOM      3  N   UNL d   1      58.219  49.685  50.098  0.00  0.00    -0.210 NA
ATOM      4  N   UNL d   1      57.554  49.696  51.354  0.00  0.00    -0.258 N 
ATOM      5  N   UNL d   1      59.643  49.677  50.043  0.00  0.00    -0.274 N 
ATOM      6  C   UNL d   1      60.408  49.679  51.252  0.00  0.00     0.094 A 
ATOM      7  C   UNL d   1      57.522  49.692  50.532  0.00  0.00     0.152 A 
ATOM      8  C   UNL d   1      58.282  49.694  51.750  0.00  0.00     0.269 A 
ATOM      9  C   UNL d   1      60.376  49.675  50.430  0.00  0.00     0.175 A 
ATOM     10  C   UNL d   1      59.706  49.686  51.695  0.00  0.00     0.016 A 
ATOM     11  C   UNL d   1      56.791  49.694  50.153  0.00  0.00     0.035 A 
ATOM     12  C   UNL d   1      56.855  49.703  51.805  0.00  0.00     0.084 A 
ATOM     13  N   UNL d   1      61.072  49.668  49.982  0.00  0.00    -0.128 N 
ATOM     14  O   UNL d   1      58.306  49.699  52.572  0.00  0.00    -0.266 OA
ATOM     15  C   UNL d   1      56.129  49.705  51.409  0.00  0.00     0.019 A 
ATOM     16  C   UNL d   1      56.097  49.701  50.587  0.00  0.00     0.005 A 
ATOM     17  C   UNL d   1      56.759  49.689  49.326  0.00  0.00     0.003 C 
ENDROOT
BRANCH   6  18
ATOM     18  C   UNL d   1      61.136  49.677  51.640  0.00  0.00     0.282 C 
ATOM     19  N   UNL d   1      61.157  49.657  52.465  0.00  0.00    -0.206 NA
ATOM     20  O   UNL d   1      61.836  49.695  51.208  0.00  0.00    -0.265 OA
BRANCH  19  21
ATOM     21  C   UNL d   1      61.890  49.655  52.860  0.00  0.00     0.104 C 
BRANCH  21  22
ATOM     22  C   UNL d   1      62.106  49.004  53.324  0.00  0.00     0.038 A 
ATOM     23  C   UNL d   1      62.896  48.899  53.533  0.00  0.00     0.101 A 
ATOM     24  N   UNL d   1      63.110  48.249  53.996  0.00  0.00    -0.242 NA
ATOM     25  C   UNL d   1      62.544  47.710  54.249  0.00  0.00     0.099 A 
ATOM     26  C   UNL d   1      61.749  47.820  54.037  0.00  0.00     0.021 A 
ATOM     27  C   UNL d   1      61.535  48.468  53.575  0.00  0.00     0.005 A 
ENDBRANCH  21  22
ENDBRANCH  19  21
ENDBRANCH   6  18
BRANCH   5  28
ATOM     28  C   UNL d   1      59.611  49.672  49.216  0.00  0.00     0.083 C 
ATOM     29  C   UNL d   1      58.933  49.393  48.833  0.00  0.00     0.021 C 
ENDBRANCH   5  28
TORSDOF 4
ENDMDL
