MODEL 1
REMARK VINA RESULT:      -3.4      0.000      0.000
REMARK  6 active torsions:
REMARK  status: ('A' for Active; 'I' for Inactive)
REMARK    1  A    between atoms: C_6  and  C_2 
REMARK    2  A    between atoms: C_7  and  C_6 
REMARK    3  A    between atoms: C_8  and  C_15 
REMARK       I    between atoms: N_9  and  C_8 
REMARK    4  A    between atoms: C_16  and  N_9 
REMARK    5  A    between atoms: O_13  and  C_12 
REMARK    6  A    between atoms: C_15  and  O_13 
ROOT
ATOM      1  C   UNL d   1      58.721  -0.498  29.479  0.00  0.00     0.023 A 
ATOM      2  C   UNL d   1      58.278  -0.104  30.049  0.00  0.00     0.100 A 
ATOM      3  C   UNL d   1      58.641  -0.306  28.688  0.00  0.00     0.002 A 
ATOM      4  C   UNL d   1      57.752   0.486  29.826  0.00  0.00     0.025 A 
ATOM      5  C   UNL d   1      58.115   0.285  28.456  0.00  0.00     0.000 A 
ATOM      6  C   UNL d   1      57.670   0.681  29.032  0.00  0.00     0.002 A 
ENDROOT
BRANCH   2   7
ATOM      7  O   UNL d   1      58.360  -0.299  30.847  0.00  0.00    -0.300 OA
BRANCH   7   8
ATOM      8  C   UNL d   1      57.895   0.093  31.410  0.00  0.00     0.185 C 
BRANCH   8   9
ATOM      9  C   UNL d   1      58.249   0.397  32.095  0.00  0.00     0.304 C 
ATOM     10  N   UNL d   1      57.820   0.411  32.801  0.00  0.00    -0.206 NA
ATOM     11  O   UNL d   1      59.019   0.681  32.069  0.00  0.00    -0.263 OA
BRANCH  10  12
ATOM     12  C   UNL d   1      57.050   0.127  32.826  0.00  0.00     0.085 A 
ATOM     13  C   UNL d   1      56.411   0.646  32.803  0.00  0.00     0.021 A 
ATOM     14  C   UNL d   1      55.634   0.360  32.829  0.00  0.00     0.031 A 
ATOM     15  C   UNL d   1      55.500  -0.456  32.877  0.00  0.00     0.140 A 
ATOM     16  C   UNL d   1      56.143  -0.977  32.900  0.00  0.00     0.031 A 
ATOM     17  F   UNL d   1      54.729  -0.749  32.903  0.00  0.00    -0.204 F 
ATOM     18  C   UNL d   1      56.916  -0.689  32.874  0.00  0.00     0.021 A 
ENDBRANCH  10  12
ENDBRANCH   8   9
ENDBRANCH   7   8
ENDBRANCH   2   7
BRANCH   1  19
ATOM     19  C   UNL d   1      59.250  -1.091  29.700  0.00  0.00     0.013 C 
BRANCH  19  20
ATOM     20  C   UNL d   1      59.217  -1.832  29.348  0.00  0.00     0.092 A 
ATOM     21  C   UNL d   1      59.847  -2.248  29.035  0.00  0.00     0.288 A 
ATOM     22  N   UNL d   1      59.566  -2.960  28.741  0.00  0.00    -0.163 NA
ATOM     23  O   UNL d   1      60.631  -1.996  29.017  0.00  0.00    -0.265 OA
ATOM     24  C   UNL d   1      58.751  -2.985  28.873  0.00  0.00     0.313 A 
ATOM     25  S   UNL d   1      58.535  -2.285  29.250  0.00  0.00    -0.021 SA
ATOM     26  O   UNL d   1      58.241  -3.602  28.665  0.00  0.00    -0.258 OA
ENDBRANCH  19  20
ENDBRANCH   1  19
TORSDOF 6
ENDMDL
MODEL 2
REMARK VINA RESULT:      -2.9      1.399      2.268
REMARK  6 active torsions:
REMARK  status: ('A' for Active; 'I' for Inactive)
REMARK    1  A    between atoms: C_6  and  C_2 
REMARK    2  A    between atoms: C_7  and  C_6 
REMARK    3  A    between atoms: C_8  and  C_15 
REMARK       I    between atoms: N_9  and  C_8 
REMARK    4  A    between atoms: C_16  and  N_9 
REMARK    5  A    between atoms: O_13  and  C_12 
REMARK    6  A    between atoms: C_15  and  O_13 
ROOT
ATOM      1  C   UNL d   1      59.802  -1.717  29.365  0.00  0.00     0.023 A 
ATOM      2  C   UNL d   1      59.591  -0.937  29.519  0.00  0.00     0.100 A 
ATOM      3  C   UNL d   1      60.563  -1.977  29.514  0.00  0.00     0.002 A 
ATOM      4  C   UNL d   1      60.146  -0.414  29.824  0.00  0.00     0.025 A 
ATOM      5  C   UNL d   1      61.125  -1.458  29.820  0.00  0.00     0.000 A 
ATOM      6  C   UNL d   1      60.911  -0.673  29.974  0.00  0.00     0.002 A 
ENDROOT
BRANCH   2   7
ATOM      7  O   UNL d   1      58.822  -0.677  29.368  0.00  0.00    -0.300 OA
BRANCH   7   8
ATOM      8  C   UNL d   1      58.439  -0.200  29.927  0.00  0.00     0.185 C 
BRANCH   8   9
ATOM      9  C   UNL d   1      57.907   0.383  29.673  0.00  0.00     0.304 C 
ATOM     10  N   UNL d   1      57.339   0.670  30.198  0.00  0.00    -0.206 NA
ATOM     11  O   UNL d   1      57.947   0.670  28.904  0.00  0.00    -0.263 OA
BRANCH  10  12
ATOM     12  C   UNL d   1      57.299   0.383  30.966  0.00  0.00     0.085 A 
ATOM     13  C   UNL d   1      57.797   0.679  31.551  0.00  0.00     0.021 A 
ATOM     14  C   UNL d   1      57.757   0.389  32.326  0.00  0.00     0.031 A 
ATOM     15  C   UNL d   1      57.211  -0.204  32.513  0.00  0.00     0.140 A 
ATOM     16  C   UNL d   1      56.710  -0.502  31.925  0.00  0.00     0.031 A 
ATOM     17  F   UNL d   1      57.164  -0.499  33.283  0.00  0.00    -0.204 F 
ATOM     18  C   UNL d   1      56.752  -0.211  31.154  0.00  0.00     0.021 A 
ENDBRANCH  10  12
ENDBRANCH   8   9
ENDBRANCH   7   8
ENDBRANCH   2   7
BRANCH   1  19
ATOM     19  C   UNL d   1      59.247  -2.245  29.059  0.00  0.00     0.013 C 
BRANCH  19  20
ATOM     20  C   UNL d   1      59.464  -3.013  28.865  0.00  0.00     0.092 A 
ATOM     21  C   UNL d   1      58.958  -3.637  28.716  0.00  0.00     0.288 A 
ATOM     22  N   UNL d   1      59.408  -4.299  28.544  0.00  0.00    -0.163 NA
ATOM     23  O   UNL d   1      58.134  -3.606  28.734  0.00  0.00    -0.265 OA
ATOM     24  C   UNL d   1      60.204  -4.084  28.588  0.00  0.00     0.313 A 
ATOM     25  S   UNL d   1      60.239  -3.285  28.786  0.00  0.00    -0.021 SA
ATOM     26  O   UNL d   1      60.853  -4.580  28.455  0.00  0.00    -0.258 OA
ENDBRANCH  19  20
ENDBRANCH   1  19
TORSDOF 6
ENDMDL
