MODEL 1
REMARK VINA RESULT:      -9.4      0.000      0.000
REMARK  5 active torsions:
REMARK  status: ('A' for Active; 'I' for Inactive)
REMARK    1  A    between atoms: C_7  and  C_1 
REMARK    2  A    between atoms: C_8  and  N_2 
REMARK    3  A    between atoms: C_13  and  C_7 
REMARK    4  A    between atoms: C_14  and  C_8 
REMARK    5  A    between atoms: O_22  and  C_15 
ROOT
ATOM      1  C   UNL d   1      53.755  33.040  53.598  0.00  0.00     0.095 A 
ATOM      2  N   UNL d   1      52.666  32.432  52.867  0.00  0.00    -0.304 N 
ATOM      3  C   UNL d   1      53.990  32.288  53.863  0.00  0.00     0.202 A 
ATOM      4  C   UNL d   1      53.091  33.118  53.097  0.00  0.00     0.087 A 
ATOM      5  C   UNL d   1      53.563  31.619  53.630  0.00  0.00     0.057 A 
ATOM      6  C   UNL d   1      52.898  31.688  53.130  0.00  0.00     0.067 A 
ATOM      7  C   UNL d   1      52.478  31.023  52.902  0.00  0.00     0.020 A 
ATOM      8  C   UNL d   1      53.794  30.868  53.893  0.00  0.00     0.029 A 
ATOM      9  O   UNL d   1      54.651  32.210  54.361  0.00  0.00    -0.286 OA
ATOM     10  C   UNL d   1      53.365  30.203  53.658  0.00  0.00     0.094 A 
ATOM     11  C   UNL d   1      52.711  30.280  53.165  0.00  0.00     0.026 A 
ENDROOT
BRANCH   1  12
ATOM     12  C   UNL d   1      54.179  33.709  53.828  0.00  0.00     0.200 C 
ATOM     13  O   UNL d   1      54.957  33.795  53.605  0.00  0.00    -0.286 OA
BRANCH  12  14
ATOM     14  C   UNL d   1      53.807  34.288  54.285  0.00  0.00     0.039 A 
ATOM     15  C   UNL d   1      53.579  34.113  55.057  0.00  0.00     0.003 A 
ATOM     16  C   UNL d   1      53.209  34.693  55.506  0.00  0.00     0.000 A 
ATOM     17  C   UNL d   1      53.069  35.443  55.187  0.00  0.00     0.000 A 
ATOM     18  C   UNL d   1      53.302  35.606  54.411  0.00  0.00     0.000 A 
ATOM     19  C   UNL d   1      53.674  35.028  53.954  0.00  0.00     0.003 A 
ENDBRANCH  12  14
ENDBRANCH   1  12
BRANCH   2  20
ATOM     20  C   UNL d   1      52.011  32.509  52.374  0.00  0.00     0.080 C 
BRANCH  20  21
ATOM     21  C   UNL d   1      51.443  33.091  52.532  0.00  0.00     0.018 A 
ATOM     22  C   UNL d   1      51.398  33.752  52.043  0.00  0.00     0.002 A 
ATOM     23  C   UNL d   1      50.836  34.331  52.197  0.00  0.00     0.000 A 
ATOM     24  C   UNL d   1      50.325  34.253  52.830  0.00  0.00     0.000 A 
ATOM     25  C   UNL d   1      50.376  33.583  53.318  0.00  0.00     0.000 A 
ATOM     26  C   UNL d   1      49.763  34.832  52.983  0.00  0.00     0.000 C 
ATOM     27  C   UNL d   1      50.938  33.004  53.165  0.00  0.00     0.002 A 
ENDBRANCH  20  21
ENDBRANCH   2  20
BRANCH  10  28
ATOM     28  O   UNL d   1      53.604  29.459  53.925  0.00  0.00    -0.328 OA
ATOM     29  C   UNL d   1      53.150  29.069  54.488  0.00  0.00     0.181 C 
ENDBRANCH  10  28
TORSDOF 5
ENDMDL
MODEL 2
REMARK VINA RESULT:      -9.0      1.038      3.375
REMARK  5 active torsions:
REMARK  status: ('A' for Active; 'I' for Inactive)
REMARK    1  A    between atoms: C_7  and  C_1 
REMARK    2  A    between atoms: C_8  and  N_2 
REMARK    3  A    between atoms: C_13  and  C_7 
REMARK    4  A    between atoms: C_14  and  C_8 
REMARK    5  A    between atoms: O_22  and  C_15 
ROOT
ATOM      1  C   UNL d   1      53.238  31.991  53.317  0.00  0.00     0.095 A 
ATOM      2  N   UNL d   1      52.616  33.173  53.871  0.00  0.00    -0.304 N 
ATOM      3  C   UNL d   1      53.962  32.221  53.654  0.00  0.00     0.202 A 
ATOM      4  C   UNL d   1      52.559  32.465  53.423  0.00  0.00     0.087 A 
ATOM      5  C   UNL d   1      54.007  32.920  54.093  0.00  0.00     0.057 A 
ATOM      6  C   UNL d   1      53.333  33.400  54.203  0.00  0.00     0.067 A 
ATOM      7  C   UNL d   1      53.381  34.091  54.639  0.00  0.00     0.020 A 
ATOM      8  C   UNL d   1      54.728  33.152  54.430  0.00  0.00     0.029 A 
ATOM      9  O   UNL d   1      54.638  31.749  53.548  0.00  0.00    -0.286 OA
ATOM     10  C   UNL d   1      54.767  33.851  54.867  0.00  0.00     0.094 A 
ATOM     11  C   UNL d   1      54.098  34.318  54.971  0.00  0.00     0.026 A 
ENDROOT
BRANCH   1  12
ATOM     12  C   UNL d   1      53.190  31.294  52.878  0.00  0.00     0.200 C 
ATOM     13  O   UNL d   1      53.378  31.298  52.086  0.00  0.00    -0.286 OA
BRANCH  12  14
ATOM     14  C   UNL d   1      52.951  30.596  53.249  0.00  0.00     0.039 A 
ATOM     15  C   UNL d   1      53.506  30.131  53.641  0.00  0.00     0.003 A 
ATOM     16  C   UNL d   1      53.261  29.438  54.008  0.00  0.00     0.000 A 
ATOM     17  C   UNL d   1      52.467  29.211  53.983  0.00  0.00     0.000 A 
ATOM     18  C   UNL d   1      51.918  29.686  53.586  0.00  0.00     0.000 A 
ATOM     19  C   UNL d   1      52.158  30.383  53.215  0.00  0.00     0.003 A 
ENDBRANCH  12  14
ENDBRANCH   1  12
BRANCH   2  20
ATOM     20  C   UNL d   1      51.947  33.640  53.975  0.00  0.00     0.080 C 
BRANCH  20  21
ATOM     21  C   UNL d   1      51.453  33.802  53.330  0.00  0.00     0.018 A 
ATOM     22  C   UNL d   1      50.688  33.498  53.322  0.00  0.00     0.002 A 
ATOM     23  C   UNL d   1      50.197  33.657  52.684  0.00  0.00     0.000 A 
ATOM     24  C   UNL d   1      50.463  34.113  52.060  0.00  0.00     0.000 A 
ATOM     25  C   UNL d   1      51.236  34.416  52.075  0.00  0.00     0.000 A 
ATOM     26  C   UNL d   1      49.971  34.272  51.421  0.00  0.00     0.000 C 
ATOM     27  C   UNL d   1      51.729  34.258  52.713  0.00  0.00     0.002 A 
ENDBRANCH  20  21
ENDBRANCH   2  20
BRANCH  10  28
ATOM     28  O   UNL d   1      55.490  34.074  55.199  0.00  0.00    -0.328 OA
ATOM     29  C   UNL d   1      55.580  34.059  56.015  0.00  0.00     0.181 C 
ENDBRANCH  10  28
TORSDOF 5
ENDMDL
MODEL 3
REMARK VINA RESULT:      -8.6      1.462      3.553
REMARK  5 active torsions:
REMARK  status: ('A' for Active; 'I' for Inactive)
REMARK    1  A    between atoms: C_7  and  C_1 
REMARK    2  A    between atoms: C_8  and  N_2 
REMARK    3  A    between atoms: C_13  and  C_7 
REMARK    4  A    between atoms: C_14  and  C_8 
REMARK    5  A    between atoms: O_22  and  C_15 
ROOT
ATOM      1  C   UNL d   1      52.961  34.114  53.444  0.00  0.00     0.095 A 
ATOM      2  N   UNL d   1      52.206  33.072  52.785  0.00  0.00    -0.304 N 
ATOM      3  C   UNL d   1      52.273  34.576  53.491  0.00  0.00     0.202 A 
ATOM      4  C   UNL d   1      52.934  33.358  53.090  0.00  0.00     0.087 A 
ATOM      5  C   UNL d   1      51.561  34.284  53.187  0.00  0.00     0.057 A 
ATOM      6  C   UNL d   1      51.525  33.529  52.832  0.00  0.00     0.067 A 
ATOM      7  C   UNL d   1      50.818  33.244  52.532  0.00  0.00     0.020 A 
ATOM      8  C   UNL d   1      50.872  34.742  53.233  0.00  0.00     0.029 A 
ATOM      9  O   UNL d   1      52.300  35.328  53.844  0.00  0.00    -0.286 OA
ATOM     10  C   UNL d   1      50.164  34.447  52.928  0.00  0.00     0.094 A 
ATOM     11  C   UNL d   1      50.137  33.702  52.580  0.00  0.00     0.026 A 
ENDROOT
BRANCH   1  12
ATOM     12  C   UNL d   1      53.673  34.402  53.746  0.00  0.00     0.200 C 
ATOM     13  O   UNL d   1      54.031  35.046  53.400  0.00  0.00    -0.286 OA
BRANCH  12  14
ATOM     14  C   UNL d   1      54.016  34.032  54.400  0.00  0.00     0.039 A 
ATOM     15  C   UNL d   1      53.606  34.002  55.113  0.00  0.00     0.003 A 
ATOM     16  C   UNL d   1      53.953  33.633  55.760  0.00  0.00     0.000 A 
ATOM     17  C   UNL d   1      54.705  33.296  55.694  0.00  0.00     0.000 A 
ATOM     18  C   UNL d   1      55.107  33.332  54.972  0.00  0.00     0.000 A 
ATOM     19  C   UNL d   1      54.764  33.702  54.319  0.00  0.00     0.003 A 
ENDBRANCH  12  14
ENDBRANCH   1  12
BRANCH   2  20
ATOM     20  C   UNL d   1      52.179  32.327  52.436  0.00  0.00     0.080 C 
BRANCH  20  21
ATOM     21  C   UNL d   1      52.505  31.675  52.831  0.00  0.00     0.018 A 
ATOM     22  C   UNL d   1      53.233  31.379  52.587  0.00  0.00     0.002 A 
ATOM     23  C   UNL d   1      53.558  30.733  52.977  0.00  0.00     0.000 A 
ATOM     24  C   UNL d   1      53.163  30.386  53.602  0.00  0.00     0.000 A 
ATOM     25  C   UNL d   1      52.428  30.690  53.843  0.00  0.00     0.000 A 
ATOM     26  C   UNL d   1      53.487  29.740  53.992  0.00  0.00     0.000 C 
ATOM     27  C   UNL d   1      52.102  31.337  53.453  0.00  0.00     0.002 A 
ENDBRANCH  20  21
ENDBRANCH   2  20
BRANCH  10  28
ATOM     28  O   UNL d   1      49.483  34.911  52.979  0.00  0.00    -0.328 OA
ATOM     29  C   UNL d   1      48.984  34.967  52.329  0.00  0.00     0.181 C 
ENDBRANCH  10  28
TORSDOF 5
ENDMDL
MODEL 4
REMARK VINA RESULT:      -7.6      1.374      3.779
REMARK  5 active torsions:
REMARK  status: ('A' for Active; 'I' for Inactive)
REMARK    1  A    between atoms: C_7  and  C_1 
REMARK    2  A    between atoms: C_8  and  N_2 
REMARK    3  A    between atoms: C_13  and  C_7 
REMARK    4  A    between atoms: C_14  and  C_8 
REMARK    5  A    between atoms: O_22  and  C_15 
ROOT
ATOM      1  C   UNL d   1      52.257  33.416  53.648  0.00  0.00     0.095 A 
ATOM      2  N   UNL d   1      53.382  32.549  53.379  0.00  0.00    -0.304 N 
ATOM      3  C   UNL d   1      52.739  33.880  54.141  0.00  0.00     0.202 A 
ATOM      4  C   UNL d   1      52.574  32.747  53.263  0.00  0.00     0.087 A 
ATOM      5  C   UNL d   1      53.533  33.676  54.248  0.00  0.00     0.057 A 
ATOM      6  C   UNL d   1      53.858  33.008  53.866  0.00  0.00     0.067 A 
ATOM      7  C   UNL d   1      54.645  32.809  53.974  0.00  0.00     0.020 A 
ATOM      8  C   UNL d   1      54.017  34.136  54.738  0.00  0.00     0.029 A 
ATOM      9  O   UNL d   1      52.424  34.546  54.524  0.00  0.00    -0.286 OA
ATOM     10  C   UNL d   1      54.810  33.928  54.842  0.00  0.00     0.094 A 
ATOM     11  C   UNL d   1      55.122  33.268  54.462  0.00  0.00     0.026 A 
ENDROOT
BRANCH   1  12
ATOM     12  C   UNL d   1      51.464  33.617  53.540  0.00  0.00     0.200 C 
ATOM     13  O   UNL d   1      50.944  33.575  54.165  0.00  0.00    -0.286 OA
BRANCH  12  14
ATOM     14  C   UNL d   1      51.205  33.861  52.794  0.00  0.00     0.039 A 
ATOM     15  C   UNL d   1      51.719  34.268  52.297  0.00  0.00     0.003 A 
ATOM     16  C   UNL d   1      51.455  34.508  51.557  0.00  0.00     0.000 A 
ATOM     17  C   UNL d   1      50.683  34.341  51.315  0.00  0.00     0.000 A 
ATOM     18  C   UNL d   1      50.175  33.931  51.823  0.00  0.00     0.000 A 
ATOM     19  C   UNL d   1      50.434  33.688  52.569  0.00  0.00     0.003 A 
ENDBRANCH  12  14
ENDBRANCH   1  12
BRANCH   2  20
ATOM     20  C   UNL d   1      53.694  31.889  52.999  0.00  0.00     0.080 C 
BRANCH  20  21
ATOM     21  C   UNL d   1      53.378  31.138  53.151  0.00  0.00     0.018 A 
ATOM     22  C   UNL d   1      53.673  30.698  53.782  0.00  0.00     0.002 A 
ATOM     23  C   UNL d   1      53.362  29.954  53.936  0.00  0.00     0.000 A 
ATOM     24  C   UNL d   1      52.765  29.650  53.467  0.00  0.00     0.000 A 
ATOM     25  C   UNL d   1      52.473  30.100  52.832  0.00  0.00     0.000 A 
ATOM     26  C   UNL d   1      52.454  28.905  53.621  0.00  0.00     0.000 C 
ATOM     27  C   UNL d   1      52.784  30.845  52.678  0.00  0.00     0.002 A 
ENDBRANCH  20  21
ENDBRANCH   2  20
BRANCH  10  28
ATOM     28  O   UNL d   1      55.283  34.393  55.333  0.00  0.00    -0.328 OA
ATOM     29  C   UNL d   1      55.679  34.041  55.961  0.00  0.00     0.181 C 
ENDBRANCH  10  28
TORSDOF 5
ENDMDL
MODEL 5
REMARK VINA RESULT:      -7.5      1.488      2.965
REMARK  5 active torsions:
REMARK  status: ('A' for Active; 'I' for Inactive)
REMARK    1  A    between atoms: C_7  and  C_1 
REMARK    2  A    between atoms: C_8  and  N_2 
REMARK    3  A    between atoms: C_13  and  C_7 
REMARK    4  A    between atoms: C_14  and  C_8 
REMARK    5  A    between atoms: O_22  and  C_15 
ROOT
ATOM      1  C   UNL d   1      52.564  32.472  52.812  0.00  0.00     0.095 A 
ATOM      2  N   UNL d   1      53.836  32.040  53.347  0.00  0.00    -0.304 N 
ATOM      3  C   UNL d   1      52.270  31.700  52.899  0.00  0.00     0.202 A 
ATOM      4  C   UNL d   1      53.349  32.649  53.035  0.00  0.00     0.087 A 
ATOM      5  C   UNL d   1      52.759  31.108  53.207  0.00  0.00     0.057 A 
ATOM      6  C   UNL d   1      53.545  31.276  53.433  0.00  0.00     0.067 A 
ATOM      7  C   UNL d   1      54.025  30.687  53.737  0.00  0.00     0.020 A 
ATOM      8  C   UNL d   1      52.469  30.336  53.295  0.00  0.00     0.029 A 
ATOM      9  O   UNL d   1      51.489  31.524  52.677  0.00  0.00    -0.286 OA
ATOM     10  C   UNL d   1      52.961  29.748  53.603  0.00  0.00     0.094 A 
ATOM     11  C   UNL d   1      53.734  29.923  53.823  0.00  0.00     0.026 A 
ENDROOT
BRANCH   1  12
ATOM     12  C   UNL d   1      52.079  33.066  52.505  0.00  0.00     0.200 C 
ATOM     13  O   UNL d   1      51.795  33.005  51.745  0.00  0.00    -0.286 OA
BRANCH  12  14
ATOM     14  C   UNL d   1      51.887  33.717  52.975  0.00  0.00     0.039 A 
ATOM     15  C   UNL d   1      51.336  33.634  53.581  0.00  0.00     0.003 A 
ATOM     16  C   UNL d   1      51.149  34.286  54.045  0.00  0.00     0.000 A 
ATOM     17  C   UNL d   1      51.510  35.016  53.904  0.00  0.00     0.000 A 
ATOM     18  C   UNL d   1      52.062  35.087  53.292  0.00  0.00     0.000 A 
ATOM     19  C   UNL d   1      52.255  34.436  52.822  0.00  0.00     0.003 A 
ENDBRANCH  12  14
ENDBRANCH   1  12
BRANCH   2  20
ATOM     20  C   UNL d   1      54.609  32.214  53.567  0.00  0.00     0.080 C 
BRANCH  20  21
ATOM     21  C   UNL d   1      54.753  32.782  54.153  0.00  0.00     0.018 A 
ATOM     22  C   UNL d   1      55.219  33.436  53.974  0.00  0.00     0.002 A 
ATOM     23  C   UNL d   1      55.363  34.000  54.553  0.00  0.00     0.000 A 
ATOM     24  C   UNL d   1      55.047  33.915  55.302  0.00  0.00     0.000 A 
ATOM     25  C   UNL d   1      54.578  33.251  55.475  0.00  0.00     0.000 A 
ATOM     26  C   UNL d   1      55.191  34.479  55.881  0.00  0.00     0.000 C 
ATOM     27  C   UNL d   1      54.433  32.686  54.897  0.00  0.00     0.002 A 
ENDBRANCH  20  21
ENDBRANCH   2  20
BRANCH  10  28
ATOM     28  O   UNL d   1      52.663  28.983  53.686  0.00  0.00    -0.328 OA
ATOM     29  C   UNL d   1      52.944  28.505  54.292  0.00  0.00     0.181 C 
ENDBRANCH  10  28
TORSDOF 5
ENDMDL
