MODEL 1
REMARK VINA RESULT:      -3.6      0.000      0.000
REMARK  1 active torsions:
REMARK  status: ('A' for Active; 'I' for Inactive)
REMARK    1  A    between atoms: C_7  and  N_1 
ROOT
ATOM      1  N   UNL d   1      57.520  -0.312  31.495  0.00  0.00    -0.242 N 
ATOM      2  C   UNL d   1      56.880  -0.780  31.583  0.00  0.00     0.267 A 
ATOM      3  C   UNL d   1      57.820   0.199  32.102  0.00  0.00     0.267 A 
ATOM      4  C   UNL d   1      56.488  -0.762  32.318  0.00  0.00     0.057 A 
ATOM      5  C   UNL d   1      57.403   0.184  32.808  0.00  0.00     0.057 A 
ATOM      6  C   UNL d   1      56.743  -0.300  32.898  0.00  0.00     0.009 A 
ATOM      7  O   UNL d   1      58.479   0.681  32.012  0.00  0.00    -0.267 OA
ATOM      8  O   UNL d   1      56.610  -1.267  30.975  0.00  0.00    -0.267 OA
ATOM      9  C   UNL d   1      56.347  -0.285  33.633  0.00  0.00     0.000 A 
ATOM     10  C   UNL d   1      57.673   0.671  33.417  0.00  0.00     0.005 A 
ATOM     11  C   UNL d   1      55.818  -1.254  32.409  0.00  0.00     0.005 A 
ATOM     12  C   UNL d   1      57.286   0.682  34.127  0.00  0.00     0.000 A 
ATOM     13  C   UNL d   1      55.408  -1.264  33.114  0.00  0.00     0.000 A 
ATOM     14  C   UNL d   1      56.626   0.198  34.217  0.00  0.00     0.000 A 
ATOM     15  C   UNL d   1      55.700  -0.754  33.733  0.00  0.00     0.000 A 
ENDROOT
BRANCH   1  16
ATOM     16  C   UNL d   1      57.910  -0.330  30.761  0.00  0.00     0.070 A 
ATOM     17  C   UNL d   1      57.799   0.274  30.196  0.00  0.00     0.021 A 
ATOM     18  C   UNL d   1      58.182   0.245  29.489  0.00  0.00     0.043 A 
ATOM     19  C   UNL d   1      58.719  -0.404  29.286  0.00  0.00     0.196 A 
ATOM     20  C   UNL d   1      58.838  -1.010  29.839  0.00  0.00     0.043 A 
ATOM     21  O   UNL d   1      59.152  -0.479  28.544  0.00  0.00    -0.287 OA
ATOM     22  C   UNL d   1      58.428  -0.965  30.577  0.00  0.00     0.021 A 
ENDBRANCH   1  16
TORSDOF 1
ENDMDL
MODEL 2
REMARK VINA RESULT:      -3.4      0.231      1.802
REMARK  1 active torsions:
REMARK  status: ('A' for Active; 'I' for Inactive)
REMARK    1  A    between atoms: C_7  and  N_1 
ROOT
ATOM      1  N   UNL d   1      57.673  -0.246  31.390  0.00  0.00    -0.242 N 
ATOM      2  C   UNL d   1      57.940   0.210  31.989  0.00  0.00     0.267 A 
ATOM      3  C   UNL d   1      56.986  -0.741  31.443  0.00  0.00     0.267 A 
ATOM      4  C   UNL d   1      57.514   0.193  32.704  0.00  0.00     0.057 A 
ATOM      5  C   UNL d   1      56.599  -0.725  32.165  0.00  0.00     0.057 A 
ATOM      6  C   UNL d   1      56.875  -0.255  32.782  0.00  0.00     0.009 A 
ATOM      7  O   UNL d   1      56.711  -1.211  30.827  0.00  0.00    -0.267 OA
ATOM      8  O   UNL d   1      58.612   0.682  31.910  0.00  0.00    -0.267 OA
ATOM      9  C   UNL d   1      56.451  -0.268  33.501  0.00  0.00     0.000 A 
ATOM     10  C   UNL d   1      55.927  -1.198  32.244  0.00  0.00     0.005 A 
ATOM     11  C   UNL d   1      57.794   0.671  33.330  0.00  0.00     0.005 A 
ATOM     12  C   UNL d   1      55.519  -1.207  32.943  0.00  0.00     0.000 A 
ATOM     13  C   UNL d   1      57.404   0.682  34.046  0.00  0.00     0.000 A 
ATOM     14  C   UNL d   1      55.796  -0.737  33.559  0.00  0.00     0.000 A 
ATOM     15  C   UNL d   1      56.711   0.188  34.111  0.00  0.00     0.000 A 
ENDROOT
BRANCH   1  16
ATOM     16  C   UNL d   1      58.099  -0.229  30.677  0.00  0.00     0.070 A 
ATOM     17  C   UNL d   1      58.603  -0.858  30.457  0.00  0.00     0.021 A 
ATOM     18  C   UNL d   1      59.009  -0.830  29.764  0.00  0.00     0.043 A 
ATOM     19  C   UNL d   1      58.944  -0.157  29.222  0.00  0.00     0.196 A 
ATOM     20  C   UNL d   1      58.448   0.473  29.428  0.00  0.00     0.043 A 
ATOM     21  O   UNL d   1      59.359  -0.082  28.469  0.00  0.00    -0.287 OA
ATOM     22  C   UNL d   1      58.027   0.429  30.161  0.00  0.00     0.021 A 
ENDBRANCH   1  16
TORSDOF 1
ENDMDL
MODEL 3
REMARK VINA RESULT:      -3.4      1.413      3.928
REMARK  1 active torsions:
REMARK  status: ('A' for Active; 'I' for Inactive)
REMARK    1  A    between atoms: C_7  and  N_1 
ROOT
ATOM      1  N   UNL d   1      58.159  -0.018  30.959  0.00  0.00    -0.242 N 
ATOM      2  C   UNL d   1      58.085  -0.348  30.236  0.00  0.00     0.267 A 
ATOM      3  C   UNL d   1      58.873   0.342  31.243  0.00  0.00     0.267 A 
ATOM      4  C   UNL d   1      58.751  -0.335  29.737  0.00  0.00     0.057 A 
ATOM      5  C   UNL d   1      59.502   0.331  30.719  0.00  0.00     0.057 A 
ATOM      6  C   UNL d   1      59.425  -0.009  29.973  0.00  0.00     0.009 A 
ATOM      7  O   UNL d   1      58.951   0.682  31.988  0.00  0.00    -0.267 OA
ATOM      8  O   UNL d   1      57.378  -0.691  29.985  0.00  0.00    -0.267 OA
ATOM      9  C   UNL d   1      60.090   0.001  29.469  0.00  0.00     0.000 A 
ATOM     10  C   UNL d   1      60.210   0.674  30.969  0.00  0.00     0.005 A 
ATOM     11  C   UNL d   1      58.672  -0.681  28.980  0.00  0.00     0.005 A 
ATOM     12  C   UNL d   1      60.852   0.682  30.477  0.00  0.00     0.000 A 
ATOM     13  C   UNL d   1      59.302  -0.689  28.462  0.00  0.00     0.000 A 
ATOM     14  C   UNL d   1      60.774   0.341  29.732  0.00  0.00     0.000 A 
ATOM     15  C   UNL d   1      60.026  -0.330  28.737  0.00  0.00     0.000 A 
ENDROOT
BRANCH   1  16
ATOM     16  C   UNL d   1      57.494  -0.031  31.457  0.00  0.00     0.070 A 
ATOM     17  C   UNL d   1      57.271  -0.725  31.864  0.00  0.00     0.021 A 
ATOM     18  C   UNL d   1      56.625  -0.725  32.343  0.00  0.00     0.043 A 
ATOM     19  C   UNL d   1      56.139  -0.016  32.456  0.00  0.00     0.196 A 
ATOM     20  C   UNL d   1      56.350   0.679  32.058  0.00  0.00     0.043 A 
ATOM     21  O   UNL d   1      55.439   0.033  32.958  0.00  0.00    -0.287 OA
ATOM     22  C   UNL d   1      57.032   0.663  31.558  0.00  0.00     0.021 A 
ENDBRANCH   1  16
TORSDOF 1
ENDMDL
MODEL 4
REMARK VINA RESULT:      -3.3      1.355      4.105
REMARK  1 active torsions:
REMARK  status: ('A' for Active; 'I' for Inactive)
REMARK    1  A    between atoms: C_7  and  N_1 
ROOT
ATOM      1  N   UNL d   1      57.929  -0.031  31.106  0.00  0.00    -0.242 N 
ATOM      2  C   UNL d   1      58.594   0.319  31.374  0.00  0.00     0.267 A 
ATOM      3  C   UNL d   1      57.866  -0.410  30.349  0.00  0.00     0.267 A 
ATOM      4  C   UNL d   1      59.262   0.306  30.877  0.00  0.00     0.057 A 
ATOM      5  C   UNL d   1      58.548  -0.398  29.895  0.00  0.00     0.057 A 
ATOM      6  C   UNL d   1      59.234  -0.037  30.173  0.00  0.00     0.009 A 
ATOM      7  O   UNL d   1      57.181  -0.771  30.072  0.00  0.00    -0.267 OA
ATOM      8  O   UNL d   1      58.627   0.681  32.114  0.00  0.00    -0.267 OA
ATOM      9  C   UNL d   1      59.907  -0.047  29.679  0.00  0.00     0.000 A 
ATOM     10  C   UNL d   1      58.516  -0.761  29.154  0.00  0.00     0.005 A 
ATOM     11  C   UNL d   1      59.958   0.673  31.160  0.00  0.00     0.005 A 
ATOM     12  C   UNL d   1      59.170  -0.768  28.679  0.00  0.00     0.000 A 
ATOM     13  C   UNL d   1      60.634   0.682  30.703  0.00  0.00     0.000 A 
ATOM     14  C   UNL d   1      59.855  -0.407  28.957  0.00  0.00     0.000 A 
ATOM     15  C   UNL d   1      60.583   0.302  29.940  0.00  0.00     0.000 A 
ENDROOT
BRANCH   1  16
ATOM     16  C   UNL d   1      57.262  -0.018  31.602  0.00  0.00     0.070 A 
ATOM     17  C   UNL d   1      56.822   0.682  31.718  0.00  0.00     0.021 A 
ATOM     18  C   UNL d   1      56.178   0.682  32.200  0.00  0.00     0.043 A 
ATOM     19  C   UNL d   1      55.917  -0.033  32.614  0.00  0.00     0.196 A 
ATOM     20  C   UNL d   1      56.345  -0.734  32.507  0.00  0.00     0.043 A 
ATOM     21  O   UNL d   1      55.235  -0.083  33.141  0.00  0.00    -0.287 OA
ATOM     22  C   UNL d   1      57.020  -0.718  31.997  0.00  0.00     0.021 A 
ENDBRANCH   1  16
TORSDOF 1
ENDMDL
MODEL 5
REMARK VINA RESULT:      -1.7      2.949      4.724
REMARK  1 active torsions:
REMARK  status: ('A' for Active; 'I' for Inactive)
REMARK    1  A    between atoms: C_7  and  N_1 
ROOT
ATOM      1  N   UNL d   1      59.825  -2.227  29.082  0.00  0.00    -0.242 N 
ATOM      2  C   UNL d   1      60.303  -1.640  28.831  0.00  0.00     0.267 A 
ATOM      3  C   UNL d   1      59.077  -2.099  29.462  0.00  0.00     0.267 A 
ATOM      4  C   UNL d   1      60.046  -0.857  28.951  0.00  0.00     0.057 A 
ATOM      5  C   UNL d   1      58.865  -1.313  29.559  0.00  0.00     0.057 A 
ATOM      6  C   UNL d   1      59.359  -0.708  29.299  0.00  0.00     0.009 A 
ATOM      7  O   UNL d   1      58.584  -2.703  29.721  0.00  0.00    -0.267 OA
ATOM      8  O   UNL d   1      61.026  -1.794  28.465  0.00  0.00    -0.267 OA
ATOM      9  C   UNL d   1      59.106   0.079  29.417  0.00  0.00     0.000 A 
ATOM     10  C   UNL d   1      58.142  -1.159  29.925  0.00  0.00     0.005 A 
ATOM     11  C   UNL d   1      60.548  -0.242  28.687  0.00  0.00     0.005 A 
ATOM     12  C   UNL d   1      57.901  -0.395  30.037  0.00  0.00     0.000 A 
ATOM     13  C   UNL d   1      60.331   0.538  28.787  0.00  0.00     0.000 A 
ATOM     14  C   UNL d   1      58.395   0.210  29.778  0.00  0.00     0.000 A 
ATOM     15  C   UNL d   1      59.580   0.680  29.167  0.00  0.00     0.000 A 
ENDROOT
BRANCH   1  16
ATOM     16  C   UNL d   1      60.082  -3.009  28.962  0.00  0.00     0.070 A 
ATOM     17  C   UNL d   1      59.602  -3.567  28.567  0.00  0.00     0.021 A 
ATOM     18  C   UNL d   1      59.862  -4.320  28.457  0.00  0.00     0.043 A 
ATOM     19  C   UNL d   1      60.638  -4.582  28.739  0.00  0.00     0.196 A 
ATOM     20  C   UNL d   1      61.123  -4.038  29.132  0.00  0.00     0.043 A 
ATOM     21  O   UNL d   1      60.960  -5.377  28.644  0.00  0.00    -0.287 OA
ATOM     22  C   UNL d   1      60.836  -3.249  29.240  0.00  0.00     0.021 A 
ENDBRANCH   1  16
TORSDOF 1
ENDMDL
MODEL 6
REMARK VINA RESULT:      -1.5      9.310     10.085
REMARK  1 active torsions:
REMARK  status: ('A' for Active; 'I' for Inactive)
REMARK    1  A    between atoms: C_7  and  N_1 
ROOT
ATOM      1  N   UNL d   1      59.594  -9.419  32.946  0.00  0.00    -0.242 N 
ATOM      2  C   UNL d   1      58.848  -9.472  32.666  0.00  0.00     0.267 A 
ATOM      3  C   UNL d   1      60.287  -9.475  32.459  0.00  0.00     0.267 A 
ATOM      4  C   UNL d   1      58.752  -9.589  31.848  0.00  0.00     0.057 A 
ATOM      5  C   UNL d   1      60.143  -9.590  31.661  0.00  0.00     0.057 A 
ATOM      6  C   UNL d   1      59.374  -9.645  31.373  0.00  0.00     0.009 A 
ATOM      7  O   UNL d   1      61.055  -9.420  32.746  0.00  0.00    -0.267 OA
ATOM      8  O   UNL d   1      58.192  -9.413  33.163  0.00  0.00    -0.267 OA
ATOM      9  C   UNL d   1      59.272  -9.763  30.553  0.00  0.00     0.000 A 
ATOM     10  C   UNL d   1      60.799  -9.649  31.163  0.00  0.00     0.005 A 
ATOM     11  C   UNL d   1      57.970  -9.644  31.557  0.00  0.00     0.005 A 
ATOM     12  C   UNL d   1      60.695  -9.763  30.369  0.00  0.00     0.000 A 
ATOM     13  C   UNL d   1      57.834  -9.759  30.760  0.00  0.00     0.000 A 
ATOM     14  C   UNL d   1      59.926  -9.817  30.082  0.00  0.00     0.000 A 
ATOM     15  C   UNL d   1      58.524  -9.817  30.260  0.00  0.00     0.000 A 
ENDROOT
BRANCH   1  16
ATOM     16  C   UNL d   1      59.690  -9.301  33.763  0.00  0.00     0.070 A 
ATOM     17  C   UNL d   1      59.341  -9.817  34.319  0.00  0.00     0.021 A 
ATOM     18  C   UNL d   1      59.440  -9.694  35.107  0.00  0.00     0.043 A 
ATOM     19  C   UNL d   1      59.908  -9.030  35.410  0.00  0.00     0.196 A 
ATOM     20  C   UNL d   1      60.259  -8.511  34.869  0.00  0.00     0.043 A 
ATOM     21  O   UNL d   1      60.043  -8.856  36.245  0.00  0.00    -0.287 OA
ATOM     22  C   UNL d   1      60.145  -8.654  34.043  0.00  0.00     0.021 A 
ENDBRANCH   1  16
TORSDOF 1
ENDMDL
