MODEL 1
REMARK VINA RESULT:      88.3      0.000      0.000
REMARK  7 active torsions:
REMARK  status: ('A' for Active; 'I' for Inactive)
REMARK    1  A    between atoms: N_6  and  C_1 
REMARK    2  A    between atoms: C_10  and  C_2 
REMARK       I    between atoms: C_8  and  N_6 
REMARK       I    between atoms: C_9  and  N_7 
REMARK    3  A    between atoms: C_12  and  C_8 
REMARK    4  A    between atoms: O_22  and  C_9 
REMARK    5  A    between atoms: O_23  and  C_10 
REMARK    6  A    between atoms: C_24  and  O_22 
REMARK    7  A    between atoms: C_25  and  O_23 
ROOT
ATOM      1  C   UNL d   1      59.426  48.260  50.701  0.00  0.00     0.119 A 
ATOM      2  C   UNL d   1      60.199  48.527  50.589  0.00  0.00     0.088 A 
ATOM      3  C   UNL d   1      60.192  47.206  50.431  0.00  0.00     0.049 A 
ATOM      4  C   UNL d   1      60.669  47.863  50.421  0.00  0.00     0.016 A 
ATOM      5  S   UNL d   1      59.422  47.435  50.602  0.00  0.00    -0.066 SA
ATOM      6  N   UNL d   1      61.323  46.382  50.120  0.00  0.00    -0.251 N 
ATOM      7  C   UNL d   1      61.653  45.640  49.969  0.00  0.00     0.378 C 
ATOM      8  C   UNL d   1      60.522  46.448  50.277  0.00  0.00     0.091 A 
ATOM      9  C   UNL d   1      61.485  47.802  50.262  0.00  0.00     0.020 A 
ATOM     10  C   UNL d   1      61.801  47.054  50.112  0.00  0.00     0.085 A 
ATOM     11  O   UNL d   1      61.175  44.968  49.977  0.00  0.00    -0.237 OA
ENDROOT
BRANCH   1  12
ATOM     12  N   UNL d   1      58.764  48.733  50.881  0.00  0.00    -0.201 NA
ATOM     13  C   UNL d   1      58.021  48.504  50.625  0.00  0.00     0.286 C 
ATOM     14  O   UNL d   1      57.916  47.810  50.190  0.00  0.00    -0.265 OA
BRANCH  13  15
ATOM     15  C   UNL d   1      57.366  48.972  50.804  0.00  0.00     0.087 A 
ATOM     16  S   UNL d   1      57.154  49.263  51.548  0.00  0.00    -0.082 SA
ATOM     17  C   UNL d   1      56.457  49.706  51.466  0.00  0.00     0.036 A 
ATOM     18  C   UNL d   1      56.251  49.682  50.681  0.00  0.00     0.008 A 
ATOM     19  C   UNL d   1      56.800  49.236  50.267  0.00  0.00     0.012 A 
ENDBRANCH  13  15
ENDBRANCH   1  12
BRANCH   2  20
ATOM     20  C   UNL d   1      60.448  49.312  50.638  0.00  0.00     0.302 C 
ATOM     21  O   UNL d   1      60.629  49.708  49.935  0.00  0.00    -0.259 OA
BRANCH  20  22
ATOM     22  O   UNL d   1      60.513  49.687  51.380  0.00  0.00    -0.271 OA
BRANCH  22  23
ATOM     23  C   UNL d   1      60.865  49.292  52.010  0.00  0.00     0.126 C 
ATOM     24  C   UNL d   1      61.359  49.701  52.536  0.00  0.00     0.029 C 
ENDBRANCH  22  23
ENDBRANCH  20  22
ENDBRANCH   2  20
BRANCH   7  25
ATOM     25  O   UNL d   1      62.457  45.571  49.811  0.00  0.00    -0.257 OA
BRANCH  25  26
ATOM     26  C   UNL d   1      62.786  44.840  49.618  0.00  0.00     0.128 C 
ATOM     27  C   UNL d   1      62.324  44.240  49.289  0.00  0.00     0.029 C 
ENDBRANCH  25  26
ENDBRANCH   7  25
TORSDOF 7
ENDMDL
