MODEL 1
REMARK VINA RESULT:      -7.8      0.000      0.000
REMARK  1 active torsions:
REMARK  status: ('A' for Active; 'I' for Inactive)
REMARK    1  A    between atoms: C_9  and  C_2 
ROOT
ATOM      1  N   UNL d   1     -46.601  12.333  23.448  0.00  0.00    -0.204 NA
ATOM      2  C   UNL d   1     -47.419  12.425  23.366  0.00  0.00     0.107 A 
ATOM      3  C   UNL d   1     -46.283  11.582  23.614  0.00  0.00     0.304 A 
ATOM      4  C   UNL d   1     -48.555  13.260  23.119  0.00  0.00     0.020 A 
ATOM      5  O   UNL d   1     -47.606  11.021  23.616  0.00  0.00    -0.299 OA
ATOM      6  C   UNL d   1     -47.731  13.162  23.203  0.00  0.00     0.023 A 
ATOM      7  C   UNL d   1     -47.924  11.773  23.449  0.00  0.00     0.118 A 
ATOM      8  O   UNL d   1     -45.469  11.487  23.696  0.00  0.00    -0.263 OA
ATOM      9  C   UNL d   1     -49.054  12.611  23.202  0.00  0.00     0.004 A 
ATOM     10  C   UNL d   1     -46.785  10.929  23.698  0.00  0.00     0.185 A 
ATOM     11  C   UNL d   1     -48.740  11.870  23.367  0.00  0.00     0.026 A 
ENDROOT
BRANCH   4  12
ATOM     12  C   UNL d   1     -48.863  14.008  22.954  0.00  0.00     0.090 A 
ATOM     13  N   UNL d   1     -49.247  14.491  23.500  0.00  0.00    -0.219 NA
ATOM     14  C   UNL d   1     -49.464  15.186  23.104  0.00  0.00     0.215 A 
ATOM     15  S   UNL d   1     -49.214  15.125  22.321  0.00  0.00    -0.045 SA
ATOM     16  N   UNL d   1     -49.865  15.830  23.439  0.00  0.00    -0.120 N 
ATOM     17  C   UNL d   1     -48.840  14.393  22.229  0.00  0.00     0.058 A 
ENDBRANCH   4  12
TORSDOF 1
ENDMDL
MODEL 2
REMARK VINA RESULT:      -7.5      1.530      1.943
REMARK  1 active torsions:
REMARK  status: ('A' for Active; 'I' for Inactive)
REMARK    1  A    between atoms: C_9  and  C_2 
ROOT
ATOM      1  N   UNL d   1     -46.648  13.309  22.582  0.00  0.00    -0.204 NA
ATOM      2  C   UNL d   1     -47.140  12.759  22.954  0.00  0.00     0.107 A 
ATOM      3  C   UNL d   1     -45.823  13.193  22.578  0.00  0.00     0.304 A 
ATOM      4  C   UNL d   1     -48.449  12.321  23.332  0.00  0.00     0.020 A 
ATOM      5  O   UNL d   1     -45.992  11.973  23.320  0.00  0.00    -0.299 OA
ATOM      6  C   UNL d   1     -47.949  12.873  22.958  0.00  0.00     0.023 A 
ATOM      7  C   UNL d   1     -46.816  12.090  23.324  0.00  0.00     0.118 A 
ATOM      8  O   UNL d   1     -45.330  13.739  22.209  0.00  0.00    -0.263 OA
ATOM      9  C   UNL d   1     -48.125  11.658  23.698  0.00  0.00     0.004 A 
ATOM     10  C   UNL d   1     -45.498  12.527  22.946  0.00  0.00     0.185 A 
ATOM     11  C   UNL d   1     -47.312  11.543  23.694  0.00  0.00     0.026 A 
ENDROOT
BRANCH   4  12
ATOM     12  C   UNL d   1     -49.265  12.443  23.332  0.00  0.00     0.090 A 
ATOM     13  N   UNL d   1     -49.640  13.127  23.600  0.00  0.00    -0.219 NA
ATOM     14  C   UNL d   1     -50.455  13.016  23.500  0.00  0.00     0.215 A 
ATOM     15  S   UNL d   1     -50.575  12.269  23.173  0.00  0.00    -0.045 SA
ATOM     16  N   UNL d   1     -51.047  13.563  23.696  0.00  0.00    -0.120 N 
ATOM     17  C   UNL d   1     -49.835  11.914  23.069  0.00  0.00     0.058 A 
ENDBRANCH   4  12
TORSDOF 1
ENDMDL
MODEL 3
REMARK VINA RESULT:      -7.4      2.182      4.020
REMARK  1 active torsions:
REMARK  status: ('A' for Active; 'I' for Inactive)
REMARK    1  A    between atoms: C_9  and  C_2 
ROOT
ATOM      1  N   UNL d   1     -48.946  13.847  22.839  0.00  0.00    -0.204 NA
ATOM      2  C   UNL d   1     -48.129  13.751  22.924  0.00  0.00     0.107 A 
ATOM      3  C   UNL d   1     -49.259  14.597  22.658  0.00  0.00     0.304 A 
ATOM      4  C   UNL d   1     -47.000  12.913  23.189  0.00  0.00     0.020 A 
ATOM      5  O   UNL d   1     -47.932  15.149  22.650  0.00  0.00    -0.299 OA
ATOM      6  C   UNL d   1     -47.822  13.015  23.102  0.00  0.00     0.023 A 
ATOM      7  C   UNL d   1     -47.619  14.398  22.831  0.00  0.00     0.118 A 
ATOM      8  O   UNL d   1     -50.072  14.696  22.572  0.00  0.00    -0.263 OA
ATOM      9  C   UNL d   1     -46.496  13.557  23.096  0.00  0.00     0.004 A 
ATOM     10  C   UNL d   1     -48.752  15.245  22.564  0.00  0.00     0.185 A 
ATOM     11  C   UNL d   1     -46.804  14.297  22.918  0.00  0.00     0.026 A 
ENDROOT
BRANCH   4  12
ATOM     12  C   UNL d   1     -46.697  12.166  23.368  0.00  0.00     0.090 A 
ATOM     13  N   UNL d   1     -45.896  11.972  23.381  0.00  0.00    -0.219 NA
ATOM     14  C   UNL d   1     -45.840  11.171  23.586  0.00  0.00     0.215 A 
ATOM     15  S   UNL d   1     -46.603  10.880  23.697  0.00  0.00    -0.045 SA
ATOM     16  N   UNL d   1     -45.136  10.739  23.665  0.00  0.00    -0.120 N 
ATOM     17  C   UNL d   1     -47.134  11.499  23.561  0.00  0.00     0.058 A 
ENDBRANCH   4  12
TORSDOF 1
ENDMDL
MODEL 4
REMARK VINA RESULT:      -7.3      1.943      3.251
REMARK  1 active torsions:
REMARK  status: ('A' for Active; 'I' for Inactive)
REMARK    1  A    between atoms: C_9  and  C_2 
ROOT
ATOM      1  N   UNL d   1     -49.634  12.819  22.679  0.00  0.00    -0.204 NA
ATOM      2  C   UNL d   1     -48.907  12.533  22.949  0.00  0.00     0.107 A 
ATOM      3  C   UNL d   1     -50.338  12.427  22.889  0.00  0.00     0.304 A 
ATOM      4  C   UNL d   1     -47.480  12.632  23.013  0.00  0.00     0.020 A 
ATOM      5  O   UNL d   1     -49.579  11.464  23.638  0.00  0.00    -0.299 OA
ATOM      6  C   UNL d   1     -48.216  12.917  22.744  0.00  0.00     0.023 A 
ATOM      7  C   UNL d   1     -48.875  11.856  23.428  0.00  0.00     0.118 A 
ATOM      8  O   UNL d   1     -51.064  12.710  22.621  0.00  0.00    -0.263 OA
ATOM      9  C   UNL d   1     -47.452  11.961  23.489  0.00  0.00     0.004 A 
ATOM     10  C   UNL d   1     -50.309  11.752  23.366  0.00  0.00     0.185 A 
ATOM     11  C   UNL d   1     -48.146  11.574  23.695  0.00  0.00     0.026 A 
ENDROOT
BRANCH   4  12
ATOM     12  C   UNL d   1     -46.787  13.026  22.802  0.00  0.00     0.090 A 
ATOM     13  N   UNL d   1     -46.173  12.697  22.361  0.00  0.00    -0.219 NA
ATOM     14  C   UNL d   1     -45.590  13.280  22.277  0.00  0.00     0.215 A 
ATOM     15  S   UNL d   1     -45.848  13.960  22.665  0.00  0.00    -0.045 SA
ATOM     16  N   UNL d   1     -44.871  13.192  21.873  0.00  0.00    -0.120 N 
ATOM     17  C   UNL d   1     -46.592  13.801  22.990  0.00  0.00     0.058 A 
ENDBRANCH   4  12
TORSDOF 1
ENDMDL
MODEL 5
REMARK VINA RESULT:      -7.3      2.354      3.881
REMARK  1 active torsions:
REMARK  status: ('A' for Active; 'I' for Inactive)
REMARK    1  A    between atoms: C_9  and  C_2 
ROOT
ATOM      1  N   UNL d   1     -49.899  14.713  22.671  0.00  0.00    -0.204 NA
ATOM      2  C   UNL d   1     -49.509  14.059  22.349  0.00  0.00     0.107 A 
ATOM      3  C   UNL d   1     -50.673  14.897  22.423  0.00  0.00     0.304 A 
ATOM      4  C   UNL d   1     -48.352  13.219  22.271  0.00  0.00     0.020 A 
ATOM      5  O   UNL d   1     -50.657  13.769  21.532  0.00  0.00    -0.299 OA
ATOM      6  C   UNL d   1     -48.750  13.878  22.592  0.00  0.00     0.023 A 
ATOM      7  C   UNL d   1     -49.883  13.585  21.780  0.00  0.00     0.118 A 
ATOM      8  O   UNL d   1     -51.064  15.548  22.741  0.00  0.00    -0.263 OA
ATOM      9  C   UNL d   1     -48.726  12.751  21.707  0.00  0.00     0.004 A 
ATOM     10  C   UNL d   1     -51.048  14.426  21.856  0.00  0.00     0.185 A 
ATOM     11  C   UNL d   1     -49.489  12.933  21.462  0.00  0.00     0.026 A 
ENDROOT
BRANCH   4  12
ATOM     12  C   UNL d   1     -47.586  13.043  22.521  0.00  0.00     0.090 A 
ATOM     13  N   UNL d   1     -46.896  13.328  22.171  0.00  0.00    -0.219 NA
ATOM     14  C   UNL d   1     -46.257  13.015  22.594  0.00  0.00     0.215 A 
ATOM     15  S   UNL d   1     -46.555  12.542  23.199  0.00  0.00    -0.045 SA
ATOM     16  N   UNL d   1     -45.455  13.156  22.435  0.00  0.00    -0.120 N 
ATOM     17  C   UNL d   1     -47.381  12.560  23.153  0.00  0.00     0.058 A 
ENDBRANCH   4  12
TORSDOF 1
ENDMDL
MODEL 6
REMARK VINA RESULT:      -4.8      2.287      3.765
REMARK  1 active torsions:
REMARK  status: ('A' for Active; 'I' for Inactive)
REMARK    1  A    between atoms: C_9  and  C_2 
ROOT
ATOM      1  N   UNL d   1     -48.949  13.943  21.631  0.00  0.00    -0.204 NA
ATOM      2  C   UNL d   1     -48.481  13.687  22.263  0.00  0.00     0.107 A 
ATOM      3  C   UNL d   1     -49.740  14.166  21.765  0.00  0.00     0.304 A 
ATOM      4  C   UNL d   1     -47.229  13.209  22.765  0.00  0.00     0.020 A 
ATOM      5  O   UNL d   1     -49.587  13.873  23.163  0.00  0.00    -0.299 OA
ATOM      6  C   UNL d   1     -47.705  13.468  22.132  0.00  0.00     0.023 A 
ATOM      7  C   UNL d   1     -48.795  13.650  23.030  0.00  0.00     0.118 A 
ATOM      8  O   UNL d   1     -50.209  14.422  21.138  0.00  0.00    -0.263 OA
ATOM      9  C   UNL d   1     -47.544  13.174  23.525  0.00  0.00     0.004 A 
ATOM     10  C   UNL d   1     -50.056  14.131  22.529  0.00  0.00     0.185 A 
ATOM     11  C   UNL d   1     -48.324  13.394  23.657  0.00  0.00     0.026 A 
ENDROOT
BRANCH   4  12
ATOM     12  C   UNL d   1     -46.446  12.990  22.625  0.00  0.00     0.090 A 
ATOM     13  N   UNL d   1     -45.886  13.458  22.241  0.00  0.00    -0.219 NA
ATOM     14  C   UNL d   1     -45.178  13.028  22.220  0.00  0.00     0.215 A 
ATOM     15  S   UNL d   1     -45.307  12.302  22.589  0.00  0.00    -0.045 SA
ATOM     16  N   UNL d   1     -44.464  13.285  21.885  0.00  0.00    -0.120 N 
ATOM     17  C   UNL d   1     -46.094  12.280  22.841  0.00  0.00     0.058 A 
ENDBRANCH   4  12
TORSDOF 1
ENDMDL
