MODEL 1
REMARK VINA RESULT:      35.7      0.000      0.000
REMARK  7 active torsions:
REMARK  status: ('A' for Active; 'I' for Inactive)
REMARK    1  A    between atoms: C_11  and  N_3 
REMARK    2  A    between atoms: C_10  and  C_4 
REMARK    3  A    between atoms: C_16  and  C_11 
REMARK    4  A    between atoms: N_13  and  C_17 
REMARK    5  A    between atoms: C_26  and  N_14 
REMARK    6  A    between atoms: C_17  and  C_16 
REMARK    7  A    between atoms: C_28  and  C_26 
ROOT
ATOM      1  C   UNL d   1      45.738 -18.317  42.355  0.00  0.00     0.137 A 
ATOM      2  N   UNL d   1      46.084 -19.063  42.494  0.00  0.00    -0.259 N 
ATOM      3  N   UNL d   1      45.587 -17.980  43.092  0.00  0.00    -0.287 N 
ATOM      4  C   UNL d   1      45.613 -18.059  41.587  0.00  0.00     0.054 A 
ATOM      5  C   UNL d   1      46.301 -19.540  41.853  0.00  0.00     0.266 A 
ATOM      6  C   UNL d   1      46.143 -19.177  43.309  0.00  0.00     0.084 A 
ATOM      7  C   UNL d   1      45.831 -18.498  43.684  0.00  0.00     0.082 A 
ATOM      8  C   UNL d   1      45.828 -18.533  40.947  0.00  0.00     0.009 A 
ATOM      9  C   UNL d   1      46.174 -19.277  41.074  0.00  0.00     0.061 A 
ATOM     10  O   UNL d   1      46.646 -20.283  41.984  0.00  0.00    -0.267 OA
ATOM     11  C   UNL d   1      46.432 -19.795  43.767  0.00  0.00     0.019 A 
ATOM     12  C   UNL d   1      45.702 -18.271  40.172  0.00  0.00     0.000 C 
ATOM     13  C   UNL d   1      45.821 -18.465  44.501  0.00  0.00     0.019 A 
ATOM     14  C   UNL d   1      46.415 -19.746  44.583  0.00  0.00     0.002 A 
ATOM     15  C   UNL d   1      46.106 -19.073  44.954  0.00  0.00     0.002 A 
ENDROOT
BRANCH   3  16
ATOM     16  C   UNL d   1      45.281 -17.315  43.469  0.00  0.00     0.125 C 
BRANCH  16  17
ATOM     17  C   UNL d   1      45.787 -16.707  43.703  0.00  0.00     0.231 C 
ATOM     18  O   UNL d   1      46.425 -16.491  43.230  0.00  0.00    -0.283 OA
BRANCH  17  19
ATOM     19  C   UNL d   1      45.655 -16.313  44.413  0.00  0.00     0.124 C 
BRANCH  19  20
ATOM     20  N   UNL d   1      45.542 -15.498  44.419  0.00  0.00    -0.297 N 
ATOM     21  C   UNL d   1      45.951 -15.091  43.822  0.00  0.00     0.100 A 
ATOM     22  C   UNL d   1      45.887 -14.268  43.763  0.00  0.00     0.100 A 
ATOM     23  N   UNL d   1      45.417 -13.847  44.297  0.00  0.00    -0.297 N 
ATOM     24  C   UNL d   1      45.010 -14.252  44.892  0.00  0.00     0.100 A 
ATOM     25  C   UNL d   1      45.074 -15.075  44.950  0.00  0.00     0.100 A 
BRANCH  23  26
ATOM     26  C   UNL d   1      45.355 -13.021  44.236  0.00  0.00     0.126 C 
BRANCH  26  27
ATOM     27  C   UNL d   1      45.163 -12.669  43.515  0.00  0.00     0.253 C 
ATOM     28  O   UNL d   1      45.718 -12.633  42.920  0.00  0.00    -0.281 OA
ENDBRANCH  26  27
ENDBRANCH  23  26
ENDBRANCH  19  20
ENDBRANCH  17  19
ENDBRANCH  16  17
ENDBRANCH   3  16
BRANCH   4  29
ATOM     29  C   UNL d   1      45.273 -17.326  41.450  0.00  0.00     0.125 C 
ATOM     30  N   UNL d   1      44.798 -17.191  40.793  0.00  0.00    -0.146 N 
ENDBRANCH   4  29
TORSDOF 7
ENDMDL
