MODEL 1
REMARK VINA RESULT:      12.9      0.000      0.000
REMARK  4 active torsions:
REMARK  status: ('A' for Active; 'I' for Inactive)
REMARK    1  A    between atoms: C_6  and  C_1 
REMARK    2  A    between atoms: C_10  and  C_2 
REMARK       I    between atoms: N_14  and  C_6 
REMARK    3  A    between atoms: C_8  and  C_15 
REMARK    4  A    between atoms: C_21  and  N_14 
ROOT
ATOM      1  C   UNL d   1     -42.425-122.585 -49.845  0.00  0.00     0.283 C 
ATOM      2  N   UNL d   1     -41.798-122.892 -50.283  0.00  0.00    -0.208 NA
ATOM      3  O   UNL d   1     -43.023-122.150 -50.214  0.00  0.00    -0.265 OA
ENDROOT
BRANCH   2   4
ATOM      4  C   UNL d   1     -41.771-122.760 -51.097  0.00  0.00     0.085 A 
ATOM      5  C   UNL d   1     -41.849-123.385 -51.629  0.00  0.00     0.019 A 
ATOM      6  C   UNL d   1     -41.822-123.249 -52.444  0.00  0.00     0.003 A 
ATOM      7  C   UNL d   1     -41.717-122.481 -52.724  0.00  0.00     0.020 A 
ATOM      8  C   UNL d   1     -41.637-121.847 -52.202  0.00  0.00     0.003 A 
ATOM      9  C   UNL d   1     -41.663-121.978 -51.388  0.00  0.00     0.019 A 
BRANCH   7  10
ATOM     10  C   UNL d   1     -41.689-122.342 -53.537  0.00  0.00     0.118 A 
ATOM     11  N   UNL d   1     -42.021-121.699 -53.930  0.00  0.00    -0.059 NA
ATOM     12  C   UNL d   1     -41.860-121.786 -54.732  0.00  0.00     0.735 A 
ATOM     13  N   UNL d   1     -42.056-121.311 -55.379  0.00  0.00    -0.059 NA
ATOM     14  N   UNL d   1     -41.434-122.471 -54.836  0.00  0.00    -0.136 N 
ATOM     15  C   UNL d   1     -41.816-121.539 -56.132  0.00  0.00     0.119 A 
ATOM     16  C   UNL d   1     -41.384-122.234 -56.241  0.00  0.00     0.041 A 
ATOM     17  C   UNL d   1     -41.192-122.701 -55.597  0.00  0.00     0.100 A 
ATOM     18  C   UNL d   1     -41.327-122.817 -54.097  0.00  0.00     0.118 A 
ENDBRANCH   7  10
ENDBRANCH   2   4
BRANCH   1  19
ATOM     19  C   UNL d   1     -42.462-122.711 -49.030  0.00  0.00     0.102 A 
ATOM     20  C   UNL d   1     -43.099-123.021 -48.616  0.00  0.00     0.116 A 
ATOM     21  N   UNL d   1     -42.890-123.047 -47.813  0.00  0.00    -0.126 NA
ATOM     22  O   UNL d   1     -42.123-122.751 -47.746  0.00  0.00    -0.211 OA
ATOM     23  C   UNL d   1     -41.855-122.542 -48.495  0.00  0.00     0.131 A 
ATOM     24  C   UNL d   1     -41.123-122.225 -48.684  0.00  0.00     0.029 C 
BRANCH  20  25
ATOM     25  C   UNL d   1     -43.810-123.261 -48.926  0.00  0.00     0.031 A 
ATOM     26  C   UNL d   1     -44.386-123.575 -48.438  0.00  0.00     0.059 A 
ATOM     27 CL   UNL d   1     -44.253-123.650 -47.634  0.00  0.00    -0.082 Cl
ATOM     28  C   UNL d   1     -45.107-123.817 -48.762  0.00  0.00     0.011 A 
ATOM     29  C   UNL d   1     -45.241-123.742 -49.567  0.00  0.00     0.001 A 
ATOM     30  C   UNL d   1     -44.664-123.427 -50.062  0.00  0.00     0.000 A 
ATOM     31  C   UNL d   1     -43.943-123.185 -49.739  0.00  0.00     0.002 A 
ENDBRANCH  20  25
ENDBRANCH   1  19
TORSDOF 4
ENDMDL
