MODEL 1
REMARK VINA RESULT:       4.8      0.000      0.000
REMARK  3 active torsions:
REMARK  status: ('A' for Active; 'I' for Inactive)
REMARK    1  A    between atoms: N_5  and  C_1 
REMARK    2  A    between atoms: C_9  and  C_2 
REMARK       I    between atoms: C_8  and  N_5 
REMARK    3  A    between atoms: C_10  and  C_8 
ROOT
ATOM      1  C   UNL d   1     -41.297-122.032 -52.287  0.00  0.00     0.155 A 
ATOM      2  C   UNL d   1     -41.230-121.390 -51.773  0.00  0.00     0.080 A 
ATOM      3  N   UNL d   1     -41.335-122.802 -51.980  0.00  0.00    -0.289 N 
ATOM      4  C   UNL d   1     -41.199-121.518 -50.953  0.00  0.00     0.200 A 
ATOM      5  C   UNL d   1     -41.236-122.285 -50.653  0.00  0.00     0.055 A 
ATOM      6  C   UNL d   1     -41.304-122.927 -51.167  0.00  0.00     0.069 A 
ATOM      7  O   UNL d   1     -41.131-120.873 -50.437  0.00  0.00    -0.286 OA
ATOM      8  C   UNL d   1     -41.402-123.445 -52.494  0.00  0.00     0.101 C 
ATOM      9  C   UNL d   1     -41.206-122.408 -49.840  0.00  0.00     0.005 A 
ATOM     10  C   UNL d   1     -41.341-123.687 -50.873  0.00  0.00     0.018 A 
ATOM     11  C   UNL d   1     -41.243-123.175 -49.540  0.00  0.00     0.000 A 
ATOM     12  C   UNL d   1     -41.311-123.817 -50.054  0.00  0.00     0.002 A 
ENDROOT
BRANCH   1  13
ATOM     13  N   UNL d   1     -41.328-121.906 -53.114  0.00  0.00    -0.190 NA
ATOM     14  C   UNL d   1     -41.864-122.322 -53.593  0.00  0.00     0.286 C 
ATOM     15  O   UNL d   1     -42.369-122.864 -53.240  0.00  0.00    -0.265 OA
BRANCH  14  16
ATOM     16  C   UNL d   1     -41.893-122.198 -54.407  0.00  0.00     0.087 A 
ATOM     17  S   UNL d   1     -42.612-122.022 -54.772  0.00  0.00    -0.082 SA
ATOM     18  C   UNL d   1     -42.466-121.929 -55.579  0.00  0.00     0.036 A 
ATOM     19  C   UNL d   1     -41.661-122.046 -55.717  0.00  0.00     0.008 A 
ATOM     20  C   UNL d   1     -41.301-122.214 -54.988  0.00  0.00     0.012 A 
ENDBRANCH  14  16
ENDBRANCH   1  13
BRANCH   2  21
ATOM     21  C   UNL d   1     -41.192-120.624 -52.073  0.00  0.00     0.035 A 
ATOM     22  S   UNL d   1     -41.189-119.930 -51.624  0.00  0.00    -0.086 SA
ATOM     23  C   UNL d   1     -41.146-119.293 -52.149  0.00  0.00     0.035 A 
ATOM     24  C   UNL d   1     -41.123-119.591 -52.924  0.00  0.00     0.007 A 
ATOM     25  C   UNL d   1     -41.152-120.413 -52.865  0.00  0.00     0.007 A 
ENDBRANCH   2  21
TORSDOF 3
ENDMDL
MODEL 2
REMARK VINA RESULT:       7.0      2.105      4.364
REMARK  3 active torsions:
REMARK  status: ('A' for Active; 'I' for Inactive)
REMARK    1  A    between atoms: N_5  and  C_1 
REMARK    2  A    between atoms: C_9  and  C_2 
REMARK       I    between atoms: C_8  and  N_5 
REMARK    3  A    between atoms: C_10  and  C_8 
ROOT
ATOM      1  C   UNL d   1     -42.394-122.991 -50.815  0.00  0.00     0.155 A 
ATOM      2  C   UNL d   1     -42.953-122.475 -51.133  0.00  0.00     0.080 A 
ATOM      3  N   UNL d   1     -41.794-123.299 -51.300  0.00  0.00    -0.289 N 
ATOM      4  C   UNL d   1     -42.913-122.267 -51.937  0.00  0.00     0.200 A 
ATOM      5  C   UNL d   1     -42.316-122.574 -52.414  0.00  0.00     0.055 A 
ATOM      6  C   UNL d   1     -41.756-123.090 -52.095  0.00  0.00     0.069 A 
ATOM      7  O   UNL d   1     -43.475-121.749 -52.257  0.00  0.00    -0.286 OA
ATOM      8  C   UNL d   1     -41.234-123.815 -50.981  0.00  0.00     0.101 C 
ATOM      9  C   UNL d   1     -42.279-122.365 -53.209  0.00  0.00     0.005 A 
ATOM     10  C   UNL d   1     -41.164-123.397 -52.565  0.00  0.00     0.018 A 
ATOM     11  C   UNL d   1     -41.682-122.673 -53.687  0.00  0.00     0.000 A 
ATOM     12  C   UNL d   1     -41.123-123.189 -53.368  0.00  0.00     0.002 A 
ENDROOT
BRANCH   1  13
ATOM     13  N   UNL d   1     -42.431-123.204 -50.006  0.00  0.00    -0.190 NA
ATOM     14  C   UNL d   1     -41.797-123.054 -49.491  0.00  0.00     0.286 C 
ATOM     15  O   UNL d   1     -41.125-122.689 -49.790  0.00  0.00    -0.265 OA
BRANCH  14  16
ATOM     16  C   UNL d   1     -41.835-123.263 -48.696  0.00  0.00     0.087 A 
ATOM     17  S   UNL d   1     -41.342-122.893 -48.148  0.00  0.00    -0.082 SA
ATOM     18  C   UNL d   1     -41.506-123.217 -47.406  0.00  0.00     0.036 A 
ATOM     19  C   UNL d   1     -42.098-123.785 -47.491  0.00  0.00     0.008 A 
ATOM     20  C   UNL d   1     -42.305-123.816 -48.294  0.00  0.00     0.012 A 
ENDBRANCH  14  16
ENDBRANCH   1  13
BRANCH   2  21
ATOM     21  C   UNL d   1     -43.550-122.168 -50.657  0.00  0.00     0.035 A 
ATOM     22  S   UNL d   1     -44.213-122.581 -50.387  0.00  0.00    -0.086 SA
ATOM     23  C   UNL d   1     -44.662-122.059 -49.929  0.00  0.00     0.035 A 
ATOM     24  C   UNL d   1     -44.278-121.323 -49.914  0.00  0.00     0.007 A 
ATOM     25  C   UNL d   1     -43.593-121.402 -50.366  0.00  0.00     0.007 A 
ENDBRANCH   2  21
TORSDOF 3
ENDMDL
