MODEL 1
REMARK VINA RESULT:      -3.2      0.000      0.000
REMARK  10 active torsions:
REMARK  status: ('A' for Active; 'I' for Inactive)
REMARK       I    between atoms: N_8  and  C_1 
REMARK    1  A    between atoms: C_11  and  C_1 
REMARK    2  A    between atoms: C_2  and  C_12 
REMARK       I    between atoms: N_7  and  C_2 
REMARK    3  A    between atoms: C_3  and  C_19 
REMARK    4  A    between atoms: C_4  and  C_20 
REMARK    5  A    between atoms: C_19  and  N_7 
REMARK    6  A    between atoms: C_20  and  N_8 
REMARK    7  A    between atoms: C_23  and  C_11 
REMARK    8  A    between atoms: C_12  and  C_22 
REMARK    9  A    between atoms: S_21  and  C_23 
REMARK   10  A    between atoms: C_22  and  S_21 
ROOT
ATOM      1  S   UNL d   1      32.853  18.721 -23.202  0.00  0.00    -0.086 SA
ENDROOT
BRANCH   1   2
ATOM      2  C   UNL d   1      32.821  17.882 -23.219  0.00  0.00     0.040 C 
BRANCH   2   3
ATOM      3  C   UNL d   1      32.177  17.500 -23.591  0.00  0.00     0.070 C 
BRANCH   3   4
ATOM      4  C   UNL d   1      32.208  16.661 -23.698  0.00  0.00     0.280 C 
ATOM      5  N   UNL d   1      31.482  16.234 -23.884  0.00  0.00    -0.204 NA
ATOM      6  O   UNL d   1      32.934  16.246 -23.625  0.00  0.00    -0.265 OA
BRANCH   5   7
ATOM      7  C   UNL d   1      30.771  16.630 -23.958  0.00  0.00     0.127 C 
BRANCH   7   8
ATOM      8  C   UNL d   1      30.070  16.221 -24.104  0.00  0.00     0.119 A 
ATOM      9  O   UNL d   1      29.480  16.196 -23.488  0.00  0.00    -0.304 OA
ATOM     10  C   UNL d   1      28.848  15.749 -23.803  0.00  0.00     0.123 A 
ATOM     11  C   UNL d   1      29.012  15.505 -24.556  0.00  0.00     0.029 A 
ATOM     12  C   UNL d   1      29.781  15.804 -24.741  0.00  0.00     0.028 A 
ENDBRANCH   7   8
ENDBRANCH   5   7
ENDBRANCH   3   4
ENDBRANCH   2   3
ENDBRANCH   1   2
BRANCH   1  13
ATOM     13  C   UNL d   1      33.003  19.095 -22.462  0.00  0.00     0.040 C 
BRANCH  13  14
ATOM     14  C   UNL d   1      33.116  19.939 -22.432  0.00  0.00     0.070 C 
BRANCH  14  15
ATOM     15  C   UNL d   1      33.043  20.323 -21.709  0.00  0.00     0.280 C 
ATOM     16  N   UNL d   1      32.751  21.138 -21.697  0.00  0.00    -0.204 NA
ATOM     17  O   UNL d   1      33.241  19.955 -20.984  0.00  0.00    -0.265 OA
BRANCH  16  18
ATOM     18  C   UNL d   1      32.684  21.503 -20.980  0.00  0.00     0.127 C 
BRANCH  18  19
ATOM     19  C   UNL d   1      32.444  22.306 -20.919  0.00  0.00     0.119 A 
ATOM     20  O   UNL d   1      31.740  22.629 -21.207  0.00  0.00    -0.304 OA
ATOM     21  C   UNL d   1      31.751  23.467 -21.009  0.00  0.00     0.123 A 
ATOM     22  C   UNL d   1      32.442  23.592 -20.626  0.00  0.00     0.029 A 
ATOM     23  C   UNL d   1      32.856  22.916 -20.568  0.00  0.00     0.028 A 
ENDBRANCH  18  19
ENDBRANCH  16  18
ENDBRANCH  14  15
ENDBRANCH  13  14
ENDBRANCH   1  13
TORSDOF 10
ENDMDL
MODEL 2
REMARK VINA RESULT:      -2.9      0.630      6.313
REMARK  10 active torsions:
REMARK  status: ('A' for Active; 'I' for Inactive)
REMARK       I    between atoms: N_8  and  C_1 
REMARK    1  A    between atoms: C_11  and  C_1 
REMARK    2  A    between atoms: C_2  and  C_12 
REMARK       I    between atoms: N_7  and  C_2 
REMARK    3  A    between atoms: C_3  and  C_19 
REMARK    4  A    between atoms: C_4  and  C_20 
REMARK    5  A    between atoms: C_19  and  N_7 
REMARK    6  A    between atoms: C_20  and  N_8 
REMARK    7  A    between atoms: C_23  and  C_11 
REMARK    8  A    between atoms: C_12  and  C_22 
REMARK    9  A    between atoms: S_21  and  C_23 
REMARK   10  A    between atoms: C_22  and  S_21 
ROOT
ATOM      1  S   UNL d   1      32.868  19.198 -22.926  0.00  0.00    -0.086 SA
ENDROOT
BRANCH   1   2
ATOM      2  C   UNL d   1      33.058  19.407 -22.136  0.00  0.00     0.040 C 
BRANCH   2   3
ATOM      3  C   UNL d   1      32.948  20.195 -21.878  0.00  0.00     0.070 C 
BRANCH   3   4
ATOM      4  C   UNL d   1      32.992  20.362 -21.050  0.00  0.00     0.280 C 
ATOM      5  N   UNL d   1      32.779  21.150 -20.769  0.00  0.00    -0.204 NA
ATOM      6  O   UNL d   1      33.239  19.773 -20.506  0.00  0.00    -0.265 OA
BRANCH   5   7
ATOM      7  C   UNL d   1      32.537  21.730 -21.292  0.00  0.00     0.127 C 
BRANCH   7   8
ATOM      8  C   UNL d   1      32.341  22.486 -21.028  0.00  0.00     0.119 A 
ATOM      9  O   UNL d   1      31.809  22.956 -21.502  0.00  0.00    -0.304 OA
ATOM     10  C   UNL d   1      31.724  23.678 -21.091  0.00  0.00     0.123 A 
ATOM     11  C   UNL d   1      32.161  23.679 -20.411  0.00  0.00     0.029 A 
ATOM     12  C   UNL d   1      32.547  22.928 -20.375  0.00  0.00     0.028 A 
ENDBRANCH   7   8
ENDBRANCH   5   7
ENDBRANCH   3   4
ENDBRANCH   2   3
ENDBRANCH   1   2
BRANCH   1  13
ATOM     13  C   UNL d   1      32.621  18.405 -23.075  0.00  0.00     0.040 C 
BRANCH  13  14
ATOM     14  C   UNL d   1      32.465  18.156 -23.875  0.00  0.00     0.070 C 
BRANCH  14  15
ATOM     15  C   UNL d   1      32.130  17.417 -24.001  0.00  0.00     0.280 C 
ATOM     16  N   UNL d   1      31.276  17.363 -24.137  0.00  0.00    -0.204 NA
ATOM     17  O   UNL d   1      32.583  16.713 -24.003  0.00  0.00    -0.265 OA
BRANCH  16  18
ATOM     18  C   UNL d   1      30.960  16.631 -24.259  0.00  0.00     0.127 C 
BRANCH  18  19
ATOM     19  C   UNL d   1      30.143  16.531 -24.428  0.00  0.00     0.119 A 
ATOM     20  O   UNL d   1      29.528  17.021 -24.178  0.00  0.00    -0.304 OA
ATOM     21  C   UNL d   1      28.798  16.687 -24.492  0.00  0.00     0.123 A 
ATOM     22  C   UNL d   1      29.015  16.035 -24.900  0.00  0.00     0.029 A 
ATOM     23  C   UNL d   1      29.803  15.934 -24.869  0.00  0.00     0.028 A 
ENDBRANCH  18  19
ENDBRANCH  16  18
ENDBRANCH  14  15
ENDBRANCH  13  14
ENDBRANCH   1  13
TORSDOF 10
ENDMDL
MODEL 3
REMARK VINA RESULT:      -1.9      1.554      2.210
REMARK  10 active torsions:
REMARK  status: ('A' for Active; 'I' for Inactive)
REMARK       I    between atoms: N_8  and  C_1 
REMARK    1  A    between atoms: C_11  and  C_1 
REMARK    2  A    between atoms: C_2  and  C_12 
REMARK       I    between atoms: N_7  and  C_2 
REMARK    3  A    between atoms: C_3  and  C_19 
REMARK    4  A    between atoms: C_4  and  C_20 
REMARK    5  A    between atoms: C_19  and  N_7 
REMARK    6  A    between atoms: C_20  and  N_8 
REMARK    7  A    between atoms: C_23  and  C_11 
REMARK    8  A    between atoms: C_12  and  C_22 
REMARK    9  A    between atoms: S_21  and  C_23 
REMARK   10  A    between atoms: C_22  and  S_21 
ROOT
ATOM      1  S   UNL d   1      32.767  19.933 -21.997  0.00  0.00    -0.086 SA
ENDROOT
BRANCH   1   2
ATOM      2  C   UNL d   1      33.236  19.575 -22.594  0.00  0.00     0.040 C 
BRANCH   2   3
ATOM      3  C   UNL d   1      32.999  18.843 -22.923  0.00  0.00     0.070 C 
BRANCH   3   4
ATOM      4  C   UNL d   1      32.920  18.782 -23.763  0.00  0.00     0.280 C 
ATOM      5  N   UNL d   1      32.534  18.087 -24.099  0.00  0.00    -0.204 NA
ATOM      6  O   UNL d   1      33.210  19.387 -24.267  0.00  0.00    -0.265 OA
BRANCH   5   7
ATOM      7  C   UNL d   1      32.249  17.492 -23.616  0.00  0.00     0.127 C 
BRANCH   7   8
ATOM      8  C   UNL d   1      31.791  16.879 -23.922  0.00  0.00     0.119 A 
ATOM      9  O   UNL d   1      31.916  16.091 -23.620  0.00  0.00    -0.304 OA
ATOM     10  C   UNL d   1      31.377  15.606 -24.034  0.00  0.00     0.123 A 
ATOM     11  C   UNL d   1      30.940  16.038 -24.559  0.00  0.00     0.029 A 
ATOM     12  C   UNL d   1      31.204  16.838 -24.485  0.00  0.00     0.028 A 
ENDBRANCH   7   8
ENDBRANCH   5   7
ENDBRANCH   3   4
ENDBRANCH   2   3
ENDBRANCH   1   2
BRANCH   1  13
ATOM     13  C   UNL d   1      32.851  20.763 -21.875  0.00  0.00     0.040 C 
BRANCH  13  14
ATOM     14  C   UNL d   1      32.315  21.168 -21.350  0.00  0.00     0.070 C 
BRANCH  14  15
ATOM     15  C   UNL d   1      32.503  21.929 -21.103  0.00  0.00     0.280 C 
ATOM     16  N   UNL d   1      32.703  22.059 -20.270  0.00  0.00    -0.204 NA
ATOM     17  O   UNL d   1      32.508  22.582 -21.626  0.00  0.00    -0.265 OA
BRANCH  16  18
ATOM     18  C   UNL d   1      32.885  22.811 -20.041  0.00  0.00     0.127 C 
BRANCH  18  19
ATOM     19  C   UNL d   1      32.869  23.037 -19.231  0.00  0.00     0.119 A 
ATOM     20  O   UNL d   1      33.241  22.644 -18.607  0.00  0.00    -0.304 OA
ATOM     21  C   UNL d   1      33.061  23.089 -17.891  0.00  0.00     0.123 A 
ATOM     22  C   UNL d   1      32.605  23.702 -18.124  0.00  0.00     0.029 A 
ATOM     23  C   UNL d   1      32.486  23.681 -18.909  0.00  0.00     0.028 A 
ENDBRANCH  18  19
ENDBRANCH  16  18
ENDBRANCH  14  15
ENDBRANCH  13  14
ENDBRANCH   1  13
TORSDOF 10
ENDMDL
