MODEL 1
REMARK VINA RESULT:      -5.7      0.000      0.000
REMARK  5 active torsions:
REMARK  status: ('A' for Active; 'I' for Inactive)
REMARK    1  A    between atoms: C_9  and  S_1 
REMARK    2  A    between atoms: C_2  and  C_10 
REMARK       I    between atoms: C_8  and  N_15 
REMARK    3  A    between atoms: C_10  and  C_8 
REMARK    4  A    between atoms: N_15  and  C_22 
REMARK    5  A    between atoms: O_26  and  C_21 
ROOT
ATOM      1  C   UNL d   1     -41.419-122.920 -50.855  0.00  0.00     0.063 C 
ENDROOT
BRANCH   1   2
ATOM      2  C   UNL d   1     -42.030-122.816 -50.315  0.00  0.00     0.012 A 
ATOM      3  C   UNL d   1     -41.936-123.067 -49.534  0.00  0.00     0.023 A 
ATOM      4  C   UNL d   1     -42.553-122.961 -48.995  0.00  0.00     0.105 A 
ATOM      5  C   UNL d   1     -41.234-123.420 -49.299  0.00  0.00     0.004 A 
ATOM      6  C   UNL d   1     -42.465-123.210 -48.209  0.00  0.00     0.049 A 
ATOM      7  O   UNL d   1     -43.262-122.607 -49.225  0.00  0.00    -0.273 OA
ATOM      8  C   UNL d   1     -41.757-123.564 -47.979  0.00  0.00     0.096 A 
ATOM      9  C   UNL d   1     -41.143-123.669 -48.522  0.00  0.00     0.024 A 
ATOM     10  C   UNL d   1     -43.354-122.354 -50.016  0.00  0.00     0.300 A 
ATOM     11  C   UNL d   1     -42.740-122.458 -50.559  0.00  0.00     0.069 A 
ATOM     12  O   UNL d   1     -44.053-122.001 -50.255  0.00  0.00    -0.259 OA
BRANCH   8  13
ATOM     13  O   UNL d   1     -41.662-123.814 -47.204  0.00  0.00    -0.328 OA
ATOM     14  C   UNL d   1     -41.229-123.354 -46.676  0.00  0.00     0.181 C 
ENDBRANCH   8  13
ENDBRANCH   1   2
BRANCH   1  15
ATOM     15  C   UNL d   1     -41.567-122.893 -51.666  0.00  0.00     0.279 C 
ATOM     16  N   UNL d   1     -41.389-122.218 -52.101  0.00  0.00    -0.208 NA
ATOM     17  O   UNL d   1     -41.894-123.548 -52.038  0.00  0.00    -0.265 OA
BRANCH  16  18
ATOM     18  C   UNL d   1     -41.539-122.198 -52.909  0.00  0.00     0.085 A 
ATOM     19  C   UNL d   1     -41.213-122.781 -53.394  0.00  0.00     0.020 A 
ATOM     20  C   UNL d   1     -41.366-122.757 -54.208  0.00  0.00     0.015 A 
ATOM     21  C   UNL d   1     -41.833-122.165 -54.529  0.00  0.00     0.107 A 
ATOM     22  C   UNL d   1     -42.157-121.586 -54.043  0.00  0.00     0.015 A 
ATOM     23  C   UNL d   1     -42.010-121.601 -53.231  0.00  0.00     0.020 A 
BRANCH  21  24
ATOM     24  S   UNL d   1     -41.982-122.147 -55.339  0.00  0.00     0.302 S 
ATOM     25  O   UNL d   1     -41.931-122.081 -56.151  0.00  0.00    -0.197 OA
ATOM     26  O   UNL d   1     -41.193-121.966 -55.263  0.00  0.00    -0.197 OA
ATOM     27  N   UNL d   1     -42.741-122.308 -55.614  0.00  0.00    -0.043 N 
ENDBRANCH  21  24
ENDBRANCH  16  18
ENDBRANCH   1  15
TORSDOF 5
ENDMDL
MODEL 2
REMARK VINA RESULT:      -3.6      2.194      5.572
REMARK  5 active torsions:
REMARK  status: ('A' for Active; 'I' for Inactive)
REMARK    1  A    between atoms: C_9  and  S_1 
REMARK    2  A    between atoms: C_2  and  C_10 
REMARK       I    between atoms: C_8  and  N_15 
REMARK    3  A    between atoms: C_10  and  C_8 
REMARK    4  A    between atoms: N_15  and  C_22 
REMARK    5  A    between atoms: O_26  and  C_21 
ROOT
ATOM      1  C   UNL d   1     -41.172-123.350 -51.859  0.00  0.00     0.063 C 
ENDROOT
BRANCH   1   2
ATOM      2  C   UNL d   1     -41.219-122.641 -52.273  0.00  0.00     0.012 A 
ATOM      3  C   UNL d   1     -41.332-122.649 -53.091  0.00  0.00     0.023 A 
ATOM      4  C   UNL d   1     -41.379-121.935 -53.503  0.00  0.00     0.105 A 
ATOM      5  C   UNL d   1     -41.396-123.365 -53.488  0.00  0.00     0.004 A 
ATOM      6  C   UNL d   1     -41.492-121.936 -54.325  0.00  0.00     0.049 A 
ATOM      7  O   UNL d   1     -41.315-121.213 -53.110  0.00  0.00    -0.273 OA
ATOM      8  C   UNL d   1     -41.556-122.659 -54.718  0.00  0.00     0.096 A 
ATOM      9  C   UNL d   1     -41.508-123.370 -54.301  0.00  0.00     0.024 A 
ATOM     10  C   UNL d   1     -41.201-121.208 -52.281  0.00  0.00     0.300 A 
ATOM     11  C   UNL d   1     -41.153-121.919 -51.865  0.00  0.00     0.069 A 
ATOM     12  O   UNL d   1     -41.137-120.497 -51.881  0.00  0.00    -0.259 OA
BRANCH   8  13
ATOM     13  O   UNL d   1     -41.668-122.669 -55.530  0.00  0.00    -0.328 OA
ATOM     14  C   UNL d   1     -42.338-122.318 -55.854  0.00  0.00     0.181 C 
ENDBRANCH   8  13
ENDBRANCH   1   2
BRANCH   1  15
ATOM     15  C   UNL d   1     -41.553-123.437 -51.132  0.00  0.00     0.279 C 
ATOM     16  N   UNL d   1     -41.145-123.318 -50.429  0.00  0.00    -0.208 NA
ATOM     17  O   UNL d   1     -42.347-123.647 -51.117  0.00  0.00    -0.265 OA
BRANCH  16  18
ATOM     18  C   UNL d   1     -41.531-123.407 -49.709  0.00  0.00     0.085 A 
ATOM     19  C   UNL d   1     -41.123-123.244 -49.009  0.00  0.00     0.020 A 
ATOM     20  C   UNL d   1     -41.515-123.336 -48.285  0.00  0.00     0.015 A 
ATOM     21  C   UNL d   1     -42.296-123.583 -48.261  0.00  0.00     0.107 A 
ATOM     22  C   UNL d   1     -42.701-123.744 -48.959  0.00  0.00     0.015 A 
ATOM     23  C   UNL d   1     -42.318-123.656 -49.685  0.00  0.00     0.020 A 
BRANCH  21  24
ATOM     24  S   UNL d   1     -42.681-123.672 -47.538  0.00  0.00     0.302 S 
ATOM     25  O   UNL d   1     -43.229-123.729 -46.935  0.00  0.00    -0.197 OA
ATOM     26  O   UNL d   1     -43.273-123.540 -48.079  0.00  0.00    -0.197 OA
ATOM     27  N   UNL d   1     -42.238-123.814 -46.859  0.00  0.00    -0.043 N 
ENDBRANCH  21  24
ENDBRANCH  16  18
ENDBRANCH   1  15
TORSDOF 5
ENDMDL
