MODEL 1
REMARK VINA RESULT:      -1.8      0.000      0.000
REMARK  4 active torsions:
REMARK  status: ('A' for Active; 'I' for Inactive)
REMARK    1  A    between atoms: C_8  and  C_1 
REMARK    2  A    between atoms: C_6  and  C_2 
REMARK    3  A    between atoms: O_17  and  C_8 
REMARK    4  A    between atoms: C_20  and  O_17 
ROOT
ATOM      1  C   UNL d   1      58.549  -0.660  29.780  0.00  0.00     0.099 A 
ATOM      2  C   UNL d   1      58.512  -1.456  29.931  0.00  0.00     0.093 A 
ATOM      3  C   UNL d   1      58.022  -0.143  30.148  0.00  0.00     0.093 A 
ATOM      4  C   UNL d   1      57.431  -1.252  30.814  0.00  0.00     0.369 A 
ATOM      5  N   UNL d   1      57.465  -0.441  30.663  0.00  0.00    -0.191 NA
ATOM      6  N   UNL d   1      57.951  -1.749  30.449  0.00  0.00    -0.191 NA
ATOM      7  O   UNL d   1      56.864  -1.569  31.341  0.00  0.00    -0.242 OA
ATOM      8  C   UNL d   1      58.054   0.682  29.997  0.00  0.00     0.021 C 
ENDROOT
BRANCH   2   9
ATOM      9  C   UNL d   1      59.154  -2.136  29.491  0.00  0.00     0.029 A 
ATOM     10  C   UNL d   1      58.844  -2.522  28.845  0.00  0.00     0.060 A 
ATOM     11  C   UNL d   1      59.379  -3.082  28.485  0.00  0.00     0.023 A 
ATOM     12 CL   UNL d   1      58.129  -2.421  28.547  0.00  0.00    -0.082 Cl
ATOM     13  C   UNL d   1      60.145  -3.182  28.812  0.00  0.00     0.059 A 
ATOM     14  C   UNL d   1      60.379  -2.760  29.457  0.00  0.00     0.011 A 
ATOM     15 CL   UNL d   1      60.676  -3.727  28.470  0.00  0.00    -0.082 Cl
ATOM     16  C   UNL d   1      59.869  -2.211  29.818  0.00  0.00     0.003 A 
ENDBRANCH   2   9
BRANCH   1  17
ATOM     17  C   UNL d   1      59.122  -0.382  29.254  0.00  0.00     0.303 C 
ATOM     18  O   UNL d   1      58.976  -0.309  28.455  0.00  0.00    -0.259 OA
BRANCH  17  19
ATOM     19  O   UNL d   1      59.893  -0.159  29.542  0.00  0.00    -0.271 OA
BRANCH  19  20
ATOM     20  C   UNL d   1      60.240   0.556  29.249  0.00  0.00     0.126 C 
ATOM     21  C   UNL d   1      61.044   0.580  29.067  0.00  0.00     0.029 C 
ENDBRANCH  19  20
ENDBRANCH  17  19
ENDBRANCH   1  17
TORSDOF 4
ENDMDL
MODEL 2
REMARK VINA RESULT:      -1.1      1.765      3.176
REMARK  4 active torsions:
REMARK  status: ('A' for Active; 'I' for Inactive)
REMARK    1  A    between atoms: C_8  and  C_1 
REMARK    2  A    between atoms: C_6  and  C_2 
REMARK    3  A    between atoms: O_17  and  C_8 
REMARK    4  A    between atoms: C_20  and  O_17 
ROOT
ATOM      1  C   UNL d   1      58.984  -0.751  29.500  0.00  0.00     0.099 A 
ATOM      2  C   UNL d   1      58.273  -1.038  29.768  0.00  0.00     0.093 A 
ATOM      3  C   UNL d   1      59.423  -1.181  28.950  0.00  0.00     0.093 A 
ATOM      4  C   UNL d   1      58.412  -2.182  28.954  0.00  0.00     0.369 A 
ATOM      5  N   UNL d   1      59.135  -1.894  28.679  0.00  0.00    -0.191 NA
ATOM      6  N   UNL d   1      57.990  -1.754  29.493  0.00  0.00    -0.191 NA
ATOM      7  O   UNL d   1      58.107  -2.912  28.683  0.00  0.00    -0.242 OA
ATOM      8  C   UNL d   1      60.158  -0.891  28.668  0.00  0.00     0.021 C 
ENDROOT
BRANCH   2   9
ATOM      9  C   UNL d   1      57.694  -0.530  30.457  0.00  0.00     0.029 A 
ATOM     10  C   UNL d   1      57.553  -0.940  31.146  0.00  0.00     0.060 A 
ATOM     11  C   UNL d   1      57.074  -0.517  31.711  0.00  0.00     0.023 A 
ATOM     12 CL   UNL d   1      57.812  -1.658  31.316  0.00  0.00    -0.082 Cl
ATOM     13  C   UNL d   1      56.801   0.253  31.518  0.00  0.00     0.059 A 
ATOM     14  C   UNL d   1      56.984   0.594  30.811  0.00  0.00     0.011 A 
ATOM     15 CL   UNL d   1      56.332   0.677  32.063  0.00  0.00    -0.082 Cl
ATOM     16  C   UNL d   1      57.450   0.192  30.251  0.00  0.00     0.003 A 
ENDBRANCH   2   9
BRANCH   1  17
ATOM     17  C   UNL d   1      59.254  -0.027  29.789  0.00  0.00     0.303 C 
ATOM     18  O   UNL d   1      59.037   0.682  29.449  0.00  0.00    -0.259 OA
BRANCH  17  19
ATOM     19  O   UNL d   1      59.776  -0.004  30.463  0.00  0.00    -0.271 OA
BRANCH  19  20
ATOM     20  C   UNL d   1      60.451   0.508  30.432  0.00  0.00     0.126 C 
ATOM     21  C   UNL d   1      60.869   0.681  31.120  0.00  0.00     0.029 C 
ENDBRANCH  19  20
ENDBRANCH  17  19
ENDBRANCH   1  17
TORSDOF 4
ENDMDL
MODEL 3
REMARK VINA RESULT:      -0.3      1.261      2.525
REMARK  4 active torsions:
REMARK  status: ('A' for Active; 'I' for Inactive)
REMARK    1  A    between atoms: C_8  and  C_1 
REMARK    2  A    between atoms: C_6  and  C_2 
REMARK    3  A    between atoms: O_17  and  C_8 
REMARK    4  A    between atoms: C_20  and  O_17 
ROOT
ATOM      1  C   UNL d   1      58.687  -0.531  29.935  0.00  0.00     0.099 A 
ATOM      2  C   UNL d   1      59.226  -0.948  29.495  0.00  0.00     0.093 A 
ATOM      3  C   UNL d   1      58.850   0.243  30.165  0.00  0.00     0.093 A 
ATOM      4  C   UNL d   1      60.104   0.156  29.499  0.00  0.00     0.369 A 
ATOM      5  N   UNL d   1      59.558   0.584  29.946  0.00  0.00    -0.191 NA
ATOM      6  N   UNL d   1      59.934  -0.601  29.278  0.00  0.00    -0.191 NA
ATOM      7  O   UNL d   1      60.833   0.494  29.268  0.00  0.00    -0.242 OA
ATOM      8  C   UNL d   1      58.298   0.681  30.620  0.00  0.00     0.021 C 
ENDROOT
BRANCH   2   9
ATOM      9  C   UNL d   1      59.058  -1.920  29.186  0.00  0.00     0.029 A 
ATOM     10  C   UNL d   1      59.656  -2.440  29.371  0.00  0.00     0.060 A 
ATOM     11  C   UNL d   1      59.512  -3.242  29.114  0.00  0.00     0.023 A 
ATOM     12 CL   UNL d   1      60.318  -2.266  29.747  0.00  0.00    -0.082 Cl
ATOM     13  C   UNL d   1      58.798  -3.418  28.711  0.00  0.00     0.059 A 
ATOM     14  C   UNL d   1      58.251  -2.845  28.565  0.00  0.00     0.011 A 
ATOM     15 CL   UNL d   1      58.646  -4.198  28.455  0.00  0.00    -0.082 Cl
ATOM     16  C   UNL d   1      58.378  -2.060  28.809  0.00  0.00     0.003 A 
ENDBRANCH   2   9
BRANCH   1  17
ATOM     17  C   UNL d   1      57.977  -0.897  30.144  0.00  0.00     0.303 C 
ATOM     18  O   UNL d   1      57.404  -1.076  29.593  0.00  0.00    -0.259 OA
BRANCH  17  19
ATOM     19  O   UNL d   1      57.825  -1.099  30.959  0.00  0.00    -0.271 OA
BRANCH  19  20
ATOM     20  C   UNL d   1      57.034  -1.024  31.251  0.00  0.00     0.126 C 
ATOM     21  C   UNL d   1      56.748  -1.558  31.810  0.00  0.00     0.029 C 
ENDBRANCH  19  20
ENDBRANCH  17  19
ENDBRANCH   1  17
TORSDOF 4
ENDMDL
MODEL 4
REMARK VINA RESULT:       0.1      1.888      3.645
REMARK  4 active torsions:
REMARK  status: ('A' for Active; 'I' for Inactive)
REMARK    1  A    between atoms: C_8  and  C_1 
REMARK    2  A    between atoms: C_6  and  C_2 
REMARK    3  A    between atoms: O_17  and  C_8 
REMARK    4  A    between atoms: C_20  and  O_17 
ROOT
ATOM      1  C   UNL d   1      59.687  -1.206  29.124  0.00  0.00     0.099 A 
ATOM      2  C   UNL d   1      59.500  -0.446  29.337  0.00  0.00     0.093 A 
ATOM      3  C   UNL d   1      60.364  -1.358  28.680  0.00  0.00     0.093 A 
ATOM      4  C   UNL d   1      60.650   0.036  28.677  0.00  0.00     0.369 A 
ATOM      5  N   UNL d   1      60.843  -0.736  28.458  0.00  0.00    -0.191 NA
ATOM      6  N   UNL d   1      59.985   0.174  29.112  0.00  0.00    -0.191 NA
ATOM      7  O   UNL d   1      61.133   0.682  28.455  0.00  0.00    -0.242 OA
ATOM      8  C   UNL d   1      60.564  -2.141  28.455  0.00  0.00     0.021 C 
ENDROOT
BRANCH   2   9
ATOM      9  C   UNL d   1      58.660  -0.215  29.894  0.00  0.00     0.029 A 
ATOM     10  C   UNL d   1      58.054   0.118  29.466  0.00  0.00     0.060 A 
ATOM     11  C   UNL d   1      57.363   0.307  29.930  0.00  0.00     0.023 A 
ATOM     12 CL   UNL d   1      58.060   0.270  28.699  0.00  0.00    -0.082 Cl
ATOM     13  C   UNL d   1      57.366   0.140  30.752  0.00  0.00     0.059 A 
ATOM     14  C   UNL d   1      58.009  -0.193  31.105  0.00  0.00     0.011 A 
ATOM     15 CL   UNL d   1      56.697   0.320  31.217  0.00  0.00    -0.082 Cl
ATOM     16  C   UNL d   1      58.689  -0.382  30.665  0.00  0.00     0.003 A 
ENDBRANCH   2   9
BRANCH   1  17
ATOM     17  C   UNL d   1      59.187  -1.819  29.360  0.00  0.00     0.303 C 
ATOM     18  O   UNL d   1      59.246  -2.165  30.097  0.00  0.00    -0.259 OA
BRANCH  17  19
ATOM     19  O   UNL d   1      58.586  -2.108  28.829  0.00  0.00    -0.271 OA
BRANCH  19  20
ATOM     20  C   UNL d   1      58.148  -2.798  29.055  0.00  0.00     0.126 C 
ATOM     21  C   UNL d   1      58.097  -3.440  28.540  0.00  0.00     0.029 C 
ENDBRANCH  19  20
ENDBRANCH  17  19
ENDBRANCH   1  17
TORSDOF 4
ENDMDL
