MODEL 1
REMARK VINA RESULT:      74.0      0.000      0.000
REMARK  4 active torsions:
REMARK  status: ('A' for Active; 'I' for Inactive)
REMARK    1  A    between atoms: C_6  and  N_2 
REMARK    2  A    between atoms: C_11  and  C_6 
REMARK    3  A    between atoms: C_10  and  C_11 
REMARK       I    between atoms: N_14  and  C_10 
REMARK    4  A    between atoms: C_16  and  N_14 
ROOT
ATOM      1  C   UNL d   1      60.487  49.268  50.650  0.00  0.00     0.082 C 
ENDROOT
BRANCH   1   2
ATOM      2  C   UNL d   1      60.800  48.647  50.399  0.00  0.00     0.281 C 
ATOM      3  N   UNL d   1      60.562  47.907  50.136  0.00  0.00    -0.208 NA
ATOM      4  O   UNL d   1      61.450  49.035  50.507  0.00  0.00    -0.265 OA
BRANCH   3   5
ATOM      5  C   UNL d   1      61.135  47.356  49.897  0.00  0.00     0.087 A 
ATOM      6  C   UNL d   1      61.057  46.570  50.121  0.00  0.00     0.046 A 
ATOM      7  C   UNL d   1      61.630  46.020  49.881  0.00  0.00     0.124 A 
ATOM      8  O   UNL d   1      61.552  45.234  50.105  0.00  0.00    -0.301 OA
ATOM      9  C   UNL d   1      62.266  46.251  49.427  0.00  0.00     0.123 A 
ATOM     10  C   UNL d   1      62.110  44.679  49.875  0.00  0.00     0.149 A 
ATOM     11  C   UNL d   1      62.751  44.922  49.416  0.00  0.00     0.149 A 
ATOM     12  O   UNL d   1      62.829  45.707  49.192  0.00  0.00    -0.301 OA
ATOM     13  C   UNL d   1      62.335  47.043  49.208  0.00  0.00     0.028 A 
ATOM     14  C   UNL d   1      61.776  47.598  49.438  0.00  0.00     0.021 A 
ENDBRANCH   3   5
ENDBRANCH   1   2
BRANCH   1  15
ATOM     15  C   UNL d   1      59.796  49.706  50.623  0.00  0.00     0.100 C 
BRANCH  15  16
ATOM     16  N   UNL d   1      59.121  49.707  50.181  0.00  0.00    -0.197 N 
ATOM     17  S   UNL d   1      58.453  49.707  49.667  0.00  0.00     0.274 S 
ATOM     18  C   UNL d   1      57.755  49.706  50.149  0.00  0.00     0.109 A 
ATOM     19  O   UNL d   1      57.628  49.707  49.367  0.00  0.00    -0.200 OA
ATOM     20  O   UNL d   1      58.537  49.708  48.831  0.00  0.00    -0.200 OA
ATOM     21  C   UNL d   1      57.995  49.706  50.954  0.00  0.00     0.069 A 
ATOM     22  C   UNL d   1      56.940  49.706  49.956  0.00  0.00     0.013 A 
ATOM     23  C   UNL d   1      57.422  49.705  51.570  0.00  0.00     0.005 A 
ATOM     24  C   UNL d   1      58.835  49.706  50.976  0.00  0.00     0.275 A 
ATOM     25  C   UNL d   1      56.613  49.705  51.367  0.00  0.00     0.000 A 
ATOM     26  C   UNL d   1      56.372  49.706  50.562  0.00  0.00     0.001 A 
ATOM     27  O   UNL d   1      59.309  49.706  51.500  0.00  0.00    -0.266 OA
ENDBRANCH  15  16
ENDBRANCH   1  15
TORSDOF 4
ENDMDL
