MODEL 1
REMARK VINA RESULT:      -9.9      0.000      0.000
REMARK  2 active torsions:
REMARK  status: ('A' for Active; 'I' for Inactive)
REMARK    1  A    between atoms: C_8  and  C_1 
REMARK    2  A    between atoms: N_5  and  C_8 
ROOT
ATOM      1  C   UNL d   1      53.612  33.036  53.465  0.00  0.00     0.059 A 
ATOM      2  C   UNL d   1      53.459  34.210  54.250  0.00  0.00     0.121 A 
ATOM      3  C   UNL d   1      53.880  33.544  54.052  0.00  0.00     0.214 A 
ATOM      4  C   UNL d   1      52.748  34.381  53.855  0.00  0.00     0.032 A 
ATOM      5  C   UNL d   1      52.472  33.883  53.269  0.00  0.00     0.059 A 
ATOM      6  C   UNL d   1      52.911  33.204  53.076  0.00  0.00     0.016 A 
ATOM      7  N   UNL d   1      53.727  34.715  54.834  0.00  0.00    -0.241 NA
ATOM      8 CL   UNL d   1      51.768  34.052  52.878  0.00  0.00    -0.082 Cl
ATOM      9  O   UNL d   1      54.591  33.372  54.447  0.00  0.00    -0.285 OA
ATOM     10  C   UNL d   1      52.330  35.051  54.058  0.00  0.00     0.004 A 
ATOM     11  C   UNL d   1      53.305  35.389  55.038  0.00  0.00     0.099 A 
ATOM     12  C   UNL d   1      52.605  35.558  54.649  0.00  0.00     0.021 A 
ENDROOT
BRANCH   1  13
ATOM     13  C   UNL d   1      54.046  32.352  53.263  0.00  0.00     0.084 C 
BRANCH  13  14
ATOM     14  N   UNL d   1      53.681  31.606  53.292  0.00  0.00    -0.302 N 
ATOM     15  C   UNL d   1      53.824  31.112  53.922  0.00  0.00     0.080 A 
ATOM     16  C   UNL d   1      53.458  30.365  53.950  0.00  0.00     0.018 A 
ATOM     17  C   UNL d   1      53.601  29.861  54.588  0.00  0.00     0.002 A 
ATOM     18  C   UNL d   1      52.952  30.131  53.338  0.00  0.00     0.003 A 
ATOM     19  C   UNL d   1      53.234  29.111  54.617  0.00  0.00     0.000 A 
ATOM     20  C   UNL d   1      52.730  28.876  54.007  0.00  0.00     0.000 A 
ATOM     21  C   UNL d   1      52.591  29.378  53.377  0.00  0.00     0.000 A 
ATOM     22  C   UNL d   1      52.817  30.631  52.715  0.00  0.00     0.019 A 
ATOM     23  C   UNL d   1      53.177  31.380  52.675  0.00  0.00     0.080 A 
ENDBRANCH  13  14
ENDBRANCH   1  13
TORSDOF 2
ENDMDL
MODEL 2
REMARK VINA RESULT:      -8.9      2.323      4.195
REMARK  2 active torsions:
REMARK  status: ('A' for Active; 'I' for Inactive)
REMARK    1  A    between atoms: C_8  and  C_1 
REMARK    2  A    between atoms: N_5  and  C_8 
ROOT
ATOM      1  C   UNL d   1      52.566  33.838  53.017  0.00  0.00     0.059 A 
ATOM      2  C   UNL d   1      53.397  33.379  54.074  0.00  0.00     0.121 A 
ATOM      3  C   UNL d   1      53.053  33.988  53.660  0.00  0.00     0.214 A 
ATOM      4  C   UNL d   1      53.255  32.593  53.844  0.00  0.00     0.032 A 
ATOM      5  C   UNL d   1      52.771  32.432  53.206  0.00  0.00     0.059 A 
ATOM      6  C   UNL d   1      52.425  33.064  52.791  0.00  0.00     0.016 A 
ATOM      7  N   UNL d   1      53.883  33.530  54.714  0.00  0.00    -0.241 NA
ATOM      8 CL   UNL d   1      52.629  31.653  52.978  0.00  0.00    -0.082 Cl
ATOM      9  O   UNL d   1      53.196  34.775  53.889  0.00  0.00    -0.285 OA
ATOM     10  C   UNL d   1      53.602  31.986  54.263  0.00  0.00     0.004 A 
ATOM     11  C   UNL d   1      54.232  32.918  55.134  0.00  0.00     0.099 A 
ATOM     12  C   UNL d   1      54.091  32.143  54.908  0.00  0.00     0.021 A 
ENDROOT
BRANCH   1  13
ATOM     13  C   UNL d   1      52.214  34.465  52.594  0.00  0.00     0.084 C 
BRANCH  13  14
ATOM     14  N   UNL d   1      51.389  34.488  52.496  0.00  0.00    -0.302 N 
ATOM     15  C   UNL d   1      51.070  34.408  51.752  0.00  0.00     0.080 A 
ATOM     16  C   UNL d   1      50.244  34.431  51.654  0.00  0.00     0.018 A 
ATOM     17  C   UNL d   1      49.917  34.350  50.901  0.00  0.00     0.002 A 
ATOM     18  C   UNL d   1      49.754  34.534  52.313  0.00  0.00     0.003 A 
ATOM     19  C   UNL d   1      49.087  34.372  50.802  0.00  0.00     0.000 A 
ATOM     20  C   UNL d   1      48.598  34.476  51.458  0.00  0.00     0.000 A 
ATOM     21  C   UNL d   1      48.926  34.556  52.203  0.00  0.00     0.000 A 
ATOM     22  C   UNL d   1      50.083  34.613  53.050  0.00  0.00     0.019 A 
ATOM     23  C   UNL d   1      50.907  34.592  53.160  0.00  0.00     0.080 A 
ENDBRANCH  13  14
ENDBRANCH   1  13
TORSDOF 2
ENDMDL
MODEL 3
REMARK VINA RESULT:      -8.6      1.618      4.175
REMARK  2 active torsions:
REMARK  status: ('A' for Active; 'I' for Inactive)
REMARK    1  A    between atoms: C_8  and  C_1 
REMARK    2  A    between atoms: N_5  and  C_8 
ROOT
ATOM      1  C   UNL d   1      53.328  31.770  53.680  0.00  0.00     0.059 A 
ATOM      2  C   UNL d   1      53.368  30.512  54.339  0.00  0.00     0.121 A 
ATOM      3  C   UNL d   1      53.431  31.322  54.360  0.00  0.00     0.214 A 
ATOM      4  C   UNL d   1      53.197  30.131  53.620  0.00  0.00     0.032 A 
ATOM      5  C   UNL d   1      53.093  30.567  52.937  0.00  0.00     0.059 A 
ATOM      6  C   UNL d   1      53.160  31.395  52.972  0.00  0.00     0.016 A 
ATOM      7  N   UNL d   1      53.471  30.067  55.016  0.00  0.00    -0.241 NA
ATOM      8 CL   UNL d   1      52.924  30.189  52.225  0.00  0.00    -0.082 Cl
ATOM      9  O   UNL d   1      53.602  31.704  55.079  0.00  0.00    -0.285 OA
ATOM     10  C   UNL d   1      53.135  29.318  53.605  0.00  0.00     0.004 A 
ATOM     11  C   UNL d   1      53.408  29.249  55.000  0.00  0.00     0.099 A 
ATOM     12  C   UNL d   1      53.240  28.873  54.292  0.00  0.00     0.021 A 
ENDROOT
BRANCH   1  13
ATOM     13  C   UNL d   1      53.394  32.602  53.704  0.00  0.00     0.084 C 
BRANCH  13  14
ATOM     14  N   UNL d   1      52.832  33.073  53.313  0.00  0.00    -0.302 N 
ATOM     15  C   UNL d   1      52.065  33.094  53.583  0.00  0.00     0.080 A 
ATOM     16  C   UNL d   1      51.503  33.566  53.191  0.00  0.00     0.018 A 
ATOM     17  C   UNL d   1      50.724  33.589  53.463  0.00  0.00     0.002 A 
ATOM     18  C   UNL d   1      51.729  34.011  52.530  0.00  0.00     0.003 A 
ATOM     19  C   UNL d   1      50.160  34.063  53.069  0.00  0.00     0.000 A 
ATOM     20  C   UNL d   1      50.383  34.507  52.411  0.00  0.00     0.000 A 
ATOM     21  C   UNL d   1      51.156  34.482  52.144  0.00  0.00     0.000 A 
ATOM     22  C   UNL d   1      52.495  33.983  52.270  0.00  0.00     0.019 A 
ATOM     23  C   UNL d   1      53.067  33.515  52.653  0.00  0.00     0.080 A 
ENDBRANCH  13  14
ENDBRANCH   1  13
TORSDOF 2
ENDMDL
MODEL 4
REMARK VINA RESULT:      -8.4      1.640      4.360
REMARK  2 active torsions:
REMARK  status: ('A' for Active; 'I' for Inactive)
REMARK    1  A    between atoms: C_8  and  C_1 
REMARK    2  A    between atoms: N_5  and  C_8 
ROOT
ATOM      1  C   UNL d   1      53.251  31.700  53.234  0.00  0.00     0.059 A 
ATOM      2  C   UNL d   1      53.124  30.319  53.548  0.00  0.00     0.121 A 
ATOM      3  C   UNL d   1      53.069  30.930  53.014  0.00  0.00     0.214 A 
ATOM      4  C   UNL d   1      53.366  30.474  54.328  0.00  0.00     0.032 A 
ATOM      5  C   UNL d   1      53.549  31.237  54.559  0.00  0.00     0.059 A 
ATOM      6  C   UNL d   1      53.489  31.852  54.003  0.00  0.00     0.016 A 
ATOM      7  N   UNL d   1      52.943  29.554  53.327  0.00  0.00    -0.241 NA
ATOM      8 CL   UNL d   1      53.789  31.391  55.331  0.00  0.00    -0.082 Cl
ATOM      9  O   UNL d   1      52.827  30.775  52.234  0.00  0.00    -0.285 OA
ATOM     10  C   UNL d   1      53.419  29.858  54.859  0.00  0.00     0.004 A 
ATOM     11  C   UNL d   1      52.996  28.935  53.863  0.00  0.00     0.099 A 
ATOM     12  C   UNL d   1      53.235  29.087  54.632  0.00  0.00     0.021 A 
ENDROOT
BRANCH   1  13
ATOM     13  C   UNL d   1      53.194  32.324  52.684  0.00  0.00     0.084 C 
BRANCH  13  14
ATOM     14  N   UNL d   1      52.714  32.981  52.852  0.00  0.00    -0.302 N 
ATOM     15  C   UNL d   1      51.916  32.948  52.696  0.00  0.00     0.080 A 
ATOM     16  C   UNL d   1      51.435  33.606  52.863  0.00  0.00     0.018 A 
ATOM     17  C   UNL d   1      50.626  33.574  52.706  0.00  0.00     0.002 A 
ATOM     18  C   UNL d   1      51.772  34.289  53.187  0.00  0.00     0.003 A 
ATOM     19  C   UNL d   1      50.143  34.235  52.875  0.00  0.00     0.000 A 
ATOM     20  C   UNL d   1      50.477  34.917  53.197  0.00  0.00     0.000 A 
ATOM     21  C   UNL d   1      51.280  34.944  53.351  0.00  0.00     0.000 A 
ATOM     22  C   UNL d   1      52.568  34.312  53.338  0.00  0.00     0.019 A 
ATOM     23  C   UNL d   1      53.059  33.661  53.175  0.00  0.00     0.080 A 
ENDBRANCH  13  14
ENDBRANCH   1  13
TORSDOF 2
ENDMDL
MODEL 5
REMARK VINA RESULT:      -8.3      2.356      4.146
REMARK  2 active torsions:
REMARK  status: ('A' for Active; 'I' for Inactive)
REMARK    1  A    between atoms: C_8  and  C_1 
REMARK    2  A    between atoms: N_5  and  C_8 
ROOT
ATOM      1  C   UNL d   1      52.431  33.598  53.152  0.00  0.00     0.059 A 
ATOM      2  C   UNL d   1      53.397  33.254  54.135  0.00  0.00     0.121 A 
ATOM      3  C   UNL d   1      52.856  33.034  53.570  0.00  0.00     0.214 A 
ATOM      4  C   UNL d   1      53.522  34.060  54.294  0.00  0.00     0.032 A 
ATOM      5  C   UNL d   1      53.104  34.630  53.884  0.00  0.00     0.059 A 
ATOM      6  C   UNL d   1      52.554  34.392  53.308  0.00  0.00     0.016 A 
ATOM      7  N   UNL d   1      53.820  32.691  54.550  0.00  0.00    -0.241 NA
ATOM      8 CL   UNL d   1      53.228  35.429  54.041  0.00  0.00    -0.082 Cl
ATOM      9  O   UNL d   1      52.731  32.227  53.411  0.00  0.00    -0.285 OA
ATOM     10  C   UNL d   1      54.066  34.275  54.862  0.00  0.00     0.004 A 
ATOM     11  C   UNL d   1      54.367  32.909  55.122  0.00  0.00     0.099 A 
ATOM     12  C   UNL d   1      54.491  33.703  55.279  0.00  0.00     0.021 A 
ENDROOT
BRANCH   1  13
ATOM     13  C   UNL d   1      51.876  33.369  52.572  0.00  0.00     0.084 C 
BRANCH  13  14
ATOM     14  N   UNL d   1      51.133  33.738  52.542  0.00  0.00    -0.302 N 
ATOM     15  C   UNL d   1      50.804  33.924  51.821  0.00  0.00     0.080 A 
ATOM     16  C   UNL d   1      50.060  34.294  51.790  0.00  0.00     0.018 A 
ATOM     17  C   UNL d   1      49.725  34.484  51.061  0.00  0.00     0.002 A 
ATOM     18  C   UNL d   1      49.659  34.469  52.493  0.00  0.00     0.003 A 
ATOM     19  C   UNL d   1      48.976  34.855  51.030  0.00  0.00     0.000 A 
ATOM     20  C   UNL d   1      48.575  35.030  51.729  0.00  0.00     0.000 A 
ATOM     21  C   UNL d   1      48.911  34.841  52.450  0.00  0.00     0.000 A 
ATOM     22  C   UNL d   1      49.994  34.279  53.205  0.00  0.00     0.019 A 
ATOM     23  C   UNL d   1      50.738  33.910  53.249  0.00  0.00     0.080 A 
ENDBRANCH  13  14
ENDBRANCH   1  13
TORSDOF 2
ENDMDL
MODEL 6
REMARK VINA RESULT:      -8.1      2.514      3.631
REMARK  2 active torsions:
REMARK  status: ('A' for Active; 'I' for Inactive)
REMARK    1  A    between atoms: C_8  and  C_1 
REMARK    2  A    between atoms: N_5  and  C_8 
ROOT
ATOM      1  C   UNL d   1      51.530  34.314  52.395  0.00  0.00     0.059 A 
ATOM      2  C   UNL d   1      50.285  34.393  51.715  0.00  0.00     0.121 A 
ATOM      3  C   UNL d   1      51.090  34.283  51.703  0.00  0.00     0.214 A 
ATOM      4  C   UNL d   1      49.900  34.539  52.437  0.00  0.00     0.032 A 
ATOM      5  C   UNL d   1      50.327  34.572  53.133  0.00  0.00     0.059 A 
ATOM      6  C   UNL d   1      51.150  34.458  53.107  0.00  0.00     0.016 A 
ATOM      7  N   UNL d   1      49.848  34.362  51.025  0.00  0.00    -0.241 NA
ATOM      8 CL   UNL d   1      49.946  34.717  53.848  0.00  0.00    -0.082 Cl
ATOM      9  O   UNL d   1      51.475  34.137  50.980  0.00  0.00    -0.285 OA
ATOM     10  C   UNL d   1      49.092  34.649  52.443  0.00  0.00     0.004 A 
ATOM     11  C   UNL d   1      49.035  34.473  51.033  0.00  0.00     0.099 A 
ATOM     12  C   UNL d   1      48.656  34.616  51.744  0.00  0.00     0.021 A 
ENDROOT
BRANCH   1  13
ATOM     13  C   UNL d   1      52.356  34.201  52.380  0.00  0.00     0.084 C 
BRANCH  13  14
ATOM     14  N   UNL d   1      52.721  33.733  52.962  0.00  0.00    -0.302 N 
ATOM     15  C   UNL d   1      53.162  34.088  53.546  0.00  0.00     0.080 A 
ATOM     16  C   UNL d   1      53.528  33.619  54.128  0.00  0.00     0.018 A 
ATOM     17  C   UNL d   1      53.975  33.976  54.722  0.00  0.00     0.002 A 
ATOM     18  C   UNL d   1      53.439  32.796  54.108  0.00  0.00     0.003 A 
ATOM     19  C   UNL d   1      54.342  33.505  55.307  0.00  0.00     0.000 A 
ATOM     20  C   UNL d   1      54.256  32.685  55.289  0.00  0.00     0.000 A 
ATOM     21  C   UNL d   1      53.811  32.335  54.699  0.00  0.00     0.000 A 
ATOM     22  C   UNL d   1      52.998  32.453  53.522  0.00  0.00     0.019 A 
ATOM     23  C   UNL d   1      52.628  32.911  52.934  0.00  0.00     0.080 A 
ENDBRANCH  13  14
ENDBRANCH   1  13
TORSDOF 2
ENDMDL
MODEL 7
REMARK VINA RESULT:      -8.0      2.111      2.795
REMARK  2 active torsions:
REMARK  status: ('A' for Active; 'I' for Inactive)
REMARK    1  A    between atoms: C_8  and  C_1 
REMARK    2  A    between atoms: N_5  and  C_8 
ROOT
ATOM      1  C   UNL d   1      51.897  33.820  52.704  0.00  0.00     0.059 A 
ATOM      2  C   UNL d   1      50.723  34.240  52.022  0.00  0.00     0.121 A 
ATOM      3  C   UNL d   1      51.510  34.036  52.013  0.00  0.00     0.214 A 
ATOM      4  C   UNL d   1      50.303  34.230  52.738  0.00  0.00     0.032 A 
ATOM      5  C   UNL d   1      50.678  34.017  53.433  0.00  0.00     0.059 A 
ATOM      6  C   UNL d   1      51.483  33.811  53.411  0.00  0.00     0.016 A 
ATOM      7  N   UNL d   1      50.340  34.454  51.333  0.00  0.00    -0.241 NA
ATOM      8 CL   UNL d   1      50.262  34.007  54.143  0.00  0.00    -0.082 Cl
ATOM      9  O   UNL d   1      51.931  34.046  51.296  0.00  0.00    -0.285 OA
ATOM     10  C   UNL d   1      49.514  34.435  52.741  0.00  0.00     0.004 A 
ATOM     11  C   UNL d   1      49.546  34.660  51.337  0.00  0.00     0.099 A 
ATOM     12  C   UNL d   1      49.131  34.651  52.043  0.00  0.00     0.021 A 
ENDROOT
BRANCH   1  13
ATOM     13  C   UNL d   1      52.705  33.612  52.693  0.00  0.00     0.084 C 
BRANCH  13  14
ATOM     14  N   UNL d   1      52.955  32.902  53.046  0.00  0.00    -0.302 N 
ATOM     15  C   UNL d   1      52.737  32.190  52.718  0.00  0.00     0.080 A 
ATOM     16  C   UNL d   1      52.988  31.480  53.072  0.00  0.00     0.018 A 
ATOM     17  C   UNL d   1      52.769  30.757  52.741  0.00  0.00     0.002 A 
ATOM     18  C   UNL d   1      53.455  31.504  53.755  0.00  0.00     0.003 A 
ATOM     19  C   UNL d   1      53.020  30.043  53.097  0.00  0.00     0.000 A 
ATOM     20  C   UNL d   1      53.486  30.065  53.777  0.00  0.00     0.000 A 
ATOM     21  C   UNL d   1      53.701  30.784  54.102  0.00  0.00     0.000 A 
ATOM     22  C   UNL d   1      53.666  32.218  54.073  0.00  0.00     0.019 A 
ATOM     23  C   UNL d   1      53.422  32.935  53.729  0.00  0.00     0.080 A 
ENDBRANCH  13  14
ENDBRANCH   1  13
TORSDOF 2
ENDMDL
MODEL 8
REMARK VINA RESULT:      -7.9      4.092      5.299
REMARK  2 active torsions:
REMARK  status: ('A' for Active; 'I' for Inactive)
REMARK    1  A    between atoms: C_8  and  C_1 
REMARK    2  A    between atoms: N_5  and  C_8 
ROOT
ATOM      1  C   UNL d   1      49.180  34.786  51.928  0.00  0.00     0.059 A 
ATOM      2  C   UNL d   1      47.847  35.214  51.688  0.00  0.00     0.121 A 
ATOM      3  C   UNL d   1      48.506  34.796  51.461  0.00  0.00     0.214 A 
ATOM      4  C   UNL d   1      47.854  35.638  52.403  0.00  0.00     0.032 A 
ATOM      5  C   UNL d   1      48.520  35.635  52.876  0.00  0.00     0.059 A 
ATOM      6  C   UNL d   1      49.187  35.204  52.633  0.00  0.00     0.016 A 
ATOM      7  N   UNL d   1      47.176  35.223  51.221  0.00  0.00    -0.241 NA
ATOM      8 CL   UNL d   1      48.527  36.055  53.584  0.00  0.00    -0.082 Cl
ATOM      9  O   UNL d   1      48.499  34.372  50.745  0.00  0.00    -0.285 OA
ATOM     10  C   UNL d   1      47.190  36.055  52.626  0.00  0.00     0.004 A 
ATOM     11  C   UNL d   1      46.508  35.644  51.447  0.00  0.00     0.099 A 
ATOM     12  C   UNL d   1      46.515  36.061  52.151  0.00  0.00     0.021 A 
ENDROOT
BRANCH   1  13
ATOM     13  C   UNL d   1      49.855  34.356  51.693  0.00  0.00     0.084 C 
BRANCH  13  14
ATOM     14  N   UNL d   1      50.426  34.140  52.256  0.00  0.00    -0.302 N 
ATOM     15  C   UNL d   1      51.129  34.549  52.295  0.00  0.00     0.080 A 
ATOM     16  C   UNL d   1      51.701  34.333  52.859  0.00  0.00     0.018 A 
ATOM     17  C   UNL d   1      52.414  34.745  52.900  0.00  0.00     0.002 A 
ATOM     18  C   UNL d   1      51.551  33.704  53.376  0.00  0.00     0.003 A 
ATOM     19  C   UNL d   1      52.989  34.527  53.467  0.00  0.00     0.000 A 
ATOM     20  C   UNL d   1      52.841  33.901  53.983  0.00  0.00     0.000 A 
ATOM     21  C   UNL d   1      52.133  33.495  53.939  0.00  0.00     0.000 A 
ATOM     22  C   UNL d   1      50.848  33.304  53.329  0.00  0.00     0.019 A 
ATOM     23  C   UNL d   1      50.268  33.510  52.769  0.00  0.00     0.080 A 
ENDBRANCH  13  14
ENDBRANCH   1  13
TORSDOF 2
ENDMDL
