MODEL 1
REMARK VINA RESULT:      -3.9      0.000      0.000
REMARK  6 active torsions:
REMARK  status: ('A' for Active; 'I' for Inactive)
REMARK    1  A    between atoms: C_5  and  N_1 
REMARK    2  A    between atoms: C_8  and  C_2 
REMARK    3  A    between atoms: C_3  and  O_4 
REMARK    4  A    between atoms: O_4  and  C_9 
REMARK    5  A    between atoms: C_7  and  C_5 
REMARK    6  A    between atoms: C_9  and  C_7 
ROOT
ATOM      1  O   UNL d   1      58.347  -0.258  30.046  0.00  0.00    -0.302 OA
ENDROOT
BRANCH   1   2
ATOM      2  C   UNL d   1      58.733  -0.827  29.597  0.00  0.00     0.100 A 
ATOM      3  C   UNL d   1      59.361  -0.611  29.109  0.00  0.00     0.023 A 
ATOM      4  C   UNL d   1      59.747  -1.179  28.659  0.00  0.00     0.002 A 
ATOM      5  C   UNL d   1      59.505  -1.969  28.695  0.00  0.00     0.000 A 
ATOM      6  C   UNL d   1      58.879  -2.187  29.180  0.00  0.00     0.002 A 
ATOM      7  C   UNL d   1      58.491  -1.617  29.633  0.00  0.00     0.025 A 
BRANCH   3   8
ATOM      8  C   UNL d   1      59.602   0.176  29.073  0.00  0.00     0.002 C 
ATOM      9  C   UNL d   1      60.173   0.456  29.598  0.00  0.00     0.000 C 
ATOM     10  C   UNL d   1      59.273   0.682  28.515  0.00  0.00     0.000 C 
ENDBRANCH   3   8
ENDBRANCH   1   2
BRANCH   1  11
ATOM     11  C   UNL d   1      57.822  -0.492  30.636  0.00  0.00     0.166 C 
BRANCH  11  12
ATOM     12  C   UNL d   1      57.385   0.077  31.049  0.00  0.00     0.238 C 
ATOM     13  O   UNL d   1      56.934   0.627  30.634  0.00  0.00    -0.283 OA
BRANCH  12  14
ATOM     14  C   UNL d   1      57.399   0.093  31.870  0.00  0.00     0.125 C 
BRANCH  14  15
ATOM     15  N   UNL d   1      56.712  -0.062  32.299  0.00  0.00    -0.296 N 
ATOM     16  C   UNL d   1      56.504  -0.844  32.469  0.00  0.00     0.107 A 
ATOM     17  C   UNL d   1      55.820  -1.002  32.896  0.00  0.00     0.142 A 
ATOM     18  O   UNL d   1      55.343  -0.380  33.153  0.00  0.00    -0.300 OA
ATOM     19  C   UNL d   1      55.552   0.397  32.982  0.00  0.00     0.142 A 
ATOM     20  C   UNL d   1      56.241   0.556  32.553  0.00  0.00     0.107 A 
ENDBRANCH  14  15
ENDBRANCH  12  14
ENDBRANCH  11  12
ENDBRANCH   1  11
TORSDOF 6
ENDMDL
MODEL 2
REMARK VINA RESULT:      -2.9      1.400      4.713
REMARK  6 active torsions:
REMARK  status: ('A' for Active; 'I' for Inactive)
REMARK    1  A    between atoms: C_5  and  N_1 
REMARK    2  A    between atoms: C_8  and  C_2 
REMARK    3  A    between atoms: C_3  and  O_4 
REMARK    4  A    between atoms: O_4  and  C_9 
REMARK    5  A    between atoms: C_7  and  C_5 
REMARK    6  A    between atoms: C_9  and  C_7 
ROOT
ATOM      1  O   UNL d   1      57.045   0.081  32.134  0.00  0.00    -0.302 OA
ENDROOT
BRANCH   1   2
ATOM      2  C   UNL d   1      57.115   0.263  32.931  0.00  0.00     0.100 A 
ATOM      3  C   UNL d   1      56.457   0.211  33.426  0.00  0.00     0.023 A 
ATOM      4  C   UNL d   1      56.527   0.393  34.224  0.00  0.00     0.002 A 
ATOM      5  C   UNL d   1      57.257   0.628  34.532  0.00  0.00     0.000 A 
ATOM      6  C   UNL d   1      57.914   0.681  34.042  0.00  0.00     0.002 A 
ATOM      7  C   UNL d   1      57.845   0.498  33.240  0.00  0.00     0.025 A 
BRANCH   3   8
ATOM      8  C   UNL d   1      55.731  -0.024  33.118  0.00  0.00     0.002 C 
ATOM      9  C   UNL d   1      55.165   0.543  32.919  0.00  0.00     0.000 C 
ATOM     10  C   UNL d   1      55.567  -0.822  33.010  0.00  0.00     0.000 C 
ENDBRANCH   3   8
ENDBRANCH   1   2
BRANCH   1  11
ATOM     11  C   UNL d   1      57.556   0.429  31.590  0.00  0.00     0.166 C 
BRANCH  11  12
ATOM     12  C   UNL d   1      57.625   0.114  30.828  0.00  0.00     0.238 C 
ATOM     13  O   UNL d   1      57.481  -0.686  30.701  0.00  0.00    -0.283 OA
BRANCH  12  14
ATOM     14  C   UNL d   1      57.838   0.598  30.199  0.00  0.00     0.125 C 
BRANCH  14  15
ATOM     15  N   UNL d   1      58.483   0.400  29.724  0.00  0.00    -0.296 N 
ATOM     16  C   UNL d   1      59.247   0.600  29.969  0.00  0.00     0.107 A 
ATOM     17  C   UNL d   1      59.891   0.404  29.498  0.00  0.00     0.142 A 
ATOM     18  O   UNL d   1      59.774   0.008  28.784  0.00  0.00    -0.300 OA
ATOM     19  C   UNL d   1      59.012  -0.190  28.543  0.00  0.00     0.142 A 
ATOM     20  C   UNL d   1      58.363   0.007  29.017  0.00  0.00     0.107 A 
ENDBRANCH  14  15
ENDBRANCH  12  14
ENDBRANCH  11  12
ENDBRANCH   1  11
TORSDOF 6
ENDMDL
MODEL 3
REMARK VINA RESULT:      -2.5      1.039      1.310
REMARK  6 active torsions:
REMARK  status: ('A' for Active; 'I' for Inactive)
REMARK    1  A    between atoms: C_5  and  N_1 
REMARK    2  A    between atoms: C_8  and  C_2 
REMARK    3  A    between atoms: C_3  and  O_4 
REMARK    4  A    between atoms: O_4  and  C_9 
REMARK    5  A    between atoms: C_7  and  C_5 
REMARK    6  A    between atoms: C_9  and  C_7 
ROOT
ATOM      1  O   UNL d   1      59.095  -1.143  29.624  0.00  0.00    -0.302 OA
ENDROOT
BRANCH   1   2
ATOM      2  C   UNL d   1      59.407  -1.820  29.280  0.00  0.00     0.100 A 
ATOM      3  C   UNL d   1      60.188  -1.826  29.015  0.00  0.00     0.023 A 
ATOM      4  C   UNL d   1      60.500  -2.504  28.671  0.00  0.00     0.002 A 
ATOM      5  C   UNL d   1      60.031  -3.180  28.590  0.00  0.00     0.000 A 
ATOM      6  C   UNL d   1      59.253  -3.177  28.854  0.00  0.00     0.002 A 
ATOM      7  C   UNL d   1      58.938  -2.496  29.200  0.00  0.00     0.025 A 
BRANCH   3   8
ATOM      8  C   UNL d   1      60.654  -1.153  29.095  0.00  0.00     0.002 C 
ATOM      9  C   UNL d   1      61.016  -0.986  29.817  0.00  0.00     0.000 C 
ATOM     10  C   UNL d   1      60.759  -0.646  28.456  0.00  0.00     0.000 C 
ENDBRANCH   3   8
ENDBRANCH   1   2
BRANCH   1  11
ATOM     11  C   UNL d   1      58.341  -1.163  29.953  0.00  0.00     0.166 C 
BRANCH  11  12
ATOM     12  C   UNL d   1      57.976  -0.460  30.194  0.00  0.00     0.238 C 
ATOM     13  O   UNL d   1      57.532  -0.025  29.655  0.00  0.00    -0.283 OA
BRANCH  12  14
ATOM     14  C   UNL d   1      58.056  -0.197  30.968  0.00  0.00     0.125 C 
BRANCH  14  15
ATOM     15  N   UNL d   1      57.391  -0.123  31.450  0.00  0.00    -0.296 N 
ATOM     16  C   UNL d   1      56.940  -0.793  31.630  0.00  0.00     0.107 A 
ATOM     17  C   UNL d   1      56.277  -0.722  32.110  0.00  0.00     0.142 A 
ATOM     18  O   UNL d   1      56.062   0.016  32.411  0.00  0.00    -0.300 OA
ATOM     19  C   UNL d   1      56.513   0.680  32.229  0.00  0.00     0.142 A 
ATOM     20  C   UNL d   1      57.181   0.610  31.747  0.00  0.00     0.107 A 
ENDBRANCH  14  15
ENDBRANCH  12  14
ENDBRANCH  11  12
ENDBRANCH   1  11
TORSDOF 6
ENDMDL
