MODEL 1
REMARK VINA RESULT:      88.2      0.000      0.000
REMARK  9 active torsions:
REMARK  status: ('A' for Active; 'I' for Inactive)
REMARK    1  A    between atoms: C_21  and  N_1 
REMARK    2  A    between atoms: S_17  and  C_3 
REMARK    3  A    between atoms: C_16  and  C_32 
REMARK       I    between atoms: N_19  and  C_16 
REMARK    4  A    between atoms: C_29  and  S_17 
REMARK    5  A    between atoms: C_22  and  N_19 
REMARK    6  A    between atoms: C_31  and  C_21 
REMARK    7  A    between atoms: C_23  and  C_22 
REMARK    8  A    between atoms: O_30  and  C_24 
REMARK    9  A    between atoms: C_32  and  C_31 
ROOT
ATOM      1  N   UNL d   1      61.117  47.884  53.134  0.00  0.00    -0.195 NA
ATOM      2  C   UNL d   1      61.059  48.677  52.924  0.00  0.00     0.086 C 
ATOM      3  C   UNL d   1      61.001  49.479  52.728  0.00  0.00     0.170 C 
ENDROOT
BRANCH   3   4
ATOM      4  S   UNL d   1      60.974  49.706  51.937  0.00  0.00    -0.060 SA
BRANCH   4   5
ATOM      5  C   UNL d   1      60.235  49.706  51.523  0.00  0.00     0.178 A 
ATOM      6  N   UNL d   1      60.239  49.707  50.711  0.00  0.00    -0.253 N 
ATOM      7  C   UNL d   1      59.521  49.706  50.296  0.00  0.00     0.268 A 
ATOM      8  C   UNL d   1      58.796  49.705  50.704  0.00  0.00     0.076 A 
ATOM      9  O   UNL d   1      59.525  49.707  49.473  0.00  0.00    -0.267 OA
ATOM     10  C   UNL d   1      58.081  49.705  50.289  0.00  0.00     0.033 A 
ATOM     11  C   UNL d   1      58.792  49.705  51.516  0.00  0.00     0.090 A 
ATOM     12  C   UNL d   1      57.344  49.704  50.698  0.00  0.00     0.119 A 
ATOM     13  O   UNL d   1      56.537  49.704  50.446  0.00  0.00    -0.300 OA
ATOM     14  C   UNL d   1      57.344  49.704  51.510  0.00  0.00     0.121 A 
ATOM     15  C   UNL d   1      56.035  49.703  51.105  0.00  0.00     0.304 A 
ATOM     16  O   UNL d   1      56.540  49.703  51.756  0.00  0.00    -0.299 OA
ATOM     17  C   UNL d   1      58.066  49.704  51.924  0.00  0.00     0.046 A 
ATOM     18  N   UNL d   1      59.514  49.705  51.931  0.00  0.00    -0.222 NA
BRANCH   6  19
ATOM     19  C   UNL d   1      60.981  49.708  50.302  0.00  0.00     0.085 C 
BRANCH  19  20
ATOM     20  C   UNL d   1      61.024  49.376  49.550  0.00  0.00     0.024 C 
BRANCH  20  21
ATOM     21  C   UNL d   1      61.231  48.579  49.476  0.00  0.00     0.064 C 
BRANCH  21  22
ATOM     22  C   UNL d   1      61.969  48.321  49.738  0.00  0.00     0.279 C 
ATOM     23  N   UNL d   1      62.166  47.524  49.686  0.00  0.00    -0.206 NA
ATOM     24  O   UNL d   1      62.508  48.864  50.054  0.00  0.00    -0.265 OA
BRANCH  23  25
ATOM     25  C   UNL d   1      61.629  46.988  49.372  0.00  0.00     0.102 C 
BRANCH  25  26
ATOM     26  C   UNL d   1      61.569  46.228  49.707  0.00  0.00     0.019 A 
ATOM     27  C   UNL d   1      61.270  46.133  50.454  0.00  0.00     0.004 A 
ATOM     28  C   UNL d   1      61.214  45.381  50.777  0.00  0.00     0.024 A 
ATOM     29  C   UNL d   1      61.459  44.721  50.352  0.00  0.00     0.094 A 
ATOM     30  C   UNL d   1      61.762  44.822  49.594  0.00  0.00     0.024 A 
ATOM     31  C   UNL d   1      61.821  45.583  49.259  0.00  0.00     0.004 A 
BRANCH  29  32
ATOM     32  O   UNL d   1      61.403  43.966  50.676  0.00  0.00    -0.328 OA
ATOM     33  C   UNL d   1      60.740  43.780  51.128  0.00  0.00     0.181 C 
ENDBRANCH  29  32
ENDBRANCH  25  26
ENDBRANCH  23  25
ENDBRANCH  21  22
ENDBRANCH  20  21
ENDBRANCH  19  20
ENDBRANCH   6  19
ENDBRANCH   4   5
ENDBRANCH   3   4
TORSDOF 9
ENDMDL
