MODEL 1
REMARK VINA RESULT:      20.6      0.000      0.000
REMARK  1 active torsions:
REMARK  status: ('A' for Active; 'I' for Inactive)
REMARK    1  A    between atoms: C_2  and  C_1 
ROOT
ATOM      1  C   UNL d   1      45.712 -15.914  44.489  0.00  0.00     0.087 A 
ATOM      2  C   UNL d   1      44.974 -15.719  44.801  0.00  0.00     0.302 A 
ATOM      3  C   UNL d   1      46.273 -15.325  44.329  0.00  0.00     0.009 A 
ATOM      4  O   UNL d   1      44.795 -14.933  44.955  0.00  0.00    -0.273 OA
ATOM      5  C   UNL d   1      45.340 -14.339  44.802  0.00  0.00     0.106 A 
ATOM      6  C   UNL d   1      46.078 -14.535  44.489  0.00  0.00     0.023 A 
ATOM      7  C   UNL d   1      45.160 -13.554  44.955  0.00  0.00     0.067 A 
ATOM      8  O   UNL d   1      44.429 -16.313  44.955  0.00  0.00    -0.259 OA
ATOM      9  C   UNL d   1      46.639 -13.946  44.329  0.00  0.00     0.005 A 
ATOM     10  C   UNL d   1      45.705 -12.960  44.802  0.00  0.00     0.198 A 
ATOM     11  C   UNL d   1      46.443 -13.155  44.489  0.00  0.00     0.042 A 
ATOM     12  O   UNL d   1      45.525 -12.174  44.955  0.00  0.00    -0.286 OA
ENDROOT
BRANCH   1  13
ATOM     13  C   UNL d   1      45.912 -16.690  44.329  0.00  0.00     0.116 A 
ATOM     14  N   UNL d   1      46.036 -17.062  43.617  0.00  0.00    -0.238 NA
ATOM     15  C   UNL d   1      46.224 -17.845  43.753  0.00  0.00     0.088 A 
ATOM     16  C   UNL d   1      46.401 -18.462  43.227  0.00  0.00     0.020 A 
ATOM     17  C   UNL d   1      46.217 -17.960  44.552  0.00  0.00     0.049 A 
ATOM     18  C   UNL d   1      46.572 -19.210  43.551  0.00  0.00     0.002 A 
ATOM     19  C   UNL d   1      46.564 -19.327  44.366  0.00  0.00     0.001 A 
ATOM     20  C   UNL d   1      46.385 -18.695  44.871  0.00  0.00     0.008 A 
ATOM     21  S   UNL d   1      46.026 -17.259  44.932  0.00  0.00    -0.066 SA
ENDBRANCH   1  13
TORSDOF 1
ENDMDL
