MODEL 1
REMARK VINA RESULT:     132.5      0.000      0.000
REMARK  6 active torsions:
REMARK  status: ('A' for Active; 'I' for Inactive)
REMARK    1  A    between atoms: N_7  and  C_1 
REMARK    2  A    between atoms: C_6  and  C_4 
REMARK    3  A    between atoms: C_19  and  N_9 
REMARK    4  A    between atoms: C_21  and  C_13 
REMARK    5  A    between atoms: O_20  and  C_21 
REMARK    6  A    between atoms: C_22  and  O_20 
ROOT
ATOM      1  C   UNL d   1      62.263  43.030  49.680  0.00  0.00     0.198 A 
ATOM      2  C   UNL d   1      62.058  43.412  50.423  0.00  0.00     0.191 A 
ATOM      3  O   UNL d   1      62.265  43.627  49.101  0.00  0.00    -0.268 OA
ATOM      4  C   UNL d   1      62.077  44.322  49.463  0.00  0.00     0.208 A 
ATOM      5  N   UNL d   1      61.953  44.203  50.241  0.00  0.00    -0.206 NA
ATOM      6  C   UNL d   1      61.991  43.027  51.149  0.00  0.00     0.124 C 
ATOM      7  N   UNL d   1      61.916  42.665  51.896  0.00  0.00    -0.190 NA
ENDROOT
BRANCH   1   8
ATOM      8  N   UNL d   1      62.406  42.229  49.662  0.00  0.00    -0.280 N 
ATOM      9  C   UNL d   1      63.008  41.890  50.105  0.00  0.00     0.101 A 
ATOM     10  C   UNL d   1      63.151  41.089  50.088  0.00  0.00     0.100 A 
ATOM     11  N   UNL d   1      62.676  40.610  49.609  0.00  0.00    -0.301 N 
ATOM     12  C   UNL d   1      62.060  40.936  49.152  0.00  0.00     0.100 A 
ATOM     13  C   UNL d   1      61.931  41.749  49.184  0.00  0.00     0.101 A 
BRANCH  11  14
ATOM     14  C   UNL d   1      62.806  39.796  49.578  0.00  0.00     0.064 A 
ATOM     15  C   UNL d   1      62.719  39.312  50.256  0.00  0.00     0.018 A 
ATOM     16  C   UNL d   1      62.848  38.499  50.225  0.00  0.00     0.002 A 
ATOM     17  C   UNL d   1      63.069  38.156  49.503  0.00  0.00     0.000 A 
ATOM     18  C   UNL d   1      63.158  38.619  48.828  0.00  0.00     0.002 A 
ATOM     19  C   UNL d   1      63.026  39.452  48.856  0.00  0.00     0.018 A 
ENDBRANCH  11  14
ENDBRANCH   1   8
BRANCH   4  20
ATOM     20  C   UNL d   1      61.920  45.118  49.557  0.00  0.00     0.141 A 
ATOM     21  O   UNL d   1      61.574  45.762  49.978  0.00  0.00    -0.301 OA
ATOM     22  C   UNL d   1      61.747  46.460  49.572  0.00  0.00     0.125 A 
ATOM     23  C   UNL d   1      62.182  46.290  48.919  0.00  0.00     0.029 A 
ATOM     24  C   UNL d   1      62.281  45.448  48.925  0.00  0.00     0.030 A 
BRANCH  22  25
ATOM     25  C   UNL d   1      61.527  47.231  49.771  0.00  0.00     0.147 C 
BRANCH  25  26
ATOM     26  O   UNL d   1      61.557  47.508  50.551  0.00  0.00    -0.303 OA
BRANCH  26  27
ATOM     27  C   UNL d   1      61.246  48.229  50.771  0.00  0.00     0.100 A 
ATOM     28  C   UNL d   1      61.424  48.595  51.483  0.00  0.00     0.025 A 
ATOM     29  C   UNL d   1      61.101  49.321  51.686  0.00  0.00     0.002 A 
ATOM     30  C   UNL d   1      61.271  49.706  52.403  0.00  0.00     0.000 C 
ATOM     31  C   UNL d   1      60.588  49.688  51.164  0.00  0.00     0.000 A 
ATOM     32  C   UNL d   1      60.395  49.321  50.424  0.00  0.00     0.002 A 
ATOM     33  C   UNL d   1      60.721  48.600  50.231  0.00  0.00     0.025 A 
ENDBRANCH  26  27
ENDBRANCH  25  26
ENDBRANCH  22  25
ENDBRANCH   4  20
TORSDOF 6
ENDMDL
MODEL 2
REMARK VINA RESULT:     133.7      1.235      7.472
REMARK  6 active torsions:
REMARK  status: ('A' for Active; 'I' for Inactive)
REMARK    1  A    between atoms: N_7  and  C_1 
REMARK    2  A    between atoms: C_6  and  C_4 
REMARK    3  A    between atoms: C_19  and  N_9 
REMARK    4  A    between atoms: C_21  and  C_13 
REMARK    5  A    between atoms: O_20  and  C_21 
REMARK    6  A    between atoms: C_22  and  O_20 
ROOT
ATOM      1  C   UNL d   1      61.795  45.057  50.498  0.00  0.00     0.198 A 
ATOM      2  C   UNL d   1      62.372  44.865  49.890  0.00  0.00     0.191 A 
ATOM      3  O   UNL d   1      61.616  44.343  50.886  0.00  0.00    -0.268 OA
ATOM      4  C   UNL d   1      62.051  43.759  50.541  0.00  0.00     0.208 A 
ATOM      5  N   UNL d   1      62.499  44.059  49.953  0.00  0.00    -0.206 NA
ATOM      6  C   UNL d   1      62.707  45.409  49.368  0.00  0.00     0.124 C 
ATOM      7  N   UNL d   1      63.061  45.935  48.828  0.00  0.00    -0.190 NA
ENDROOT
BRANCH   1   8
ATOM      8  N   UNL d   1      61.542  45.825  50.589  0.00  0.00    -0.280 N 
ATOM      9  C   UNL d   1      61.671  46.392  50.009  0.00  0.00     0.101 A 
ATOM     10  C   UNL d   1      61.418  47.159  50.100  0.00  0.00     0.100 A 
ATOM     11  N   UNL d   1      61.021  47.369  50.795  0.00  0.00    -0.301 N 
ATOM     12  C   UNL d   1      60.881  46.807  51.395  0.00  0.00     0.100 A 
ATOM     13  C   UNL d   1      61.145  46.035  51.284  0.00  0.00     0.101 A 
BRANCH  11  14
ATOM     14  C   UNL d   1      60.757  48.142  50.906  0.00  0.00     0.064 A 
ATOM     15  C   UNL d   1      60.344  48.369  51.598  0.00  0.00     0.018 A 
ATOM     16  C   UNL d   1      60.080  49.141  51.709  0.00  0.00     0.002 A 
ATOM     17  C   UNL d   1      60.228  49.705  51.119  0.00  0.00     0.000 A 
ATOM     18  C   UNL d   1      60.633  49.496  50.433  0.00  0.00     0.002 A 
ATOM     19  C   UNL d   1      60.905  48.706  50.316  0.00  0.00     0.018 A 
ENDBRANCH  11  14
ENDBRANCH   1   8
BRANCH   4  20
ATOM     20  C   UNL d   1      62.351  43.014  50.392  0.00  0.00     0.141 A 
ATOM     21  O   UNL d   1      62.653  42.427  49.868  0.00  0.00    -0.301 OA
ATOM     22  C   UNL d   1      62.830  41.751  50.309  0.00  0.00     0.125 A 
ATOM     23  C   UNL d   1      62.654  41.882  51.082  0.00  0.00     0.029 A 
ATOM     24  C   UNL d   1      62.356  42.675  51.116  0.00  0.00     0.030 A 
BRANCH  22  25
ATOM     25  C   UNL d   1      63.139  41.035  50.039  0.00  0.00     0.147 C 
BRANCH  25  26
ATOM     26  O   UNL d   1      62.755  40.581  49.462  0.00  0.00    -0.303 OA
BRANCH  26  27
ATOM     27  C   UNL d   1      62.755  39.767  49.475  0.00  0.00     0.100 A 
ATOM     28  C   UNL d   1      62.399  39.327  50.069  0.00  0.00     0.025 A 
ATOM     29  C   UNL d   1      62.409  38.507  50.064  0.00  0.00     0.002 A 
ATOM     30  C   UNL d   1      62.053  38.047  50.658  0.00  0.00     0.000 C 
ATOM     31  C   UNL d   1      62.785  38.118  49.450  0.00  0.00     0.000 A 
ATOM     32  C   UNL d   1      63.158  38.560  48.828  0.00  0.00     0.002 A 
ATOM     33  C   UNL d   1      63.142  39.374  48.842  0.00  0.00     0.025 A 
ENDBRANCH  26  27
ENDBRANCH  25  26
ENDBRANCH  22  25
ENDBRANCH   4  20
TORSDOF 6
ENDMDL
